@<TRIPOS>MOLECULE
3R540
247   249    1
SMALL
USER_CHARGES


@<TRIPOS>ATOM
      1 CA          0.3253   -9.5191  -48.1889 C.3       0 UNK        -0.1800 
      2 C           0.4532  -10.6326  -47.1609 C.2       0 UNK         0.5000 
      3 O           1.1016  -10.4454  -46.1323 O.2       0 UNK        -0.5000 
      4 N          -0.1794  -11.7842  -47.4185 N.am      1 UNK        -0.5000 
      5 CA         -0.1234  -13.0044  -46.5950 C.3       1 UNK         0.1400 
      6 C6         -0.7352  -14.2225  -47.3308 C.3       23 UNK        -0.0398 
      7 S7          0.1088  -14.5268  -48.9207 S.3       23 UNK        -0.2404 
      8 C8          0.0291  -16.3399  -49.0672 C.3       23 UNK        -0.0205 
      9 C9         -1.3107  -16.8518  -49.5782 C.ar      23 UNK        -0.0193 
     10 C10        -1.8746  -16.3290  -50.7441 C.ar      23 UNK        -0.1150 
     11 C11        -3.0656  -16.8482  -51.2582 C.ar      23 UNK        -0.0193 
     12 C12        -3.6833  -17.9223  -50.6083 C.ar      23 UNK        -0.1150 
     13 C13        -3.1273  -18.4608  -49.4412 C.ar      23 UNK        -0.0193 
     14 C14        -1.9556  -17.9012  -48.9207 C.ar      23 UNK        -0.1150 
     15 C15        -3.7925  -19.6399  -48.7397 C.3       23 UNK        -0.0205 
     16 S16        -2.8762  -21.2007  -48.9809 S.3       23 UNK        -0.2404 
     17 C17        -1.5385  -21.0331  -47.7486 C.3       23 UNK        -0.0398 
     18 CA         -0.9338  -22.3708  -47.2628 C.3       11 UNK         0.1400 
     19 N           0.3120  -22.1434  -46.5255 N.am      11 UNK        -0.5000 
     20 C           1.1633  -23.1023  -46.1366 C.2       10 UNK         0.5000 
     21 O           1.0245  -24.2930  -46.4133 O.2       10 UNK        -0.5000 
     22 CA          2.3401  -22.6623  -45.2458 C.3       10 UNK         0.1400 
     23 CB          3.4767  -22.0705  -46.0921 C.3       10 UNK        -0.1800 
     24 N           1.9368  -21.7027  -44.2152 N.am      10 UNK        -0.5000 
     25 C           1.0743  -21.9772  -43.2253 C.2       9 UNK         0.5000 
     26 O           0.5739  -23.0865  -43.0471 O.2       9 UNK        -0.5000 
     27 CA          0.6579  -20.8114  -42.3108 C.3       9 UNK         0.1400 
     28 CB          1.7177  -20.5588  -41.2289 C.3       9 UNK        -0.1800 
     29 N           0.3998  -19.5765  -43.0515 N.am      9 UNK        -0.5000 
     30 C          -0.5620  -19.4247  -43.9728 C.2       8 UNK         0.5000 
     31 O          -1.3707  -20.3029  -44.2680 O.2       8 UNK        -0.5000 
     32 CA         -0.5881  -18.0914  -44.7397 C.3       8 UNK         0.1400 
     33 CB         -1.3045  -16.9998  -43.9335 C.3       8 UNK        -0.1800 
     34 N           0.7554  -17.6476  -45.1138 N.am      8 UNK        -0.5000 
     35 C           1.5410  -18.2969  -45.9858 C.2       7 UNK         0.5000 
     36 O           1.1768  -19.2845  -46.6247 O.2       7 UNK        -0.5000 
     37 CA          2.9842  -17.7857  -46.1327 C.3       7 UNK         0.1400 
     38 CB          3.0628  -16.6227  -47.1328 C.3       7 UNK        -0.1800 
     39 N           3.5394  -17.3663  -44.8463 N.am      7 UNK        -0.5000 
     40 C           3.9209  -18.2200  -43.8844 C.2       6 UNK         0.5000 
     41 O           3.8659  -19.4438  -44.0033 O.2       6 UNK        -0.5000 
     42 CA          4.4063  -17.6125  -42.5529 C.3       6 UNK         0.1400 
     43 CB          5.9162  -17.3380  -42.6061 C.3       6 UNK        -0.1800 
     44 N           3.7054  -16.3793  -42.1935 N.am      6 UNK        -0.5000 
     45 C           2.3886  -16.2897  -41.9628 C.2       5 UNK         0.5000 
     46 O           1.6370  -17.2631  -41.9453 O.2       5 UNK        -0.5000 
     47 CA          1.7974  -14.8813  -41.7677 C.3       5 UNK         0.1400 
     48 CB          1.6077  -14.5787  -40.2745 C.3       5 UNK        -0.1800 
     49 N           2.5677  -13.7945  -42.3790 N.am      5 UNK        -0.5000 
     50 C           2.8923  -13.6798  -43.6739 C.2       4 UNK         0.5000 
     51 O           2.6838  -14.5584  -44.5128 O.2       4 UNK        -0.5000 
     52 CA          3.5390  -12.3432  -44.0854 C.3       4 UNK         0.1400 
     53 CB          4.0024  -12.3336  -45.5532 C.3       4 UNK        -0.1800 
     54 N           2.6046  -11.2384  -43.8750 N.am      4 UNK        -0.5000 
     55 C           2.3456  -10.6445  -42.7021 C.2       3 UNK         0.5000 
     56 O           2.9222  -10.9309  -41.6517 O.2       3 UNK        -0.5000 
     57 CA          1.2187   -9.6006  -42.6960 C.3       3 UNK         0.1400 
     58 CB          1.6689   -8.2976  -43.3757 C.3       3 UNK        -0.1800 
     59 N           0.0390  -10.1285  -43.3800 N.am      3 UNK        -0.5000 
     60 C          -0.9648  -10.7807  -42.7759 C.2       2 UNK         0.5000 
     61 O          -1.0459  -10.9336  -41.5566 O.2       2 UNK        -0.5000 
     62 CA         -2.0642  -11.3699  -43.6843 C.3       2 UNK         0.1400 
     63 CB         -3.1980  -10.3533  -43.8872 C.3       2 UNK        -0.1800 
     64 N          -1.5544  -11.7852  -44.9917 N.am      2 UNK        -0.5000 
     65 C          -0.7430  -12.8340  -45.1891 C.2       1 UNK         0.5000 
     66 O          -0.4545  -13.6354  -44.3025 O.2       1 UNK        -0.5000 
     67 C          -1.9296  -23.2200  -46.4413 C.2       11 UNK         0.5000 
     68 O          -2.4826  -24.1842  -46.9688 O.2       11 UNK        -0.5000 
     69 N          -2.0981  -22.8970  -45.1510 N.am      12 UNK        -0.5000 
     70 CA         -2.9255  -23.6526  -44.2082 C.3       12 UNK         0.1400 
     71 CB         -3.0196  -22.8965  -42.8749 C.3       12 UNK        -0.1800 
     72 C          -2.4254  -25.0936  -43.9931 C.2       12 UNK         0.5000 
     73 O          -3.2335  -26.0219  -44.0192 O.2       12 UNK        -0.5000 
     74 N          -1.1039  -25.2657  -43.8440 N.am      13 UNK        -0.5000 
     75 CA         -0.4345  -26.5654  -43.7262 C.3       13 UNK         0.1400 
     76 CB          1.0452  -26.3499  -43.3756 C.3       13 UNK        -0.1800 
     77 C          -0.5720  -27.4409  -44.9879 C.2       13 UNK         0.5000 
     78 O          -0.6451  -28.6646  -44.8729 O.2       13 UNK        -0.5000 
     79 N          -0.6498  -26.7997  -46.1613 N.am      14 UNK        -0.5000 
     80 CA         -0.9244  -27.4275  -47.4556 C.3       14 UNK         0.1400 
     81 CB         -0.3880  -26.5150  -48.5718 C.3       14 UNK        -0.1800 
     82 C          -2.4179  -27.7580  -47.6802 C.2       14 UNK         0.5000 
     83 O          -2.7496  -28.3095  -48.7300 O.2       14 UNK        -0.5000 
     84 N          -3.2821  -27.4291  -46.7063 N.am      15 UNK        -0.5000 
     85 CA         -4.7407  -27.5794  -46.7095 C.3       15 UNK         0.1400 
     86 CB         -5.1628  -29.0574  -46.8555 C.3       15 UNK        -0.1800 
     87 C          -5.4276  -26.6339  -47.7159 C.2       15 UNK         0.5000 
     88 O          -6.3757  -27.0338  -48.3949 O.2       15 UNK        -0.5000 
     89 N          -4.9365  -25.3870  -47.7599 N.am      16 UNK        -0.5000 
     90 CA         -5.3366  -24.2736  -48.6232 C.3       16 UNK         0.1400 
     91 CB         -6.8430  -23.9604  -48.4879 C.3       16 UNK        -0.1800 
     92 C          -4.8941  -24.4596  -50.0881 C.2       16 UNK         0.5000 
     93 O          -4.2855  -25.4701  -50.4482 O.2       16 UNK        -0.5000 
     94 N          -5.1921  -23.4511  -50.9093 N.am      17 UNK        -0.5000 
     95 CA         -4.8977  -23.3975  -52.3339 C.3       17 UNK         0.1400 
     96 CB         -3.4937  -22.8038  -52.5495 C.3       17 UNK        -0.1800 
     97 C          -5.9695  -22.5361  -53.0116 C.2       17 UNK         0.5000 
     98 O          -6.6005  -21.7062  -52.3493 O.2       17 UNK        -0.5000 
     99 N          -6.1436  -22.7368  -54.3222 N.am      18 UNK        -0.5000 
    100 CA        -6.9921  -21.9074  -55.1771 C.3       18 UNK         0.1400 
    101 CB        -7.1493  -22.6036  -56.5383 C.3       18 UNK        -0.1800 
    102 C         -6.3853  -20.5065  -55.3687 C.2       18 UNK         0.5000 
    103 O         -5.1630  -20.3591  -55.2979 O.2       18 UNK        -0.5000 
    104 N         -7.2365  -19.5193  -55.6760 N.am      19 UNK        -0.5000 
    105 CA        -6.8531  -18.1211  -55.9124 C.3       19 UNK         0.1400 
    106 CB        -8.1258  -17.2756  -56.0724 C.3       19 UNK        -0.1800 
    107 C         -5.9144  -17.9156  -57.1210 C.2       19 UNK         0.5000 
    108 O         -5.1865  -16.9240  -57.1668 O.2       19 UNK        -0.5000 
    109 N         -5.9417  -18.8589  -58.0710 N.am      20 UNK        -0.5000 
    110 CA        -5.0416  -18.9123  -59.2221 C.3       20 UNK         0.1400 
    111 CB        -5.7439  -19.6834  -60.3514 C.3       20 UNK        -0.1800 
    112 C         -3.6803  -19.5626  -58.8960 C.2       20 UNK         0.5000 
    113 O         -2.7572  -19.4407  -59.7028 O.2       20 UNK        -0.5000 
    114 N         -3.5790  -20.2580  -57.7545 N.am      21 UNK        -0.5000 
    115 CA        -2.3931  -20.9920  -57.3231 C.3       21 UNK         0.1400 
    116 CB        -2.8032  -22.4055  -56.8704 C.3       21 UNK        -0.1800 
    117 C         -1.6656  -20.2228  -56.2111 C.2       21 UNK         0.5000 
    118 O         -0.5530  -19.7466  -56.4392 O.2       21 UNK        -0.5000 
    119 N         -2.3078  -20.1101  -55.0387 N.am      22 UNK        -0.5000 
    120 CA        -1.8083  -19.4143  -53.8352 C.3       22 UNK         0.1400 
    121 C         -0.4516  -19.9467  -53.2730 C.2       22 UNK         0.5000 
    122 N         -0.1029  -21.2076  -53.5006 N.am      22 UNK        -0.7600 
    123 O          0.2865  -19.2291  -52.6038 O.2       22 UNK        -0.5000 
    124 C124       -1.8578  -17.8701  -54.0054 C.3       23 UNK        -0.0398 
    125 S125       -3.5916  -17.2960  -53.9842 S.3       23 UNK        -0.2404 
    126 C126       -3.6760  -16.2273  -52.5094 C.3       23 UNK        -0.0205 
    127 H127       -0.2863   -9.8206  -49.0395 H         1 UNK         0.0600 
    128 H128        1.3111   -9.2389  -48.5599 H         1 UNK         0.0600 
    129 H129       -0.1314   -8.6402  -47.7340 H         1 UNK         0.0600 
    130 H130       -0.6899  -11.8781  -48.2853 H         1 UNK         0.3000 
    131 H131        0.9324  -13.2248  -46.4266 H         1 UNK         0.0600 
    132 H132       -0.6536  -15.1177  -46.7117 H         1 UNK         0.0800 
    133 H133       -1.7991  -14.0721  -47.5217 H         1 UNK         0.0800 
    134 H134        0.2746  -16.7915  -48.1072 H         1 UNK         0.0800 
    135 H135        0.8021  -16.6645  -49.7649 H         1 UNK         0.0800 
    136 H136       -1.3774  -15.5179  -51.2573 H         1 UNK         0.1150 
    137 H137       -4.5949  -18.3374  -51.0152 H         1 UNK         0.1150 
    138 H138       -1.5238  -18.3019  -48.0170 H         1 UNK         0.1150 
    139 H139       -3.9011  -19.4273  -47.6753 H         1 UNK         0.0800 
    140 H140       -4.8049  -19.7774  -49.1223 H         1 UNK         0.0800 
    141 H141       -1.8925  -20.4473  -46.8997 H         1 UNK         0.0800 
    142 H142       -0.7512  -20.4446  -48.2211 H         1 UNK         0.0800 
    143 H143       -0.6706  -22.9537  -48.1481 H         1 UNK         0.0600 
    144 H144        0.5303  -21.1802  -46.2923 H         1 UNK         0.3000 
    145 H145        2.7233  -23.5513  -44.7407 H         1 UNK         0.0600 
    146 H146        4.3425  -21.8298  -45.4751 H         1 UNK         0.0600 
    147 H147        3.8064  -22.7792  -46.8528 H         1 UNK         0.0600 
    148 H148        3.1677  -21.1592  -46.6041 H         1 UNK         0.0600 
    149 H149        2.3580  -20.7808  -44.2594 H         1 UNK         0.3000 
    150 H150       -0.2709  -21.0960  -41.8125 H         1 UNK         0.0600 
    151 H151        1.8892  -21.4571  -40.6345 H         1 UNK         0.0600 
    152 H152        1.4032  -19.7706  -40.5446 H         1 UNK         0.0600 
    153 H153        2.6736  -20.2648  -41.6615 H         1 UNK         0.0600 
    154 H154        0.9808  -18.7755  -42.8163 H         1 UNK         0.3000 
    155 H155       -1.1572  -18.2528  -45.6568 H         1 UNK         0.0600 
    156 H156       -0.7575  -16.7326  -43.0298 H         1 UNK         0.0600 
    157 H157       -2.2986  -17.3295  -43.6289 H         1 UNK         0.0600 
    158 H158       -1.4346  -16.0967  -44.5278 H         1 UNK         0.0600 
    159 H159        1.1346  -16.8541  -44.6166 H         1 UNK         0.3000 
    160 H160        3.5943  -18.6042  -46.5207 H         1 UNK         0.0600 
    161 H161        4.0753  -16.2243  -47.1973 H         1 UNK         0.0600 
    162 H162        2.3982  -15.8025  -46.8589 H         1 UNK         0.0600 
    163 H163        2.7830  -16.9540  -48.1329 H         1 UNK         0.0600 
    164 H164        3.5366  -16.3690  -44.6570 H         1 UNK         0.3000 
    165 H165        4.2192  -18.3450  -41.7654 H         1 UNK         0.0600 
    166 H166        6.2871  -16.9830  -41.6444 H         1 UNK         0.0600 
    167 H167        6.4691  -18.2458  -42.8513 H         1 UNK         0.0600 
    168 H168        6.1633  -16.5891  -43.3597 H         1 UNK         0.0600 
    169 H169        4.2478  -15.5284  -42.1921 H         1 UNK         0.3000 
    170 H170        0.8137  -14.8821  -42.2404 H         1 UNK         0.0600 
    171 H171        1.0114  -15.3534  -39.7903 H         1 UNK         0.0600 
    172 H172        2.5632  -14.5231  -39.7516 H         1 UNK         0.0600 
    173 H173        1.0878  -13.6315  -40.1280 H         1 UNK         0.0600 
    174 H174        2.7623  -12.9952  -41.7860 H         1 UNK         0.3000 
    175 H175        4.4198  -12.1947  -43.4573 H         1 UNK         0.0600 
    176 H176        3.1690  -12.4627  -46.2437 H         1 UNK         0.0600 
    177 H177        4.4973  -11.3950  -45.8023 H         1 UNK         0.0600 
    178 H178        4.7144  -13.1375  -45.7440 H         1 UNK         0.0600 
    179 H179        2.0685  -10.9502  -44.6912 H         1 UNK         0.3000 
    180 H180        0.9756   -9.3690  -41.6568 H         1 UNK         0.0600 
    181 H181        1.9279   -8.4511  -44.4239 H         1 UNK         0.0600 
    182 H182        2.5464   -7.8825  -42.8783 H         1 UNK         0.0600 
    183 H183        0.8839   -7.5425  -43.3337 H         1 UNK         0.0600 
    184 H184        0.0646  -10.1022  -44.3925 H         1 UNK         0.3000 
    185 H185       -2.4773  -12.2469  -43.1812 H         1 UNK         0.0600 
    186 H186       -2.8488   -9.4572  -44.4018 H         1 UNK         0.0600 
    187 H187       -4.0120  -10.7818  -44.4722 H         1 UNK         0.0600 
    188 H188       -3.6168  -10.0401  -42.9299 H         1 UNK         0.0600 
    189 H189       -1.7511  -11.1786  -45.7743 H         1 UNK         0.3000 
    190 H190       -1.6471  -22.0596  -44.7893 H         1 UNK         0.3000 
    191 H191       -3.9305  -23.7131  -44.6309 H         1 UNK         0.0600 
    192 H192       -2.0434  -22.7848  -42.4037 H         1 UNK         0.0600 
    193 H193       -3.6649  -23.4245  -42.1718 H         1 UNK         0.0600 
    194 H194       -3.4382  -21.8999  -43.0160 H         1 UNK         0.0600 
    195 H195       -0.5087  -24.4432  -43.7785 H         1 UNK         0.3000 
    196 H196       -0.9034  -27.1048  -42.9007 H         1 UNK         0.0600 
    197 H197        1.5622  -27.3028  -43.2562 H         1 UNK         0.0600 
    198 H198        1.1528  -25.8022  -42.4392 H         1 UNK         0.0600 
    199 H199        1.5647  -25.7890  -44.1528 H         1 UNK         0.0600 
    200 H200       -0.5253  -25.7937  -46.1698 H         1 UNK         0.3000 
    201 H201       -0.3776  -28.3712  -47.5042 H         1 UNK         0.0600 
    202 H202        0.6731  -26.3056  -48.4349 H         1 UNK         0.0600 
    203 H203       -0.9159  -25.5621  -48.6028 H         1 UNK         0.0600 
    204 H204       -0.5019  -26.9825  -49.5504 H         1 UNK         0.0600 
    205 H205       -2.9088  -26.9706  -45.8834 H         1 UNK         0.3000 
    206 H206       -5.0729  -27.2512  -45.7237 H         1 UNK         0.0600 
    207 H207       -4.6510  -29.6874  -46.1279 H         1 UNK         0.0600 
    208 H208       -6.2340  -29.1727  -46.6870 H         1 UNK         0.0600 
    209 H209       -4.9483  -29.4486  -47.8501 H         1 UNK         0.0600 
    210 H210       -4.0873  -25.1981  -47.2342 H         1 UNK         0.3000 
    211 H211       -4.7908  -23.4090  -48.2453 H         1 UNK         0.0600 
    212 H212       -7.4618  -24.7121  -48.9785 H         1 UNK         0.0600 
    213 H213       -7.0879  -22.9975  -48.9370 H         1 UNK         0.0600 
    214 H214       -7.1429  -23.9091  -47.4412 H         1 UNK         0.0600 
    215 H215       -5.7313  -22.6626  -50.5743 H         1 UNK         0.3000 
    216 H216       -4.9433  -24.4027  -52.7586 H         1 UNK         0.0600 
    217 H217       -3.2481  -22.7464  -53.6100 H         1 UNK         0.0600 
    218 H218       -2.7279  -23.4146  -52.0711 H         1 UNK         0.0600 
    219 H219       -3.4193  -21.7963  -52.1385 H         1 UNK         0.0600 
    220 H220       -5.5732  -23.4237  -54.7924 H         1 UNK         0.3000 
    221 H221       -7.9740  -21.8091  -54.7092 H         1 UNK         0.0600 
    222 H222       -6.1913  -22.7127  -57.0491 H         1 UNK         0.0600 
    223 H223       -7.5837  -23.5970  -56.4250 H         1 UNK         0.0600 
    224 H224       -7.8092  -22.0370  -57.1964 H         1 UNK         0.0600 
    225 H225       -8.2235  -19.7256  -55.7334 H         1 UNK         0.3000 
    226 H226       -6.3234  -17.7707  -55.0252 H         1 UNK         0.0600 
    227 H227       -8.7566  -17.3392  -55.1855 H         1 UNK         0.0600 
    228 H228       -7.8799  -16.2229  -56.2186 H         1 UNK         0.0600 
    229 H229       -8.7169  -17.5971  -56.9308 H         1 UNK         0.0600 
    230 H230       -6.5865  -19.6275  -57.9630 H         1 UNK         0.3000 
    231 H231       -4.8464  -17.8970  -59.5739 H         1 UNK         0.0600 
    232 H232       -6.6838  -19.2062  -60.6297 H         1 UNK         0.0600 
    233 H233       -5.9615  -20.7123  -60.0618 H         1 UNK         0.0600 
    234 H234       -5.1224  -19.7190  -61.2471 H         1 UNK         0.0600 
    235 H235       -4.3460  -20.2318  -57.0918 H         1 UNK         0.3000 
    236 H236       -1.6930  -21.1088  -58.1532 H         1 UNK         0.0600 
    237 H237       -1.9428  -22.9613  -56.4959 H         1 UNK         0.0600 
    238 H238       -3.5530  -22.3864  -56.0801 H         1 UNK         0.0600 
    239 H239       -3.2185  -22.9741  -57.7026 H         1 UNK         0.0600 
    240 H240       -3.2679  -20.4378  -54.9841 H         1 UNK         0.3000 
    241 H241       -2.5123  -19.6692  -53.0422 H         1 UNK         0.0600 
    242 H242       -0.6925  -21.8134  -54.0467 H         1 UNK         0.3800 
    243 H243        0.7695  -21.5521  -53.1328 H         1 UNK         0.3800 
    244 H244       -1.2981  -17.3555  -53.2262 H         1 UNK         0.0800 
    245 H245       -1.3937  -17.5665  -54.9442 H         1 UNK         0.0800 
    246 H246       -4.7214  -15.9862  -52.3128 H         1 UNK         0.0800 
    247 H247       -3.1882  -15.2795  -52.7422 H         1 UNK         0.0800 
@<TRIPOS>BOND
     1    1    2 1    
     2    1  127 1    
     3    1  128 1    
     4    1  129 1    
     5    2    3 2    
     6    2    4 am   BACKBONE|DICT|INTERRES
     7    4    5 1    
     8    4  130 1    
     9    5    6 1    
    10    5   65 1    
    11    5  131 1    
    12    6    7 1    
    13    6  132 1    
    14    6  133 1    
    15    7    8 1    
    16    8    9 1    
    17    8  134 1    
    18    8  135 1    
    19    9   10 ar   
    20    9   14 ar   
    21   10   11 ar   
    22   10  136 1    
    23   11   12 ar   
    24   11  126 1    
    25   12   13 ar   
    26   12  137 1    
    27   13   14 ar   
    28   13   15 1    
    29   14  138 1    
    30   15   16 1    
    31   15  139 1    
    32   15  140 1    
    33   16   17 1    
    34   17   18 1    
    35   17  141 1    
    36   17  142 1    
    37   18   19 1    
    38   18   67 1    
    39   18  143 1    
    40   19   20 am   BACKBONE|DICT|INTERRES
    41   19  144 1    
    42   20   21 2    
    43   20   22 1    
    44   22   23 1    
    45   22   24 1    
    46   22  145 1    
    47   23  146 1    
    48   23  147 1    
    49   23  148 1    
    50   24   25 am   BACKBONE|DICT|INTERRES
    51   24  149 1    
    52   25   26 2    
    53   25   27 1    
    54   27   28 1    
    55   27   29 1    
    56   27  150 1    
    57   28  151 1    
    58   28  152 1    
    59   28  153 1    
    60   29   30 am   BACKBONE|DICT|INTERRES
    61   29  154 1    
    62   30   31 2    
    63   30   32 1    
    64   32   33 1    
    65   32   34 1    
    66   32  155 1    
    67   33  156 1    
    68   33  157 1    
    69   33  158 1    
    70   34   35 am   BACKBONE|DICT|INTERRES
    71   34  159 1    
    72   35   36 2    
    73   35   37 1    
    74   37   38 1    
    75   37   39 1    
    76   37  160 1    
    77   38  161 1    
    78   38  162 1    
    79   38  163 1    
    80   39   40 am   BACKBONE|DICT|INTERRES
    81   39  164 1    
    82   40   41 2    
    83   40   42 1    
    84   42   43 1    
    85   42   44 1    
    86   42  165 1    
    87   43  166 1    
    88   43  167 1    
    89   43  168 1    
    90   44   45 am   BACKBONE|DICT|INTERRES
    91   44  169 1    
    92   45   46 2    
    93   45   47 1    
    94   47   48 1    
    95   47   49 1    
    96   47  170 1    
    97   48  171 1    
    98   48  172 1    
    99   48  173 1    
   100   49   50 am   BACKBONE|DICT|INTERRES
   101   49  174 1    
   102   50   51 2    
   103   50   52 1    
   104   52   53 1    
   105   52   54 1    
   106   52  175 1    
   107   53  176 1    
   108   53  177 1    
   109   53  178 1    
   110   54   55 am   BACKBONE|DICT|INTERRES
   111   54  179 1    
   112   55   56 2    
   113   55   57 1    
   114   57   58 1    
   115   57   59 1    
   116   57  180 1    
   117   58  181 1    
   118   58  182 1    
   119   58  183 1    
   120   59   60 am   BACKBONE|DICT|INTERRES
   121   59  184 1    
   122   60   61 2    
   123   60   62 1    
   124   62   63 1    
   125   62   64 1    
   126   62  185 1    
   127   63  186 1    
   128   63  187 1    
   129   63  188 1    
   130   64   65 am   BACKBONE|DICT|INTERRES
   131   64  189 1    
   132   65   66 2    
   133   67   68 2    
   134   67   69 am   BACKBONE|DICT|INTERRES
   135   69   70 1    
   136   69  190 1    
   137   70   71 1    
   138   70   72 1    
   139   70  191 1    
   140   71  192 1    
   141   71  193 1    
   142   71  194 1    
   143   72   73 2    
   144   72   74 am   BACKBONE|DICT|INTERRES
   145   74   75 1    
   146   74  195 1    
   147   75   76 1    
   148   75   77 1    
   149   75  196 1    
   150   76  197 1    
   151   76  198 1    
   152   76  199 1    
   153   77   78 2    
   154   77   79 am   BACKBONE|DICT|INTERRES
   155   79   80 1    
   156   79  200 1    
   157   80   81 1    
   158   80   82 1    
   159   80  201 1    
   160   81  202 1    
   161   81  203 1    
   162   81  204 1    
   163   82   83 2    
   164   82   84 am   BACKBONE|DICT|INTERRES
   165   84   85 1    
   166   84  205 1    
   167   85   86 1    
   168   85   87 1    
   169   85  206 1    
   170   86  207 1    
   171   86  208 1    
   172   86  209 1    
   173   87   88 2    
   174   87   89 am   BACKBONE|DICT|INTERRES
   175   89   90 1    
   176   89  210 1    
   177   90   91 1    
   178   90   92 1    
   179   90  211 1    
   180   91  212 1    
   181   91  213 1    
   182   91  214 1    
   183   92   93 2    
   184   92   94 am   BACKBONE|DICT|INTERRES
   185   94   95 1    
   186   94  215 1    
   187   95   96 1    
   188   95   97 1    
   189   95  216 1    
   190   96  217 1    
   191   96  218 1    
   192   96  219 1    
   193   97   98 2    
   194   97   99 am   BACKBONE|DICT|INTERRES
   195   99  100 1    
   196   99  220 1    
   197  100  101 1    
   198  100  102 1    
   199  100  221 1    
   200  101  222 1    
   201  101  223 1    
   202  101  224 1    
   203  102  103 2    
   204  102  104 am   BACKBONE|DICT|INTERRES
   205  104  105 1    
   206  104  225 1    
   207  105  106 1    
   208  105  107 1    
   209  105  226 1    
   210  106  227 1    
   211  106  228 1    
   212  106  229 1    
   213  107  108 2    
   214  107  109 am   BACKBONE|DICT|INTERRES
   215  109  110 1    
   216  109  230 1    
   217  110  111 1    
   218  110  112 1    
   219  110  231 1    
   220  111  232 1    
   221  111  233 1    
   222  111  234 1    
   223  112  113 2    
   224  112  114 am   BACKBONE|DICT|INTERRES
   225  114  115 1    
   226  114  235 1    
   227  115  116 1    
   228  115  117 1    
   229  115  236 1    
   230  116  237 1    
   231  116  238 1    
   232  116  239 1    
   233  117  118 2    
   234  117  119 am   BACKBONE|DICT|INTERRES
   235  119  120 1    
   236  119  240 1    
   237  120  121 1    
   238  120  124 1    
   239  120  241 1    
   240  121  122 am   BACKBONE|DICT|INTERRES
   241  121  123 2    
   242  122  242 1    
   243  122  243 1    
   244  124  125 1    
   245  124  244 1    
   246  124  245 1    
   247  125  126 1    
   248  126  246 1    
   249  126  247 1    
@<TRIPOS>SUBSTRUCTURE
     1 UNK         1 GROUP             0       ****    0 ROOT    
