@<TRIPOS>MOLECULE
3R540
247   249    1
SMALL
USER_CHARGES


@<TRIPOS>ATOM
      1 CA          5.4384  -12.2853  -49.9081 C.3       0 UNK        -0.1800 
      2 C           6.0953  -13.0162  -48.7376 C.2       0 UNK         0.5000 
      3 O           7.3187  -12.9835  -48.6271 O.2       0 UNK        -0.5000 
      4 N           5.3542  -13.6807  -47.8355 N.am      1 UNK        -0.5000 
      5 CA          3.8910  -13.8482  -47.7643 C.3       1 UNK         0.1400 
      6 C6          3.2748  -14.4606  -49.0571 C.3       23 UNK        -0.0398 
      7 S7          2.0897  -15.8058  -48.7268 S.3       23 UNK        -0.2404 
      8 C8          0.5124  -15.0986  -49.3054 C.3       23 UNK        -0.0205 
      9 C9         -0.4657  -16.1818  -49.7454 C.ar      23 UNK        -0.0193 
     10 C10        -0.1728  -16.9559  -50.8712 C.ar      23 UNK        -0.1150 
     11 C11        -1.0731  -17.9203  -51.3278 C.ar      23 UNK        -0.0193 
     12 C12        -2.2781  -18.1152  -50.6473 C.ar      23 UNK        -0.1150 
     13 C13        -2.5948  -17.3440  -49.5245 C.ar      23 UNK        -0.0193 
     14 C14        -1.6789  -16.3809  -49.0756 C.ar      23 UNK        -0.1150 
     15 C15        -3.9699  -17.4892  -48.8766 C.3       23 UNK        -0.0205 
     16 S16        -3.9283  -17.5777  -47.0578 S.3       23 UNK        -0.2404 
     17 C17        -4.1078  -19.3523  -46.6595 C.3       23 UNK        -0.0398 
     18 CA         -3.2077  -20.3567  -47.4244 C.3       11 UNK         0.1400 
     19 N          -1.7761  -20.0917  -47.2607 N.am      11 UNK        -0.5000 
     20 C          -0.8049  -20.7769  -47.8802 C.2       10 UNK         0.5000 
     21 O          -1.0174  -21.7061  -48.6583 O.2       10 UNK        -0.5000 
     22 CA          0.6479  -20.4236  -47.5178 C.3       10 UNK         0.1400 
     23 CB          1.1023  -19.1512  -48.2381 C.3       10 UNK        -0.1800 
     24 N           0.8541  -20.2867  -46.0757 N.am      10 UNK        -0.5000 
     25 C           0.7098  -21.2932  -45.2028 C.2       9 UNK         0.5000 
     26 O           0.4108  -22.4398  -45.5335 O.2       9 UNK        -0.5000 
     27 CA          0.8775  -20.9631  -43.7093 C.3       9 UNK         0.1400 
     28 CB          2.3617  -20.8332  -43.3365 C.3       9 UNK        -0.1800 
     29 N           0.1564  -19.7533  -43.3170 N.am      9 UNK        -0.5000 
     30 C          -1.1750  -19.6111  -43.3937 C.2       8 UNK         0.5000 
     31 O          -1.9418  -20.5068  -43.7474 O.2       8 UNK        -0.5000 
     32 CA         -1.7462  -18.2188  -43.0724 C.3       8 UNK         0.1400 
     33 CB         -1.8851  -18.0283  -41.5549 C.3       8 UNK        -0.1800 
     34 N          -0.9618  -17.1212  -43.6431 N.am      8 UNK        -0.5000 
     35 C          -0.6932  -16.9802  -44.9501 C.2       7 UNK         0.5000 
     36 O          -1.0532  -17.7783  -45.8100 O.2       7 UNK        -0.5000 
     37 CA          0.1849  -15.7917  -45.3644 C.3       7 UNK         0.1400 
     38 CB         -0.5653  -14.4593  -45.2220 C.3       7 UNK        -0.1800 
     39 N           1.4341  -15.7490  -44.6114 N.am      7 UNK        -0.5000 
     40 C           2.3591  -16.7196  -44.6088 C.2       6 UNK         0.5000 
     41 O           2.3004  -17.7370  -45.2995 O.2       6 UNK        -0.5000 
     42 CA          3.5197  -16.5451  -43.6168 C.3       6 UNK         0.1400 
     43 CB          4.5773  -15.5774  -44.1710 C.3       6 UNK        -0.1800 
     44 N           3.0511  -16.0768  -42.3113 N.am      6 UNK        -0.5000 
     45 C           2.2922  -16.8007  -41.4751 C.2       5 UNK         0.5000 
     46 O           1.9295  -17.9549  -41.7021 O.2       5 UNK        -0.5000 
     47 CA          1.8346  -16.1028  -40.1817 C.3       5 UNK         0.1400 
     48 CB          2.9426  -16.1472  -39.1189 C.3       5 UNK        -0.1800 
     49 N           1.4309  -14.7140  -40.4060 N.am      5 UNK        -0.5000 
     50 C           0.3451  -14.3476  -41.1011 C.2       4 UNK         0.5000 
     51 O          -0.4439  -15.1427  -41.6089 O.2       4 UNK        -0.5000 
     52 CA          0.1290  -12.8369  -41.3021 C.3       4 UNK         0.1400 
     53 CB         -0.5950  -12.2281  -40.0921 C.3       4 UNK        -0.1800 
     54 N           1.3679  -12.0951  -41.5542 N.am      4 UNK        -0.5000 
     55 C           2.1871  -12.3164  -42.5899 C.2       3 UNK         0.5000 
     56 O           2.0303  -13.2257  -43.4075 O.2       3 UNK        -0.5000 
     57 CA          3.4123  -11.3976  -42.7109 C.3       3 UNK         0.1400 
     58 CB          4.6369  -12.0482  -42.0492 C.3       3 UNK        -0.1800 
     59 N           3.7112  -11.1335  -44.1164 N.am      3 UNK        -0.5000 
     60 C           3.0053  -10.3055  -44.8988 C.2       2 UNK         0.5000 
     61 O           2.0897   -9.5907  -44.4888 O.2       2 UNK        -0.5000 
     62 CA          3.3858  -10.2682  -46.3891 C.3       2 UNK         0.1400 
     63 CB          4.4357   -9.1772  -46.6504 C.3       2 UNK        -0.1800 
     64 N           3.9066  -11.5514  -46.8631 N.am      2 UNK        -0.5000 
     65 C           3.1496  -12.5792  -47.2752 C.2       1 UNK         0.5000 
     66 O           1.9197  -12.5469  -47.2897 O.2       1 UNK        -0.5000 
     67 C          -3.5969  -21.7932  -47.0069 C.2       11 UNK         0.5000 
     68 O          -4.4725  -22.3811  -47.6419 O.2       11 UNK        -0.5000 
     69 N          -2.9729  -22.3112  -45.9400 N.am      12 UNK        -0.5000 
     70 CA         -3.2866  -23.6141  -45.3603 C.3       12 UNK         0.1400 
     71 CB         -2.9838  -23.5806  -43.8541 C.3       12 UNK        -0.1800 
     72 C          -2.5405  -24.7855  -46.0213 C.2       12 UNK         0.5000 
     73 O          -3.1478  -25.8428  -46.2000 O.2       12 UNK        -0.5000 
     74 N          -1.2407  -24.6147  -46.3042 N.am      13 UNK        -0.5000 
     75 CA         -0.3521  -25.7080  -46.7047 C.3       13 UNK         0.1400 
     76 CB          0.9234  -25.6688  -45.8468 C.3       13 UNK        -0.1800 
     77 C           0.0140  -25.6845  -48.1958 C.2       13 UNK         0.5000 
     78 O           0.0666  -26.7535  -48.8066 O.2       13 UNK        -0.5000 
     79 N           0.2966  -24.4996  -48.7569 N.am      14 UNK        -0.5000 
     80 CA          0.6945  -24.3584  -50.1616 C.3       14 UNK         0.1400 
     81 CB          1.5489  -23.0962  -50.3581 C.3       14 UNK        -0.1800 
     82 C          -0.5327  -24.3728  -51.0858 C.2       14 UNK         0.5000 
     83 O          -0.5436  -25.1041  -52.0769 O.2       14 UNK        -0.5000 
     84 N          -1.5601  -23.6023  -50.7159 N.am      15 UNK        -0.5000 
     85 CA         -2.9020  -23.6885  -51.2761 C.3       15 UNK         0.1400 
     86 CB         -3.5516  -22.2972  -51.2248 C.3       15 UNK        -0.1800 
     87 C          -3.7358  -24.6914  -50.4623 C.2       15 UNK         0.5000 
     88 O          -3.4929  -24.8728  -49.2691 O.2       15 UNK        -0.5000 
     89 N          -4.7411  -25.2931  -51.1059 N.am      16 UNK        -0.5000 
     90 CA         -5.7496  -26.1249  -50.4549 C.3       16 UNK         0.1400 
     91 CB         -6.2669  -27.1696  -51.4599 C.3       16 UNK        -0.1800 
     92 C          -6.8712  -25.2192  -49.9160 C.2       16 UNK         0.5000 
     93 O          -7.8802  -25.0265  -50.5967 O.2       16 UNK        -0.5000 
     94 N          -6.6391  -24.6396  -48.7289 N.am      17 UNK        -0.5000 
     95 CA         -7.5218  -23.7115  -48.0101 C.3       17 UNK         0.1400 
     96 CB         -8.8020  -24.4310  -47.5363 C.3       17 UNK        -0.1800 
     97 C          -7.8104  -22.4368  -48.8296 C.2       17 UNK         0.5000 
     98 O          -8.9693  -22.0978  -49.0760 O.2       17 UNK        -0.5000 
     99 N          -6.7276  -21.7844  -49.2749 N.am      18 UNK        -0.5000 
    100 CA        -6.6364  -20.5662  -50.0935 C.3       18 UNK         0.1400 
    101 CB        -7.2880  -19.3663  -49.3813 C.3       18 UNK        -0.1800 
    102 C         -7.1669  -20.6897  -51.5372 C.2       18 UNK         0.5000 
    103 O         -6.5688  -20.1075  -52.4421 O.2       18 UNK        -0.5000 
    104 N         -8.2564  -21.4414  -51.7360 N.am      19 UNK        -0.5000 
    105 CA        -9.0280  -21.5692  -52.9765 C.3       19 UNK         0.1400 
    106 CB       -10.2168  -22.5072  -52.7183 C.3       19 UNK        -0.1800 
    107 C         -8.2311  -22.0442  -54.2069 C.2       19 UNK         0.5000 
    108 O         -8.5775  -21.6749  -55.3295 O.2       19 UNK        -0.5000 
    109 N         -7.1751  -22.8361  -53.9796 N.am      20 UNK        -0.5000 
    110 CA        -6.2684  -23.3252  -55.0219 C.3       20 UNK         0.1400 
    111 CB        -5.5117  -24.5494  -54.4881 C.3       20 UNK        -0.1800 
    112 C         -5.2684  -22.2646  -55.5270 C.2       20 UNK         0.5000 
    113 O         -4.5851  -22.5205  -56.5200 O.2       20 UNK        -0.5000 
    114 N         -5.1558  -21.1245  -54.8236 N.am      21 UNK        -0.5000 
    115 CA        -4.2785  -19.9830  -55.1214 C.3       21 UNK         0.1400 
    116 CB        -4.7803  -19.2378  -56.3750 C.3       21 UNK        -0.1800 
    117 C         -2.7811  -20.3561  -55.2082 C.2       21 UNK         0.5000 
    118 O         -2.0303  -19.7364  -55.9631 O.2       21 UNK        -0.5000 
    119 N         -2.3863  -21.3732  -54.4302 N.am      22 UNK        -0.5000 
    120 CA        -1.0519  -21.9986  -54.4023 C.3       22 UNK         0.1400 
    121 C         -0.6711  -22.7571  -55.7130 C.2       22 UNK         0.5000 
    122 N         -1.6087  -23.0673  -56.6027 N.am      22 UNK        -0.7600 
    123 O          0.4891  -23.1027  -55.9192 O.2       22 UNK        -0.5000 
    124 C124        0.0719  -21.0415  -53.9090 C.3       23 UNK        -0.0398 
    125 S125       -0.2204  -20.3976  -52.2245 S.3       23 UNK        -0.2404 
    126 C126       -0.7699  -18.7060  -52.5919 C.3       23 UNK        -0.0205 
    127 H127        5.2526  -12.9773  -50.7291 H         1 UNK         0.0600 
    128 H128        6.0994  -11.5014  -50.2783 H         1 UNK         0.0600 
    129 H129        4.4994  -11.8090  -49.6335 H         1 UNK         0.0600 
    130 H130        5.8537  -14.1460  -47.0904 H         1 UNK         0.3000 
    131 H131        3.7538  -14.5693  -46.9574 H         1 UNK         0.0600 
    132 H132        2.8248  -13.6975  -49.6938 H         1 UNK         0.0800 
    133 H133        4.0559  -14.9165  -49.6664 H         1 UNK         0.0800 
    134 H134        0.6886  -14.4359  -50.1533 H         1 UNK         0.0800 
    135 H135        0.0865  -14.4809  -48.5131 H         1 UNK         0.0800 
    136 H136        0.7561  -16.7948  -51.4001 H         1 UNK         0.1150 
    137 H137       -2.9818  -18.8483  -51.0160 H         1 UNK         0.1150 
    138 H138       -1.9237  -15.7699  -48.2185 H         1 UNK         0.1150 
    139 H139       -4.5609  -16.6163  -49.1562 H         1 UNK         0.0800 
    140 H140       -4.5058  -18.3498  -49.2744 H         1 UNK         0.0800 
    141 H141       -5.1589  -19.6036  -46.8090 H         1 UNK         0.0800 
    142 H142       -3.9335  -19.4492  -45.5862 H         1 UNK         0.0800 
    143 H143       -3.4227  -20.2706  -48.4898 H         1 UNK         0.0600 
    144 H144       -1.5211  -19.3054  -46.6633 H         1 UNK         0.3000 
    145 H145        1.2825  -21.2427  -47.8613 H         1 UNK         0.0600 
    146 H146        2.1526  -18.9372  -48.0405 H         1 UNK         0.0600 
    147 H147        0.9847  -19.2503  -49.3178 H         1 UNK         0.0600 
    148 H148        0.5201  -18.2856  -47.9229 H         1 UNK         0.0600 
    149 H149        1.0966  -19.3616  -45.7346 H         1 UNK         0.3000 
    150 H150        0.4594  -21.7956  -43.1397 H         1 UNK         0.0600 
    151 H151        2.9146  -21.7309  -43.6159 H         1 UNK         0.0600 
    152 H152        2.4865  -20.6953  -42.2624 H         1 UNK         0.0600 
    153 H153        2.8320  -19.9872  -43.8381 H         1 UNK         0.0600 
    154 H154        0.7169  -18.9752  -42.9848 H         1 UNK         0.3000 
    155 H155       -2.7436  -18.1660  -43.5135 H         1 UNK         0.0600 
    156 H156       -0.9124  -18.0084  -41.0622 H         1 UNK         0.0600 
    157 H157       -2.4642  -18.8382  -41.1095 H         1 UNK         0.0600 
    158 H158       -2.3986  -17.0958  -41.3207 H         1 UNK         0.0600 
    159 H159       -0.6323  -16.4154  -42.9892 H         1 UNK         0.3000 
    160 H160        0.4357  -15.9252  -46.4159 H         1 UNK         0.0600 
    161 H161       -0.8305  -14.2516  -44.1857 H         1 UNK         0.0600 
    162 H162       -1.4878  -14.4691  -45.8037 H         1 UNK         0.0600 
    163 H163        0.0398  -13.6280  -45.5836 H         1 UNK         0.0600 
    164 H164        1.5907  -14.9221  -44.0399 H         1 UNK         0.3000 
    165 H165        3.9910  -17.5204  -43.4769 H         1 UNK         0.0600 
    166 H166        5.4169  -15.4743  -43.4835 H         1 UNK         0.0600 
    167 H167        4.1657  -14.5842  -44.3511 H         1 UNK         0.0600 
    168 H168        4.9767  -15.9433  -45.1176 H         1 UNK         0.0600 
    169 H169        3.2548  -15.1186  -42.0717 H         1 UNK         0.3000 
    170 H170        0.9715  -16.6499  -39.7963 H         1 UNK         0.0600 
    171 H171        3.2525  -17.1744  -38.9219 H         1 UNK         0.0600 
    172 H172        3.8273  -15.5917  -39.4326 H         1 UNK         0.0600 
    173 H173        2.5991  -15.7260  -38.1739 H         1 UNK         0.0600 
    174 H174        2.0265  -13.9938  -40.0253 H         1 UNK         0.3000 
    175 H175       -0.5114  -12.7127  -42.1777 H         1 UNK         0.0600 
    176 H176        0.0118  -12.2851  -39.1876 H         1 UNK         0.0600 
    177 H177       -0.8421  -11.1807  -40.2660 H         1 UNK         0.0600 
    178 H178       -1.5309  -12.7522  -39.8932 H         1 UNK         0.0600 
    179 H179        1.5746  -11.3380  -40.9186 H         1 UNK         0.3000 
    180 H180        3.2035  -10.4506  -42.2085 H         1 UNK         0.0600 
    181 H181        4.8957  -12.9977  -42.5184 H         1 UNK         0.0600 
    182 H182        4.4530  -12.2438  -40.9920 H         1 UNK         0.0600 
    183 H183        5.5089  -11.3969  -42.1103 H         1 UNK         0.0600 
    184 H184        4.4164  -11.7128  -44.5442 H         1 UNK         0.3000 
    185 H185        2.4874  -10.0146  -46.9563 H         1 UNK         0.0600 
    186 H186        4.0708   -8.2001  -46.3310 H         1 UNK         0.0600 
    187 H187        5.3645   -9.3726  -46.1129 H         1 UNK         0.0600 
    188 H188        4.6713   -9.1038  -47.7123 H         1 UNK         0.0600 
    189 H189        4.9105  -11.6572  -46.8832 H         1 UNK         0.3000 
    190 H190       -2.2972  -21.7425  -45.4418 H         1 UNK         0.3000 
    191 H191       -4.3569  -23.8008  -45.4742 H         1 UNK         0.0600 
    192 H192       -1.9314  -23.3684  -43.6603 H         1 UNK         0.0600 
    193 H193       -3.2193  -24.5366  -43.3847 H         1 UNK         0.0600 
    194 H194       -3.5765  -22.8166  -43.3507 H         1 UNK         0.0600 
    195 H195       -0.7955  -23.7234  -46.0975 H         1 UNK         0.3000 
    196 H196       -0.8317  -26.6694  -46.5091 H         1 UNK         0.0600 
    197 H197        1.5601  -26.5285  -46.0588 H         1 UNK         0.0600 
    198 H198        0.6855  -25.6945  -44.7833 H         1 UNK         0.0600 
    199 H199        1.5148  -24.7729  -46.0369 H         1 UNK         0.0600 
    200 H200        0.1583  -23.6499  -48.2272 H         1 UNK         0.3000 
    201 H201        1.3220  -25.2094  -50.4358 H         1 UNK         0.0600 
    202 H202        2.4299  -23.1121  -49.7166 H         1 UNK         0.0600 
    203 H203        0.9952  -22.1847  -50.1433 H         1 UNK         0.0600 
    204 H204        1.8973  -23.0236  -51.3890 H         1 UNK         0.0600 
    205 H205       -1.4578  -23.0273  -49.8819 H         1 UNK         0.3000 
    206 H206       -2.8508  -24.0187  -52.3150 H         1 UNK         0.0600 
    207 H207       -2.9382  -21.5479  -51.7219 H         1 UNK         0.0600 
    208 H208       -4.5277  -22.3011  -51.7098 H         1 UNK         0.0600 
    209 H209       -3.6919  -21.9660  -50.1969 H         1 UNK         0.0600 
    210 H210       -4.8917  -25.1029  -52.0842 H         1 UNK         0.3000 
    211 H211       -5.3071  -26.6660  -49.6153 H         1 UNK         0.0600 
    212 H212       -6.7389  -26.7081  -52.3271 H         1 UNK         0.0600 
    213 H213       -7.0081  -27.8197  -50.9937 H         1 UNK         0.0600 
    214 H214       -5.4572  -27.8054  -51.8183 H         1 UNK         0.0600 
    215 H215       -5.7302  -24.7877  -48.3063 H         1 UNK         0.3000 
    216 H216       -6.9790  -23.3911  -47.1197 H         1 UNK         0.0600 
    217 H217       -9.4132  -23.7710  -46.9196 H         1 UNK         0.0600 
    218 H218       -8.5612  -25.3067  -46.9337 H         1 UNK         0.0600 
    219 H219       -9.4196  -24.7593  -48.3729 H         1 UNK         0.0600 
    220 H220       -5.8345  -22.1526  -48.9558 H         1 UNK         0.3000 
    221 H221       -5.5706  -20.3526  -50.1770 H         1 UNK         0.0600 
    222 H222       -8.3680  -19.4845  -49.2890 H         1 UNK         0.0600 
    223 H223       -6.8817  -19.2281  -48.3805 H         1 UNK         0.0600 
    224 H224       -7.1099  -18.4429  -49.9339 H         1 UNK         0.0600 
    225 H225       -8.6692  -21.8618  -50.9070 H         1 UNK         0.3000 
    226 H226       -9.4204  -20.5784  -53.2129 H         1 UNK         0.0600 
    227 H227      -10.8571  -22.1229  -51.9239 H         1 UNK         0.0600 
    228 H228      -10.8353  -22.6148  -53.6104 H         1 UNK         0.0600 
    229 H229       -9.8827  -23.5037  -52.4254 H         1 UNK         0.0600 
    230 H230       -6.9818  -23.1045  -53.0263 H         1 UNK         0.3000 
    231 H231       -6.8646  -23.6439  -55.8796 H         1 UNK         0.0600 
    232 H232       -6.2013  -25.3223  -54.1508 H         1 UNK         0.0600 
    233 H233       -4.8575  -24.2806  -53.6615 H         1 UNK         0.0600 
    234 H234       -4.8879  -24.9930  -55.2656 H         1 UNK         0.0600 
    235 H235       -5.7610  -20.9921  -54.0185 H         1 UNK         0.3000 
    236 H236       -4.3695  -19.3017  -54.2741 H         1 UNK         0.0600 
    237 H237       -4.6672  -19.8417  -57.2759 H         1 UNK         0.0600 
    238 H238       -5.8333  -18.9727  -56.2791 H         1 UNK         0.0600 
    239 H239       -4.2268  -18.3110  -56.5295 H         1 UNK         0.0600 
    240 H240       -3.0871  -21.8145  -53.8571 H         1 UNK         0.3000 
    241 H241       -1.1291  -22.7927  -53.6607 H         1 UNK         0.0600 
    242 H242       -2.5765  -22.7935  -56.4723 H         1 UNK         0.3800 
    243 H243       -1.3456  -23.5662  -57.4375 H         1 UNK         0.3800 
    244 H244        0.2153  -20.2170  -54.6080 H         1 UNK         0.0800 
    245 H245        1.0265  -21.5686  -53.8736 H         1 UNK         0.0800 
    246 H246       -1.6648  -18.7340  -53.2110 H         1 UNK         0.0800 
    247 H247       -0.0043  -18.1990  -53.1811 H         1 UNK         0.0800 
@<TRIPOS>BOND
     1    1    2 1    
     2    1  127 1    
     3    1  128 1    
     4    1  129 1    
     5    2    3 2    
     6    2    4 am   BACKBONE|DICT|INTERRES
     7    4    5 1    
     8    4  130 1    
     9    5    6 1    
    10    5   65 1    
    11    5  131 1    
    12    6    7 1    
    13    6  132 1    
    14    6  133 1    
    15    7    8 1    
    16    8    9 1    
    17    8  134 1    
    18    8  135 1    
    19    9   10 ar   
    20    9   14 ar   
    21   10   11 ar   
    22   10  136 1    
    23   11   12 ar   
    24   11  126 1    
    25   12   13 ar   
    26   12  137 1    
    27   13   14 ar   
    28   13   15 1    
    29   14  138 1    
    30   15   16 1    
    31   15  139 1    
    32   15  140 1    
    33   16   17 1    
    34   17   18 1    
    35   17  141 1    
    36   17  142 1    
    37   18   19 1    
    38   18   67 1    
    39   18  143 1    
    40   19   20 am   BACKBONE|DICT|INTERRES
    41   19  144 1    
    42   20   21 2    
    43   20   22 1    
    44   22   23 1    
    45   22   24 1    
    46   22  145 1    
    47   23  146 1    
    48   23  147 1    
    49   23  148 1    
    50   24   25 am   BACKBONE|DICT|INTERRES
    51   24  149 1    
    52   25   26 2    
    53   25   27 1    
    54   27   28 1    
    55   27   29 1    
    56   27  150 1    
    57   28  151 1    
    58   28  152 1    
    59   28  153 1    
    60   29   30 am   BACKBONE|DICT|INTERRES
    61   29  154 1    
    62   30   31 2    
    63   30   32 1    
    64   32   33 1    
    65   32   34 1    
    66   32  155 1    
    67   33  156 1    
    68   33  157 1    
    69   33  158 1    
    70   34   35 am   BACKBONE|DICT|INTERRES
    71   34  159 1    
    72   35   36 2    
    73   35   37 1    
    74   37   38 1    
    75   37   39 1    
    76   37  160 1    
    77   38  161 1    
    78   38  162 1    
    79   38  163 1    
    80   39   40 am   BACKBONE|DICT|INTERRES
    81   39  164 1    
    82   40   41 2    
    83   40   42 1    
    84   42   43 1    
    85   42   44 1    
    86   42  165 1    
    87   43  166 1    
    88   43  167 1    
    89   43  168 1    
    90   44   45 am   BACKBONE|DICT|INTERRES
    91   44  169 1    
    92   45   46 2    
    93   45   47 1    
    94   47   48 1    
    95   47   49 1    
    96   47  170 1    
    97   48  171 1    
    98   48  172 1    
    99   48  173 1    
   100   49   50 am   BACKBONE|DICT|INTERRES
   101   49  174 1    
   102   50   51 2    
   103   50   52 1    
   104   52   53 1    
   105   52   54 1    
   106   52  175 1    
   107   53  176 1    
   108   53  177 1    
   109   53  178 1    
   110   54   55 am   BACKBONE|DICT|INTERRES
   111   54  179 1    
   112   55   56 2    
   113   55   57 1    
   114   57   58 1    
   115   57   59 1    
   116   57  180 1    
   117   58  181 1    
   118   58  182 1    
   119   58  183 1    
   120   59   60 am   BACKBONE|DICT|INTERRES
   121   59  184 1    
   122   60   61 2    
   123   60   62 1    
   124   62   63 1    
   125   62   64 1    
   126   62  185 1    
   127   63  186 1    
   128   63  187 1    
   129   63  188 1    
   130   64   65 am   BACKBONE|DICT|INTERRES
   131   64  189 1    
   132   65   66 2    
   133   67   68 2    
   134   67   69 am   BACKBONE|DICT|INTERRES
   135   69   70 1    
   136   69  190 1    
   137   70   71 1    
   138   70   72 1    
   139   70  191 1    
   140   71  192 1    
   141   71  193 1    
   142   71  194 1    
   143   72   73 2    
   144   72   74 am   BACKBONE|DICT|INTERRES
   145   74   75 1    
   146   74  195 1    
   147   75   76 1    
   148   75   77 1    
   149   75  196 1    
   150   76  197 1    
   151   76  198 1    
   152   76  199 1    
   153   77   78 2    
   154   77   79 am   BACKBONE|DICT|INTERRES
   155   79   80 1    
   156   79  200 1    
   157   80   81 1    
   158   80   82 1    
   159   80  201 1    
   160   81  202 1    
   161   81  203 1    
   162   81  204 1    
   163   82   83 2    
   164   82   84 am   BACKBONE|DICT|INTERRES
   165   84   85 1    
   166   84  205 1    
   167   85   86 1    
   168   85   87 1    
   169   85  206 1    
   170   86  207 1    
   171   86  208 1    
   172   86  209 1    
   173   87   88 2    
   174   87   89 am   BACKBONE|DICT|INTERRES
   175   89   90 1    
   176   89  210 1    
   177   90   91 1    
   178   90   92 1    
   179   90  211 1    
   180   91  212 1    
   181   91  213 1    
   182   91  214 1    
   183   92   93 2    
   184   92   94 am   BACKBONE|DICT|INTERRES
   185   94   95 1    
   186   94  215 1    
   187   95   96 1    
   188   95   97 1    
   189   95  216 1    
   190   96  217 1    
   191   96  218 1    
   192   96  219 1    
   193   97   98 2    
   194   97   99 am   BACKBONE|DICT|INTERRES
   195   99  100 1    
   196   99  220 1    
   197  100  101 1    
   198  100  102 1    
   199  100  221 1    
   200  101  222 1    
   201  101  223 1    
   202  101  224 1    
   203  102  103 2    
   204  102  104 am   BACKBONE|DICT|INTERRES
   205  104  105 1    
   206  104  225 1    
   207  105  106 1    
   208  105  107 1    
   209  105  226 1    
   210  106  227 1    
   211  106  228 1    
   212  106  229 1    
   213  107  108 2    
   214  107  109 am   BACKBONE|DICT|INTERRES
   215  109  110 1    
   216  109  230 1    
   217  110  111 1    
   218  110  112 1    
   219  110  231 1    
   220  111  232 1    
   221  111  233 1    
   222  111  234 1    
   223  112  113 2    
   224  112  114 am   BACKBONE|DICT|INTERRES
   225  114  115 1    
   226  114  235 1    
   227  115  116 1    
   228  115  117 1    
   229  115  236 1    
   230  116  237 1    
   231  116  238 1    
   232  116  239 1    
   233  117  118 2    
   234  117  119 am   BACKBONE|DICT|INTERRES
   235  119  120 1    
   236  119  240 1    
   237  120  121 1    
   238  120  124 1    
   239  120  241 1    
   240  121  122 am   BACKBONE|DICT|INTERRES
   241  121  123 2    
   242  122  242 1    
   243  122  243 1    
   244  124  125 1    
   245  124  244 1    
   246  124  245 1    
   247  125  126 1    
   248  126  246 1    
   249  126  247 1    
@<TRIPOS>SUBSTRUCTURE
     1 UNK         1 GROUP             0       ****    0 ROOT    
