@<TRIPOS>MOLECULE
3R540
247   249    1
SMALL
USER_CHARGES


@<TRIPOS>ATOM
      1 CA          6.6254  -14.0631  -50.3292 C.3       0 UNK        -0.1800 
      2 C           5.4154  -13.6928  -49.4832 C.2       0 UNK         0.5000 
      3 O           4.8896  -12.5905  -49.6321 O.2       0 UNK        -0.5000 
      4 N           4.9909  -14.6141  -48.6034 N.am      1 UNK        -0.5000 
      5 CA          3.8410  -14.5425  -47.6841 C.3       1 UNK         0.1400 
      6 C6          2.4872  -15.0116  -48.2978 C.3       23 UNK        -0.0398 
      7 S7          1.8912  -14.1189  -49.7768 S.3       23 UNK        -0.2404 
      8 C8          2.4730  -15.1877  -51.1357 C.3       23 UNK        -0.0205 
      9 C9          1.6448  -16.4564  -51.2913 C.ar      23 UNK        -0.0193 
     10 C10         0.4771  -16.4457  -52.0596 C.ar      23 UNK        -0.1150 
     11 C11        -0.2610  -17.6184  -52.2503 C.ar      23 UNK        -0.0193 
     12 C12         0.1617  -18.8043  -51.6388 C.ar      23 UNK        -0.1150 
     13 C13         1.3392  -18.8326  -50.8837 C.ar      23 UNK        -0.0193 
     14 C14         2.0752  -17.6561  -50.7180 C.ar      23 UNK        -0.1150 
     15 C15         1.8633  -20.1345  -50.2927 C.3       23 UNK        -0.0205 
     16 S16         1.6046  -20.2227  -48.4926 S.3       23 UNK        -0.2404 
     17 C17        -0.1021  -20.8518  -48.3863 C.3       23 UNK        -0.0398 
     18 CA         -0.1908  -22.1287  -47.5161 C.3       11 UNK         0.1400 
     19 N          -0.0337  -21.8335  -46.0878 N.am      11 UNK        -0.5000 
     20 C           0.0574  -22.7482  -45.1131 C.2       10 UNK         0.5000 
     21 O           0.0351  -23.9616  -45.3125 O.2       10 UNK        -0.5000 
     22 CA          0.1290  -22.2246  -43.6673 C.3       10 UNK         0.1400 
     23 CB          1.5279  -21.6824  -43.3379 C.3       10 UNK        -0.1800 
     24 N          -0.8813  -21.2019  -43.3951 N.am      10 UNK        -0.5000 
     25 C          -2.2032  -21.4280  -43.4078 C.2       9 UNK         0.5000 
     26 O          -2.7062  -22.5330  -43.6130 O.2       9 UNK        -0.5000 
     27 CA         -3.1200  -20.2075  -43.2039 C.3       9 UNK         0.1400 
     28 CB         -3.2318  -19.8532  -41.7136 C.3       9 UNK        -0.1800 
     29 N          -2.6814  -19.0329  -43.9598 N.am      9 UNK        -0.5000 
     30 C          -2.5785  -18.9908  -45.2960 C.2       8 UNK         0.5000 
     31 O          -2.8834  -19.9272  -46.0303 O.2       8 UNK        -0.5000 
     32 CA         -1.9670  -17.7233  -45.9171 C.3       8 UNK         0.1400 
     33 CB         -3.0042  -16.5954  -46.0024 C.3       8 UNK        -0.1800 
     34 N          -0.7830  -17.2617  -45.1937 N.am      8 UNK        -0.5000 
     35 C           0.3320  -17.9857  -45.0232 C.2       7 UNK         0.5000 
     36 O           0.4936  -19.1118  -45.4878 O.2       7 UNK        -0.5000 
     37 CA          1.4292  -17.3740  -44.1403 C.3       7 UNK         0.1400 
     38 CB          2.2746  -16.3691  -44.9339 C.3       7 UNK        -0.1800 
     39 N           0.8683  -16.7412  -42.9477 N.am      7 UNK        -0.5000 
     40 C           0.3455  -17.4247  -41.9195 C.2       6 UNK         0.5000 
     41 O           0.3450  -18.6542  -41.8453 O.2       6 UNK        -0.5000 
     42 CA         -0.3278  -16.5958  -40.8109 C.3       6 UNK         0.1400 
     43 CB          0.7056  -16.1070  -39.7869 C.3       6 UNK        -0.1800 
     44 N          -1.0690  -15.4505  -41.3415 N.am      6 UNK        -0.5000 
     45 C          -2.2040  -15.5604  -42.0466 C.2       5 UNK         0.5000 
     46 O          -2.7437  -16.6355  -42.3049 O.2       5 UNK        -0.5000 
     47 CA         -2.8224  -14.2593  -42.5912 C.3       5 UNK         0.1400 
     48 CB         -3.7678  -13.6382  -41.5525 C.3       5 UNK        -0.1800 
     49 N          -1.8376  -13.2583  -43.0059 N.am      5 UNK        -0.5000 
     50 C          -0.8834  -13.4414  -43.9285 C.2       4 UNK         0.5000 
     51 O          -0.7007  -14.5069  -44.5171 O.2       4 UNK        -0.5000 
     52 CA          0.0416  -12.2517  -44.2423 C.3       4 UNK         0.1400 
     53 CB         -0.4359  -10.9022  -43.6600 C.3       4 UNK        -0.1800 
     54 N           1.4235  -12.5202  -43.8421 N.am      4 UNK        -0.5000 
     55 C           1.8820  -12.7945  -42.6098 C.2       3 UNK         0.5000 
     56 O           1.1495  -12.9493  -41.6311 O.2       3 UNK        -0.5000 
     57 CA          3.4120  -12.9211  -42.4264 C.3       3 UNK         0.1400 
     58 CB          3.7928  -14.2732  -41.8019 C.3       3 UNK        -0.1800 
     59 N           4.1669  -12.7343  -43.6696 N.am      3 UNK        -0.5000 
     60 C           4.4465  -11.5456  -44.2243 C.2       2 UNK         0.5000 
     61 O           4.1562  -10.4675  -43.7050 O.2       2 UNK        -0.5000 
     62 CA          5.1392  -11.5563  -45.6023 C.3       2 UNK         0.1400 
     63 CB          6.6468  -11.3045  -45.4471 C.3       2 UNK        -0.1800 
     64 N           4.9430  -12.7868  -46.3765 N.am      2 UNK        -0.5000 
     65 C           3.7693  -13.2515  -46.8323 C.2       1 UNK         0.5000 
     66 O           2.6861  -12.7257  -46.5709 O.2       1 UNK        -0.5000 
     67 C          -1.4926  -22.8994  -47.8112 C.2       11 UNK         0.5000 
     68 O          -1.4637  -23.8541  -48.5893 O.2       11 UNK        -0.5000 
     69 N          -2.6029  -22.4946  -47.1799 N.am      12 UNK        -0.5000 
     70 CA         -3.9059  -23.1504  -47.2860 C.3       12 UNK         0.1400 
     71 CB         -4.9794  -22.2836  -46.6117 C.3       12 UNK        -0.1800 
     72 C          -3.9088  -24.5756  -46.7054 C.2       12 UNK         0.5000 
     73 O          -4.5422  -25.4585  -47.2824 O.2       12 UNK        -0.5000 
     74 N          -3.1906  -24.7797  -45.5943 N.am      13 UNK        -0.5000 
     75 CA         -3.0328  -26.0820  -44.9522 C.3       13 UNK         0.1400 
     76 CB         -2.5338  -25.8855  -43.5119 C.3       13 UNK        -0.1800 
     77 C          -2.0925  -27.0176  -45.7333 C.2       13 UNK         0.5000 
     78 O          -2.4380  -28.1799  -45.9498 O.2       13 UNK        -0.5000 
     79 N          -0.9132  -26.5082  -46.1131 N.am      14 UNK        -0.5000 
     80 CA          0.1673  -27.3006  -46.6972 C.3       14 UNK         0.1400 
     81 CB          1.5086  -26.5857  -46.4661 C.3       14 UNK        -0.1800 
     82 C          -0.0288  -27.5994  -48.1916 C.2       14 UNK         0.5000 
     83 O           0.1281  -28.7513  -48.5994 O.2       14 UNK        -0.5000 
     84 N          -0.3229  -26.5602  -48.9828 N.am      15 UNK        -0.5000 
     85 CA         -0.3205  -26.6220  -50.4471 C.3       15 UNK         0.1400 
     86 CB          0.5964  -25.5050  -50.9757 C.3       15 UNK        -0.1800 
     87 C          -1.7218  -26.4778  -51.0603 C.2       15 UNK         0.5000 
     88 O          -1.9126  -26.8784  -52.2082 O.2       15 UNK        -0.5000 
     89 N          -2.6518  -25.8624  -50.3148 N.am      16 UNK        -0.5000 
     90 CA         -3.9878  -25.4146  -50.7350 C.3       16 UNK         0.1400 
     91 CB         -4.8578  -26.5807  -51.2454 C.3       16 UNK        -0.1800 
     92 C          -3.9561  -24.2257  -51.7201 C.2       16 UNK         0.5000 
     93 O          -5.0030  -23.8342  -52.2363 O.2       16 UNK        -0.5000 
     94 N          -2.7732  -23.6315  -51.9312 N.am      17 UNK        -0.5000 
     95 CA         -2.5405  -22.5194  -52.8516 C.3       17 UNK         0.1400 
     96 CB         -1.0303  -22.2681  -52.9695 C.3       17 UNK        -0.1800 
     97 C          -3.2830  -21.2428  -52.4297 C.2       17 UNK         0.5000 
     98 O          -3.9164  -20.6025  -53.2655 O.2       17 UNK        -0.5000 
     99 N          -3.2419  -20.9284  -51.1284 N.am      18 UNK        -0.5000 
    100 CA        -3.9578  -19.7933  -50.5417 C.3       18 UNK         0.1400 
    101 CB        -3.2557  -19.3595  -49.2527 C.3       18 UNK        -0.1800 
    102 C         -5.4506  -20.0797  -50.2943 C.2       18 UNK         0.5000 
    103 O         -6.2249  -19.1305  -50.1836 O.2       18 UNK        -0.5000 
    104 N         -5.8433  -21.3628  -50.2607 N.am      19 UNK        -0.5000 
    105 CA        -7.2477  -21.7842  -50.2323 C.3       19 UNK         0.1400 
    106 CB        -7.3541  -23.2475  -49.7736 C.3       19 UNK        -0.1800 
    107 C         -7.9130  -21.5775  -51.6067 C.2       19 UNK         0.5000 
    108 O         -9.0494  -21.1088  -51.6722 O.2       19 UNK        -0.5000 
    109 N         -7.1635  -21.8731  -52.6792 N.am      20 UNK        -0.5000 
    110 CA        -7.5096  -21.5475  -54.0655 C.3       20 UNK         0.1400 
    111 CB        -6.6268  -22.3897  -55.0000 C.3       20 UNK        -0.1800 
    112 C         -7.3577  -20.0450  -54.3927 C.2       20 UNK         0.5000 
    113 O         -7.9090  -19.5888  -55.3944 O.2       20 UNK        -0.5000 
    114 N         -6.6139  -19.3197  -53.5443 N.am      21 UNK        -0.5000 
    115 CA        -6.2452  -17.9027  -53.6278 C.3       21 UNK         0.1400 
    116 CB        -7.4930  -16.9957  -53.5934 C.3       21 UNK        -0.1800 
    117 C         -5.2915  -17.5917  -54.8012 C.2       21 UNK         0.5000 
    118 O         -5.3232  -16.4832  -55.3397 O.2       21 UNK        -0.5000 
    119 N         -4.4399  -18.5676  -55.1474 N.am      22 UNK        -0.5000 
    120 CA        -3.4501  -18.5414  -56.2365 C.3       22 UNK         0.1400 
    121 C         -4.0586  -18.3444  -57.6634 C.2       22 UNK         0.5000 
    122 N         -3.2337  -18.2207  -58.6962 N.am      22 UNK        -0.7600 
    123 O         -5.2699  -18.3622  -57.8703 O.2       22 UNK        -0.5000 
    124 C124       -2.2680  -17.5790  -55.9133 C.3       23 UNK        -0.0398 
    125 S125       -1.0570  -18.3393  -54.7783 S.3       23 UNK        -0.2404 
    126 C126       -1.4787  -17.6111  -53.1643 C.3       23 UNK        -0.0205 
    127 H127        7.4460  -13.3725  -50.1326 H         1 UNK         0.0600 
    128 H128        6.3736  -14.0028  -51.3887 H         1 UNK         0.0600 
    129 H129        6.9743  -15.0755  -50.1209 H         1 UNK         0.0600 
    130 H130        5.5082  -15.4807  -48.5512 H         1 UNK         0.3000 
    131 H131        4.0844  -15.2989  -46.9379 H         1 UNK         0.0600 
    132 H132        1.6947  -14.9568  -47.5503 H         1 UNK         0.0800 
    133 H133        2.5604  -16.0711  -48.5343 H         1 UNK         0.0800 
    134 H134        2.4354  -14.6164  -52.0642 H         1 UNK         0.0800 
    135 H135        3.5230  -15.4391  -50.9841 H         1 UNK         0.0800 
    136 H136        0.1588  -15.5269  -52.5319 H         1 UNK         0.1150 
    137 H137       -0.4052  -19.7100  -51.7898 H         1 UNK         0.1150 
    138 H138        2.9948  -17.6826  -50.1507 H         1 UNK         0.1150 
    139 H139        1.4166  -20.9996  -50.7845 H         1 UNK         0.0800 
    140 H140        2.9342  -20.2034  -50.4890 H         1 UNK         0.0800 
    141 H141       -0.4725  -21.0351  -49.3960 H         1 UNK         0.0800 
    142 H142       -0.7283  -20.0632  -47.9687 H         1 UNK         0.0800 
    143 H143        0.6276  -22.7941  -47.8001 H         1 UNK         0.0600 
    144 H144        0.0384  -20.8482  -45.8390 H         1 UNK         0.3000 
    145 H145       -0.0669  -23.0681  -43.0019 H         1 UNK         0.0600 
    146 H146        1.5909  -21.3625  -42.2976 H         1 UNK         0.0600 
    147 H147        2.2877  -22.4500  -43.4896 H         1 UNK         0.0600 
    148 H148        1.7939  -20.8313  -43.9641 H         1 UNK         0.0600 
    149 H149       -0.5459  -20.2639  -43.2144 H         1 UNK         0.3000 
    150 H150       -4.1146  -20.4788  -43.5634 H         1 UNK         0.0600 
    151 H151       -3.5566  -20.7152  -41.1295 H         1 UNK         0.0600 
    152 H152       -3.9603  -19.0586  -41.5521 H         1 UNK         0.0600 
    153 H153       -2.2773  -19.5191  -41.3060 H         1 UNK         0.0600 
    154 H154       -2.4595  -18.2011  -43.4203 H         1 UNK         0.3000 
    155 H155       -1.6523  -17.9689  -46.9332 H         1 UNK         0.0600 
    156 H156       -3.3757  -16.3162  -45.0172 H         1 UNK         0.0600 
    157 H157       -3.8627  -16.9018  -46.6013 H         1 UNK         0.0600 
    158 H158       -2.5824  -15.7044  -46.4679 H         1 UNK         0.0600 
    159 H159       -0.8144  -16.3166  -44.8176 H         1 UNK         0.3000 
    160 H160        2.0871  -18.1868  -43.8247 H         1 UNK         0.0600 
    161 H161        1.7209  -15.4582  -45.1609 H         1 UNK         0.0600 
    162 H162        2.5954  -16.8093  -45.8785 H         1 UNK         0.0600 
    163 H163        3.1762  -16.0921  -44.3908 H         1 UNK         0.0600 
    164 H164        0.7547  -15.7382  -42.9702 H         1 UNK         0.3000 
    165 H165       -1.0329  -17.2495  -40.2927 H         1 UNK         0.0600 
    166 H166        0.2221  -15.6033  -38.9497 H         1 UNK         0.0600 
    167 H167        1.2780  -16.9410  -39.3787 H         1 UNK         0.0600 
    168 H168        1.4123  -15.4088  -40.2333 H         1 UNK         0.0600 
    169 H169       -0.6641  -14.5333  -41.2034 H         1 UNK         0.3000 
    170 H170       -3.4123  -14.5191  -43.4715 H         1 UNK         0.0600 
    171 H171       -4.5288  -14.3545  -41.2393 H         1 UNK         0.0600 
    172 H172       -3.2301  -13.3186  -40.6590 H         1 UNK         0.0600 
    173 H173       -4.2882  -12.7715  -41.9602 H         1 UNK         0.0600 
    174 H174       -1.8931  -12.3581  -42.5527 H         1 UNK         0.3000 
    175 H175        0.0506  -12.1559  -45.3291 H         1 UNK         0.0600 
    176 H176       -0.4422  -10.8981  -42.5695 H         1 UNK         0.0600 
    177 H177        0.2153  -10.0906  -43.9852 H         1 UNK         0.0600 
    178 H178       -1.4426  -10.6590  -44.0022 H         1 UNK         0.0600 
    179 H179        2.0924  -12.4820  -44.6031 H         1 UNK         0.3000 
    180 H180        3.7116  -12.1404  -41.7243 H         1 UNK         0.0600 
    181 H181        3.3804  -15.1132  -42.3580 H         1 UNK         0.0600 
    182 H182        3.4187  -14.3431  -40.7805 H         1 UNK         0.0600 
    183 H183        4.8746  -14.3983  -41.7522 H         1 UNK         0.0600 
    184 H184        4.4505  -13.5689  -44.1606 H         1 UNK         0.3000 
    185 H185        4.7141  -10.7344  -46.1820 H         1 UNK         0.0600 
    186 H186        6.8354  -10.3777  -44.9035 H         1 UNK         0.0600 
    187 H187        7.1350  -12.1116  -44.8993 H         1 UNK         0.0600 
    188 H188        7.1341  -11.2135  -46.4182 H         1 UNK         0.0600 
    189 H189        5.7815  -13.2839  -46.6402 H         1 UNK         0.3000 
    190 H190       -2.5649  -21.6661  -46.5890 H         1 UNK         0.3000 
    191 H191       -4.1547  -23.2231  -48.3455 H         1 UNK         0.0600 
    192 H192       -5.0736  -21.3170  -47.1067 H         1 UNK         0.0600 
    193 H193       -5.9572  -22.7644  -46.6499 H         1 UNK         0.0600 
    194 H194       -4.7459  -22.1008  -45.5624 H         1 UNK         0.0600 
    195 H195       -2.7354  -23.9908  -45.1484 H         1 UNK         0.3000 
    196 H196       -4.0128  -26.5614  -44.9015 H         1 UNK         0.0600 
    197 H197       -2.4084  -26.8438  -43.0065 H         1 UNK         0.0600 
    198 H198       -3.2434  -25.2997  -42.9273 H         1 UNK         0.0600 
    199 H199       -1.5736  -25.3692  -43.4827 H         1 UNK         0.0600 
    200 H200       -0.6887  -25.5446  -45.8713 H         1 UNK         0.3000 
    201 H201        0.2135  -28.2575  -46.1723 H         1 UNK         0.0600 
    202 H202        1.6944  -26.4321  -45.4029 H         1 UNK         0.0600 
    203 H203        1.5372  -25.6103  -46.9536 H         1 UNK         0.0600 
    204 H204        2.3385  -27.1739  -46.8599 H         1 UNK         0.0600 
    205 H205       -0.4802  -25.6483  -48.5686 H         1 UNK         0.3000 
    206 H206        0.0831  -27.5752  -50.7951 H         1 UNK         0.0600 
    207 H207        1.6177  -25.6350  -50.6174 H         1 UNK         0.0600 
    208 H208        0.6338  -25.5087  -52.0660 H         1 UNK         0.0600 
    209 H209        0.2574  -24.5171  -50.6617 H         1 UNK         0.0600 
    210 H210       -2.3582  -25.5249  -49.4054 H         1 UNK         0.3000 
    211 H211       -4.4711  -25.0320  -49.8385 H         1 UNK         0.0600 
    212 H212       -4.5160  -26.9572  -52.2094 H         1 UNK         0.0600 
    213 H213       -5.8939  -26.2650  -51.3731 H         1 UNK         0.0600 
    214 H214       -4.8580  -27.4104  -50.5385 H         1 UNK         0.0600 
    215 H215       -1.9682  -24.0041  -51.4513 H         1 UNK         0.3000 
    216 H216       -2.9172  -22.8091  -53.8348 H         1 UNK         0.0600 
    217 H217       -0.8231  -21.4169  -53.6200 H         1 UNK         0.0600 
    218 H218       -0.5224  -23.1325  -53.3977 H         1 UNK         0.0600 
    219 H219       -0.5766  -22.0647  -51.9994 H         1 UNK         0.0600 
    220 H220       -2.7211  -21.5223  -50.5021 H         1 UNK         0.3000 
    221 H221       -3.9142  -18.9512  -51.2346 H         1 UNK         0.0600 
    222 H222       -3.1840  -20.1871  -48.5512 H         1 UNK         0.0600 
    223 H223       -2.2504  -18.9933  -49.4601 H         1 UNK         0.0600 
    224 H224       -3.7968  -18.5529  -48.7563 H         1 UNK         0.0600 
    225 H225       -5.1550  -22.0829  -50.4115 H         1 UNK         0.3000 
    226 H226       -7.7787  -21.1673  -49.5038 H         1 UNK         0.0600 
    227 H227       -6.8596  -23.4024  -48.8155 H         1 UNK         0.0600 
    228 H228       -8.3987  -23.5349  -49.6484 H         1 UNK         0.0600 
    229 H229       -6.9159  -23.9382  -50.4925 H         1 UNK         0.0600 
    230 H230       -6.2750  -22.3443  -52.5383 H         1 UNK         0.3000 
    231 H231       -8.5526  -21.8208  -54.2373 H         1 UNK         0.0600 
    232 H232       -6.7647  -23.4557  -54.8178 H         1 UNK         0.0600 
    233 H233       -5.5685  -22.1627  -54.8660 H         1 UNK         0.0600 
    234 H234       -6.8731  -22.2030  -56.0460 H         1 UNK         0.0600 
    235 H235       -6.1821  -19.8297  -52.7881 H         1 UNK         0.3000 
    236 H236       -5.6731  -17.6939  -52.7230 H         1 UNK         0.0600 
    237 H237       -7.2111  -15.9481  -53.4827 H         1 UNK         0.0600 
    238 H238       -8.0816  -17.0790  -54.5072 H         1 UNK         0.0600 
    239 H239       -8.1389  -17.2472  -52.7521 H         1 UNK         0.0600 
    240 H240       -4.4468  -19.4198  -54.5928 H         1 UNK         0.3000 
    241 H241       -3.0573  -19.5584  -56.2714 H         1 UNK         0.0600 
    242 H242       -3.6255  -18.1168  -59.6196 H         1 UNK         0.3800 
    243 H243       -2.2321  -18.2510  -58.5880 H         1 UNK         0.3800 
    244 H244       -1.7022  -17.3173  -56.8072 H         1 UNK         0.0800 
    245 H245       -2.6234  -16.6280  -55.5159 H         1 UNK         0.0800 
    246 H246       -1.8448  -16.5920  -53.2956 H         1 UNK         0.0800 
    247 H247       -2.2922  -18.1799  -52.7157 H         1 UNK         0.0800 
@<TRIPOS>BOND
     1    1    2 1    
     2    1  127 1    
     3    1  128 1    
     4    1  129 1    
     5    2    3 2    
     6    2    4 am   BACKBONE|DICT|INTERRES
     7    4    5 1    
     8    4  130 1    
     9    5    6 1    
    10    5   65 1    
    11    5  131 1    
    12    6    7 1    
    13    6  132 1    
    14    6  133 1    
    15    7    8 1    
    16    8    9 1    
    17    8  134 1    
    18    8  135 1    
    19    9   10 ar   
    20    9   14 ar   
    21   10   11 ar   
    22   10  136 1    
    23   11   12 ar   
    24   11  126 1    
    25   12   13 ar   
    26   12  137 1    
    27   13   14 ar   
    28   13   15 1    
    29   14  138 1    
    30   15   16 1    
    31   15  139 1    
    32   15  140 1    
    33   16   17 1    
    34   17   18 1    
    35   17  141 1    
    36   17  142 1    
    37   18   19 1    
    38   18   67 1    
    39   18  143 1    
    40   19   20 am   BACKBONE|DICT|INTERRES
    41   19  144 1    
    42   20   21 2    
    43   20   22 1    
    44   22   23 1    
    45   22   24 1    
    46   22  145 1    
    47   23  146 1    
    48   23  147 1    
    49   23  148 1    
    50   24   25 am   BACKBONE|DICT|INTERRES
    51   24  149 1    
    52   25   26 2    
    53   25   27 1    
    54   27   28 1    
    55   27   29 1    
    56   27  150 1    
    57   28  151 1    
    58   28  152 1    
    59   28  153 1    
    60   29   30 am   BACKBONE|DICT|INTERRES
    61   29  154 1    
    62   30   31 2    
    63   30   32 1    
    64   32   33 1    
    65   32   34 1    
    66   32  155 1    
    67   33  156 1    
    68   33  157 1    
    69   33  158 1    
    70   34   35 am   BACKBONE|DICT|INTERRES
    71   34  159 1    
    72   35   36 2    
    73   35   37 1    
    74   37   38 1    
    75   37   39 1    
    76   37  160 1    
    77   38  161 1    
    78   38  162 1    
    79   38  163 1    
    80   39   40 am   BACKBONE|DICT|INTERRES
    81   39  164 1    
    82   40   41 2    
    83   40   42 1    
    84   42   43 1    
    85   42   44 1    
    86   42  165 1    
    87   43  166 1    
    88   43  167 1    
    89   43  168 1    
    90   44   45 am   BACKBONE|DICT|INTERRES
    91   44  169 1    
    92   45   46 2    
    93   45   47 1    
    94   47   48 1    
    95   47   49 1    
    96   47  170 1    
    97   48  171 1    
    98   48  172 1    
    99   48  173 1    
   100   49   50 am   BACKBONE|DICT|INTERRES
   101   49  174 1    
   102   50   51 2    
   103   50   52 1    
   104   52   53 1    
   105   52   54 1    
   106   52  175 1    
   107   53  176 1    
   108   53  177 1    
   109   53  178 1    
   110   54   55 am   BACKBONE|DICT|INTERRES
   111   54  179 1    
   112   55   56 2    
   113   55   57 1    
   114   57   58 1    
   115   57   59 1    
   116   57  180 1    
   117   58  181 1    
   118   58  182 1    
   119   58  183 1    
   120   59   60 am   BACKBONE|DICT|INTERRES
   121   59  184 1    
   122   60   61 2    
   123   60   62 1    
   124   62   63 1    
   125   62   64 1    
   126   62  185 1    
   127   63  186 1    
   128   63  187 1    
   129   63  188 1    
   130   64   65 am   BACKBONE|DICT|INTERRES
   131   64  189 1    
   132   65   66 2    
   133   67   68 2    
   134   67   69 am   BACKBONE|DICT|INTERRES
   135   69   70 1    
   136   69  190 1    
   137   70   71 1    
   138   70   72 1    
   139   70  191 1    
   140   71  192 1    
   141   71  193 1    
   142   71  194 1    
   143   72   73 2    
   144   72   74 am   BACKBONE|DICT|INTERRES
   145   74   75 1    
   146   74  195 1    
   147   75   76 1    
   148   75   77 1    
   149   75  196 1    
   150   76  197 1    
   151   76  198 1    
   152   76  199 1    
   153   77   78 2    
   154   77   79 am   BACKBONE|DICT|INTERRES
   155   79   80 1    
   156   79  200 1    
   157   80   81 1    
   158   80   82 1    
   159   80  201 1    
   160   81  202 1    
   161   81  203 1    
   162   81  204 1    
   163   82   83 2    
   164   82   84 am   BACKBONE|DICT|INTERRES
   165   84   85 1    
   166   84  205 1    
   167   85   86 1    
   168   85   87 1    
   169   85  206 1    
   170   86  207 1    
   171   86  208 1    
   172   86  209 1    
   173   87   88 2    
   174   87   89 am   BACKBONE|DICT|INTERRES
   175   89   90 1    
   176   89  210 1    
   177   90   91 1    
   178   90   92 1    
   179   90  211 1    
   180   91  212 1    
   181   91  213 1    
   182   91  214 1    
   183   92   93 2    
   184   92   94 am   BACKBONE|DICT|INTERRES
   185   94   95 1    
   186   94  215 1    
   187   95   96 1    
   188   95   97 1    
   189   95  216 1    
   190   96  217 1    
   191   96  218 1    
   192   96  219 1    
   193   97   98 2    
   194   97   99 am   BACKBONE|DICT|INTERRES
   195   99  100 1    
   196   99  220 1    
   197  100  101 1    
   198  100  102 1    
   199  100  221 1    
   200  101  222 1    
   201  101  223 1    
   202  101  224 1    
   203  102  103 2    
   204  102  104 am   BACKBONE|DICT|INTERRES
   205  104  105 1    
   206  104  225 1    
   207  105  106 1    
   208  105  107 1    
   209  105  226 1    
   210  106  227 1    
   211  106  228 1    
   212  106  229 1    
   213  107  108 2    
   214  107  109 am   BACKBONE|DICT|INTERRES
   215  109  110 1    
   216  109  230 1    
   217  110  111 1    
   218  110  112 1    
   219  110  231 1    
   220  111  232 1    
   221  111  233 1    
   222  111  234 1    
   223  112  113 2    
   224  112  114 am   BACKBONE|DICT|INTERRES
   225  114  115 1    
   226  114  235 1    
   227  115  116 1    
   228  115  117 1    
   229  115  236 1    
   230  116  237 1    
   231  116  238 1    
   232  116  239 1    
   233  117  118 2    
   234  117  119 am   BACKBONE|DICT|INTERRES
   235  119  120 1    
   236  119  240 1    
   237  120  121 1    
   238  120  124 1    
   239  120  241 1    
   240  121  122 am   BACKBONE|DICT|INTERRES
   241  121  123 2    
   242  122  242 1    
   243  122  243 1    
   244  124  125 1    
   245  124  244 1    
   246  124  245 1    
   247  125  126 1    
   248  126  246 1    
   249  126  247 1    
@<TRIPOS>SUBSTRUCTURE
     1 UNK         1 GROUP             0       ****    0 ROOT    
