@<TRIPOS>MOLECULE
3R540
247   249    1
SMALL
USER_CHARGES


@<TRIPOS>ATOM
      1 CA          6.5250  -16.8157  -44.0504 C.3       0 UNK        -0.1800 
      2 C           5.3156  -16.1815  -44.7205 C.2       0 UNK         0.5000 
      3 O           4.5176  -15.5298  -44.0491 O.2       0 UNK        -0.5000 
      4 N           5.1815  -16.3546  -46.0420 N.am      1 UNK        -0.5000 
      5 CA          4.0813  -15.8525  -46.8776 C.3       1 UNK         0.1400 
      6 C6          3.9183  -16.7219  -48.1605 C.3       23 UNK        -0.0398 
      7 S7          2.1756  -17.0737  -48.5602 S.3       23 UNK        -0.2404 
      8 C8          1.8539  -15.9080  -49.9156 C.3       23 UNK        -0.0205 
      9 C9          0.4285  -16.0515  -50.4270 C.ar      23 UNK        -0.0193 
     10 C10         0.1765  -16.5154  -51.7223 C.ar      23 UNK        -0.1150 
     11 C11        -1.1362  -16.6259  -52.1938 C.ar      23 UNK        -0.0193 
     12 C12        -2.2001  -16.2950  -51.3496 C.ar      23 UNK        -0.1150 
     13 C13        -1.9599  -15.8423  -50.0493 C.ar      23 UNK        -0.0193 
     14 C14        -0.6441  -15.7072  -49.6005 C.ar      23 UNK        -0.1150 
     15 C15        -3.1205  -15.4920  -49.1325 C.3       23 UNK        -0.0205 
     16 S16        -3.8259  -16.9723  -48.3434 S.3       23 UNK        -0.2404 
     17 C17        -2.4882  -17.4799  -47.2028 C.3       23 UNK        -0.0398 
     18 CA         -1.6695  -18.7133  -47.6664 C.3       11 UNK         0.1400 
     19 N          -0.5692  -19.0115  -46.7444 N.am      11 UNK        -0.5000 
     20 C           0.3758  -19.9455  -46.9322 C.2       10 UNK         0.5000 
     21 O           0.4680  -20.6289  -47.9498 O.2       10 UNK        -0.5000 
     22 CA          1.3382  -20.2202  -45.7604 C.3       10 UNK         0.1400 
     23 CB          2.4859  -19.2037  -45.7177 C.3       10 UNK        -0.1800 
     24 N           0.6545  -20.2422  -44.4690 N.am      10 UNK        -0.5000 
     25 C          -0.2736  -21.1436  -44.1204 C.2       9 UNK         0.5000 
     26 O          -0.6304  -22.0735  -44.8430 O.2       9 UNK        -0.5000 
     27 CA         -0.9452  -20.9465  -42.7521 C.3       9 UNK         0.1400 
     28 CB         -0.0707  -21.5134  -41.6235 C.3       9 UNK        -0.1800 
     29 N          -1.2358  -19.5385  -42.4877 N.am      9 UNK        -0.5000 
     30 C          -2.1703  -18.8251  -43.1308 C.2       8 UNK         0.5000 
     31 O          -2.9105  -19.2881  -44.0000 O.2       8 UNK        -0.5000 
     32 CA         -2.2505  -17.3298  -42.7706 C.3       8 UNK         0.1400 
     33 CB         -2.9811  -17.1254  -41.4351 C.3       8 UNK        -0.1800 
     34 N          -0.9288  -16.7023  -42.7047 N.am      8 UNK        -0.5000 
     35 C          -0.1193  -16.5532  -43.7623 C.2       7 UNK         0.5000 
     36 O          -0.4225  -16.8940  -44.9022 O.2       7 UNK        -0.5000 
     37 CA          1.2765  -15.9624  -43.5160 C.3       7 UNK         0.1400 
     38 CB          1.2477  -14.4424  -43.7076 C.3       7 UNK        -0.1800 
     39 N           1.8564  -16.2936  -42.2133 N.am      7 UNK        -0.5000 
     40 C           2.1001  -17.5406  -41.7792 C.2       6 UNK         0.5000 
     41 O           1.7744  -18.5494  -42.4060 O.2       6 UNK        -0.5000 
     42 CA          2.8294  -17.7132  -40.4313 C.3       6 UNK         0.1400 
     43 CB          4.2616  -18.2168  -40.6687 C.3       6 UNK        -0.1800 
     44 N           2.8948  -16.4941  -39.6267 N.am      6 UNK        -0.5000 
     45 C           1.8589  -15.8964  -39.0225 C.2       5 UNK         0.5000 
     46 O           0.7141  -16.3500  -39.0213 O.2       5 UNK        -0.5000 
     47 CA          2.1499  -14.5438  -38.3371 C.3       5 UNK         0.1400 
     48 CB          2.3423  -14.7381  -36.8255 C.3       5 UNK        -0.1800 
     49 N           3.3206  -13.8426  -38.8831 N.am      5 UNK        -0.5000 
     50 C           3.4213  -13.3957  -40.1426 C.2       4 UNK         0.5000 
     51 O           2.5301  -13.5352  -40.9810 O.2       4 UNK        -0.5000 
     52 CA          4.7673  -12.7605  -40.5406 C.3       4 UNK         0.1400 
     53 CB          5.7873  -13.8584  -40.8846 C.3       4 UNK        -0.1800 
     54 N           4.6511  -11.8598  -41.6885 N.am      4 UNK        -0.5000 
     55 C           3.9997  -10.6886  -41.6910 C.2       3 UNK         0.5000 
     56 O           3.4446  -10.2189  -40.6960 O.2       3 UNK        -0.5000 
     57 CA          3.9909   -9.8819  -43.0066 C.3       3 UNK         0.1400 
     58 CB          4.8030   -8.5858  -42.8467 C.3       3 UNK        -0.1800 
     59 N           4.5272  -10.6229  -44.1529 N.am      3 UNK        -0.5000 
     60 C           3.8134  -11.4302  -44.9479 C.2       2 UNK         0.5000 
     61 O           2.6120  -11.6467  -44.7901 O.2       2 UNK        -0.5000 
     62 CA          4.5473  -12.0958  -46.1264 C.3       2 UNK         0.1400 
     63 CB          6.0687  -11.8326  -46.1681 C.3       2 UNK        -0.1800 
     64 N           4.3018  -13.5340  -46.0979 N.am      2 UNK        -0.5000 
     65 C           4.2358  -14.3369  -47.1650 C.2       1 UNK         0.5000 
     66 O           4.3361  -13.9249  -48.3221 O.2       1 UNK        -0.5000 
     67 C          -2.5615  -19.9519  -47.8794 C.2       11 UNK         0.5000 
     68 O          -2.8168  -20.3185  -49.0252 O.2       11 UNK        -0.5000 
     69 N          -2.9781  -20.6024  -46.7816 N.am      12 UNK        -0.5000 
     70 CA         -3.7845  -21.8244  -46.8101 C.3       12 UNK         0.1400 
     71 CB         -4.1887  -22.2139  -45.3810 C.3       12 UNK        -0.1800 
     72 C          -3.0841  -22.9962  -47.5232 C.2       12 UNK         0.5000 
     73 O          -3.7390  -23.7211  -48.2732 O.2       12 UNK        -0.5000 
     74 N          -1.7689  -23.1363  -47.3078 N.am      13 UNK        -0.5000 
     75 CA         -0.9138  -24.1120  -47.9807 C.3       13 UNK         0.1400 
     76 CB          0.4481  -24.1833  -47.2736 C.3       13 UNK        -0.1800 
     77 C          -0.7436  -23.8144  -49.4818 C.2       13 UNK         0.5000 
     78 O          -0.8969  -24.7268  -50.2933 O.2       13 UNK        -0.5000 
     79 N          -0.4649  -22.5490  -49.8297 N.am      14 UNK        -0.5000 
     80 CA         -0.3137  -22.0691  -51.2077 C.3       14 UNK         0.1400 
     81 CB          0.1938  -20.6181  -51.1976 C.3       14 UNK        -0.1800 
     82 C          -1.6129  -22.1835  -52.0251 C.2       14 UNK         0.5000 
     83 O          -1.5740  -22.5822  -53.1901 O.2       14 UNK        -0.5000 
     84 N          -2.7456  -21.8723  -51.3832 N.am      15 UNK        -0.5000 
     85 CA         -4.0858  -22.0247  -51.9399 C.3       15 UNK         0.1400 
     86 CB         -5.0657  -21.1666  -51.1269 C.3       15 UNK        -0.1800 
     87 C          -4.5652  -23.4870  -51.9841 C.2       15 UNK         0.5000 
     88 O          -5.5556  -23.7629  -52.6634 O.2       15 UNK        -0.5000 
     89 N          -3.8912  -24.3803  -51.2457 N.am      16 UNK        -0.5000 
     90 CA         -4.2128  -25.7936  -51.0268 C.3       16 UNK         0.1400 
     91 CB         -3.9961  -26.6069  -52.3183 C.3       16 UNK        -0.1800 
     92 C          -5.6253  -25.9666  -50.4359 C.2       16 UNK         0.5000 
     93 O          -6.4389  -26.7130  -50.9792 O.2       16 UNK        -0.5000 
     94 N          -5.9151  -25.1985  -49.3750 N.am      17 UNK        -0.5000 
     95 CA         -7.2277  -25.0574  -48.7283 C.3       17 UNK         0.1400 
     96 CB         -7.6186  -26.3580  -47.9966 C.3       17 UNK        -0.1800 
     97 C          -8.3220  -24.5568  -49.7012 C.2       17 UNK         0.5000 
     98 O          -9.4761  -24.9779  -49.6133 O.2       17 UNK        -0.5000 
     99 N          -7.9099  -23.6754  -50.6243 N.am      18 UNK        -0.5000 
    100 CA        -8.6713  -23.0745  -51.7248 C.3       18 UNK         0.1400 
    101 CB        -9.9096  -22.3111  -51.2108 C.3       18 UNK        -0.1800 
    102 C         -9.0031  -24.0412  -52.8818 C.2       18 UNK         0.5000 
    103 O         -9.7769  -23.6661  -53.7641 O.2       18 UNK        -0.5000 
    104 N         -8.4041  -25.2422  -52.9015 N.am      19 UNK        -0.5000 
    105 CA        -8.5538  -26.2023  -53.9979 C.3       19 UNK         0.1400 
    106 CB        -8.1813  -27.6117  -53.5148 C.3       19 UNK        -0.1800 
    107 C         -7.7154  -25.8208  -55.2322 C.2       19 UNK         0.5000 
    108 O         -8.1507  -26.0773  -56.3556 O.2       19 UNK        -0.5000 
    109 N         -6.5388  -25.2199  -55.0068 N.am      20 UNK        -0.5000 
    110 CA        -5.6332  -24.7512  -56.0576 C.3       20 UNK         0.1400 
    111 CB        -4.1863  -25.1144  -55.6871 C.3       20 UNK        -0.1800 
    112 C         -5.7565  -23.2351  -56.2700 C.2       20 UNK         0.5000 
    113 O         -5.5862  -22.7686  -57.3971 O.2       20 UNK        -0.5000 
    114 N         -6.0215  -22.4928  -55.1826 N.am      21 UNK        -0.5000 
    115 CA        -6.1928  -21.0346  -55.1194 C.3       21 UNK         0.1400 
    116 CB        -7.5300  -20.6319  -55.7729 C.3       21 UNK        -0.1800 
    117 C         -4.9860  -20.2429  -55.6772 C.2       21 UNK         0.5000 
    118 O         -5.1661  -19.1706  -56.2562 O.2       21 UNK        -0.5000 
    119 N         -3.7822  -20.8091  -55.5083 N.am      22 UNK        -0.5000 
    120 CA        -2.4971  -20.3382  -56.0535 C.3       22 UNK         0.1400 
    121 C         -2.3614  -20.4870  -57.6021 C.2       22 UNK         0.5000 
    122 N         -3.2422  -21.2036  -58.2920 N.am      22 UNK        -0.7600 
    123 O         -1.4173  -19.9711  -58.1945 O.2       22 UNK        -0.5000 
    124 C124       -2.0851  -18.9215  -55.5596 C.3       23 UNK        -0.0398 
    125 S125       -1.9752  -18.7778  -53.7437 S.3       23 UNK        -0.2404 
    126 C126       -1.4059  -17.0546  -53.6280 C.3       23 UNK        -0.0205 
    127 H127        7.0743  -16.0657  -43.4812 H         1 UNK         0.0600 
    128 H128        7.2062  -17.2579  -44.7776 H         1 UNK         0.0600 
    129 H129        6.2032  -17.5985  -43.3639 H         1 UNK         0.0600 
    130 H130        5.9007  -16.8623  -46.5370 H         1 UNK         0.3000 
    131 H131        3.1690  -15.9533  -46.2866 H         1 UNK         0.0600 
    132 H132        4.4372  -16.3111  -49.0279 H         1 UNK         0.0800 
    133 H133        4.3777  -17.6994  -48.0090 H         1 UNK         0.0800 
    134 H134        2.5726  -16.0791  -50.7184 H         1 UNK         0.0800 
    135 H135        2.0106  -14.8870  -49.5651 H         1 UNK         0.0800 
    136 H136        1.0022  -16.7745  -52.3700 H         1 UNK         0.1150 
    137 H137       -3.2163  -16.3888  -51.7065 H         1 UNK         0.1150 
    138 H138       -0.4494  -15.3496  -48.5991 H         1 UNK         0.1150 
    139 H139       -2.8095  -14.7792  -48.3671 H         1 UNK         0.0800 
    140 H140       -3.9018  -14.9951  -49.7096 H         1 UNK         0.0800 
    141 H141       -2.9362  -17.6693  -46.2264 H         1 UNK         0.0800 
    142 H142       -1.8199  -16.6320  -47.0567 H         1 UNK         0.0800 
    143 H143       -1.2155  -18.4706  -48.6296 H         1 UNK         0.0600 
    144 H144       -0.5327  -18.4412  -45.9032 H         1 UNK         0.3000 
    145 H145        1.7752  -21.2090  -45.9147 H         1 UNK         0.0600 
    146 H146        3.1433  -19.3765  -44.8654 H         1 UNK         0.0600 
    147 H147        3.0954  -19.2765  -46.6181 H         1 UNK         0.0600 
    148 H148        2.1122  -18.1832  -45.6530 H         1 UNK         0.0600 
    149 H149        0.9272  -19.5353  -43.7909 H         1 UNK         0.3000 
    150 H150       -1.8891  -21.4958  -42.7599 H         1 UNK         0.0600 
    151 H151        0.1382  -22.5712  -41.7880 H         1 UNK         0.0600 
    152 H152       -0.5691  -21.4271  -40.6579 H         1 UNK         0.0600 
    153 H153        0.8874  -20.9973  -41.5539 H         1 UNK         0.0600 
    154 H154       -0.6250  -19.0640  -41.8387 H         1 UNK         0.3000 
    155 H155       -2.8251  -16.8298  -43.5532 H         1 UNK         0.0600 
    156 H156       -2.4342  -17.5690  -40.6020 H         1 UNK         0.0600 
    157 H157       -3.9718  -17.5813  -41.4586 H         1 UNK         0.0600 
    158 H158       -3.1170  -16.0655  -41.2194 H         1 UNK         0.0600 
    159 H159       -0.5991  -16.4062  -41.7970 H         1 UNK         0.3000 
    160 H160        1.9412  -16.3786  -44.2721 H         1 UNK         0.0600 
    161 H161        0.6122  -13.9534  -42.9687 H         1 UNK         0.0600 
    162 H162        0.8723  -14.1762  -44.6966 H         1 UNK         0.0600 
    163 H163        2.2486  -14.0215  -43.6193 H         1 UNK         0.0600 
    164 H164        2.1571  -15.5061  -41.6504 H         1 UNK         0.3000 
    165 H165        2.2862  -18.4707  -39.8626 H         1 UNK         0.0600 
    166 H166        4.7689  -18.4252  -39.7266 H         1 UNK         0.0600 
    167 H167        4.2625  -19.1414  -41.2477 H         1 UNK         0.0600 
    168 H168        4.8566  -17.4855  -41.2175 H         1 UNK         0.0600 
    169 H169        3.7952  -16.0427  -39.5710 H         1 UNK         0.3000 
    170 H170        1.2766  -13.9068  -38.4925 H         1 UNK         0.0600 
    171 H171        1.4772  -15.2328  -36.3817 H         1 UNK         0.0600 
    172 H172        3.2183  -15.3500  -36.6065 H         1 UNK         0.0600 
    173 H173        2.4636  -13.7817  -36.3164 H         1 UNK         0.0600 
    174 H174        4.0956  -13.7051  -38.2500 H         1 UNK         0.3000 
    175 H175        5.1422  -12.1832  -39.6930 H         1 UNK         0.0600 
    176 H176        5.4496  -14.4726  -41.7202 H         1 UNK         0.0600 
    177 H177        6.7539  -13.4310  -41.1522 H         1 UNK         0.0600 
    178 H178        5.9536  -14.5234  -40.0363 H         1 UNK         0.0600 
    179 H179        5.0468  -12.1836  -42.5573 H         1 UNK         0.3000 
    180 H180        2.9537   -9.6061  -43.2092 H         1 UNK         0.0600 
    181 H181        5.8519   -8.7919  -42.6299 H         1 UNK         0.0600 
    182 H182        4.4131   -7.9758  -42.0307 H         1 UNK         0.0600 
    183 H183        4.7593   -7.9789  -43.7513 H         1 UNK         0.0600 
    184 H184        5.5086  -10.4914  -44.3525 H         1 UNK         0.3000 
    185 H185        4.1027  -11.6744  -47.0303 H         1 UNK         0.0600 
    186 H186        6.2884  -10.7663  -46.2341 H         1 UNK         0.0600 
    187 H187        6.5735  -12.2312  -45.2872 H         1 UNK         0.0600 
    188 H188        6.5208  -12.2998  -47.0432 H         1 UNK         0.0600 
    189 H189        4.2074  -13.9591  -45.1792 H         1 UNK         0.3000 
    190 H190       -2.7404  -20.2342  -45.8669 H         1 UNK         0.3000 
    191 H191       -4.6956  -21.6008  -47.3689 H         1 UNK         0.0600 
    192 H192       -3.3196  -22.4312  -44.7602 H         1 UNK         0.0600 
    193 H193       -4.8215  -23.1023  -45.3830 H         1 UNK         0.0600 
    194 H194       -4.7514  -21.4142  -44.8990 H         1 UNK         0.0600 
    195 H195       -1.3218  -22.5334  -46.6234 H         1 UNK         0.3000 
    196 H196       -1.3898  -25.0906  -47.8889 H         1 UNK         0.0600 
    197 H197        1.0932  -24.9269  -47.7430 H         1 UNK         0.0600 
    198 H198        0.3333  -24.4655  -46.2269 H         1 UNK         0.0600 
    199 H199        0.9714  -23.2277  -47.3051 H         1 UNK         0.0600 
    200 H200       -0.3161  -21.8584  -49.0965 H         1 UNK         0.3000 
    201 H201        0.4405  -22.6900  -51.6951 H         1 UNK         0.0600 
    202 H202        1.1487  -20.5357  -50.6784 H         1 UNK         0.0600 
    203 H203       -0.5118  -19.9467  -50.7060 H         1 UNK         0.0600 
    204 H204        0.3433  -20.2486  -52.2127 H         1 UNK         0.0600 
    205 H205       -2.6867  -21.4738  -50.4472 H         1 UNK         0.3000 
    206 H206       -4.0743  -21.6489  -52.9613 H         1 UNK         0.0600 
    207 H207       -4.7481  -20.1235  -51.1059 H         1 UNK         0.0600 
    208 H208       -6.0653  -21.1874  -51.5586 H         1 UNK         0.0600 
    209 H209       -5.1421  -21.5122  -50.0950 H         1 UNK         0.0600 
    210 H210       -3.0980  -24.0397  -50.7184 H         1 UNK         0.3000 
    211 H211       -3.5103  -26.1602  -50.2770 H         1 UNK         0.0600 
    212 H212       -4.7249  -26.3505  -53.0858 H         1 UNK         0.0600 
    213 H213       -4.0929  -27.6756  -52.1245 H         1 UNK         0.0600 
    214 H214       -3.0005  -26.4382  -52.7289 H         1 UNK         0.0600 
    215 H215       -5.1670  -24.6190  -48.9956 H         1 UNK         0.3000 
    216 H216       -7.1129  -24.2774  -47.9742 H         1 UNK         0.0600 
    217 H217       -8.5225  -26.2162  -47.4031 H         1 UNK         0.0600 
    218 H218       -6.8309  -26.6777  -47.3145 H         1 UNK         0.0600 
    219 H219       -7.8107  -27.1740  -48.6938 H         1 UNK         0.0600 
    220 H220       -6.9248  -23.4559  -50.6274 H         1 UNK         0.3000 
    221 H221       -8.0062  -22.3323  -52.1660 H         1 UNK         0.0600 
    222 H222      -10.6822  -22.9873  -50.8448 H         1 UNK         0.0600 
    223 H223       -9.6461  -21.6298  -50.4018 H         1 UNK         0.0600 
    224 H224      -10.3557  -21.7111  -52.0046 H         1 UNK         0.0600 
    225 H225       -7.7748  -25.5014  -52.1503 H         1 UNK         0.3000 
    226 H226       -9.6036  -26.2228  -54.2984 H         1 UNK         0.0600 
    227 H227       -8.7287  -27.8800  -52.6110 H         1 UNK         0.0600 
    228 H228       -8.4200  -28.3565  -54.2747 H         1 UNK         0.0600 
    229 H229       -7.1155  -27.6975  -53.3018 H         1 UNK         0.0600 
    230 H230       -6.2752  -25.0054  -54.0510 H         1 UNK         0.3000 
    231 H231       -5.8665  -25.2394  -57.0060 H         1 UNK         0.0600 
    232 H232       -4.0705  -26.1913  -55.5653 H         1 UNK         0.0600 
    233 H233       -3.8687  -24.6359  -54.7603 H         1 UNK         0.0600 
    234 H234       -3.4938  -24.8008  -56.4693 H         1 UNK         0.0600 
    235 H235       -6.0839  -22.9795  -54.2936 H         1 UNK         0.3000 
    236 H236       -6.2569  -20.7781  -54.0615 H         1 UNK         0.0600 
    237 H237       -7.5238  -20.8138  -56.8481 H         1 UNK         0.0600 
    238 H238       -8.3614  -21.1914  -55.3433 H         1 UNK         0.0600 
    239 H239       -7.7398  -19.5727  -55.6199 H         1 UNK         0.0600 
    240 H240       -3.7396  -21.7019  -55.0412 H         1 UNK         0.3000 
    241 H241       -1.7568  -21.0338  -55.6568 H         1 UNK         0.0600 
    242 H242       -3.1251  -21.2935  -59.2886 H         1 UNK         0.3800 
    243 H243       -4.0371  -21.6492  -57.8450 H         1 UNK         0.3800 
    244 H244       -2.7761  -18.1654  -55.9339 H         1 UNK         0.0800 
    245 H245       -1.1052  -18.6568  -55.9601 H         1 UNK         0.0800 
    246 H246       -2.1593  -16.3978  -54.0657 H         1 UNK         0.0800 
    247 H247       -0.5052  -16.9322  -54.2315 H         1 UNK         0.0800 
@<TRIPOS>BOND
     1    1    2 1    
     2    1  127 1    
     3    1  128 1    
     4    1  129 1    
     5    2    3 2    
     6    2    4 am   BACKBONE|DICT|INTERRES
     7    4    5 1    
     8    4  130 1    
     9    5    6 1    
    10    5   65 1    
    11    5  131 1    
    12    6    7 1    
    13    6  132 1    
    14    6  133 1    
    15    7    8 1    
    16    8    9 1    
    17    8  134 1    
    18    8  135 1    
    19    9   10 ar   
    20    9   14 ar   
    21   10   11 ar   
    22   10  136 1    
    23   11   12 ar   
    24   11  126 1    
    25   12   13 ar   
    26   12  137 1    
    27   13   14 ar   
    28   13   15 1    
    29   14  138 1    
    30   15   16 1    
    31   15  139 1    
    32   15  140 1    
    33   16   17 1    
    34   17   18 1    
    35   17  141 1    
    36   17  142 1    
    37   18   19 1    
    38   18   67 1    
    39   18  143 1    
    40   19   20 am   BACKBONE|DICT|INTERRES
    41   19  144 1    
    42   20   21 2    
    43   20   22 1    
    44   22   23 1    
    45   22   24 1    
    46   22  145 1    
    47   23  146 1    
    48   23  147 1    
    49   23  148 1    
    50   24   25 am   BACKBONE|DICT|INTERRES
    51   24  149 1    
    52   25   26 2    
    53   25   27 1    
    54   27   28 1    
    55   27   29 1    
    56   27  150 1    
    57   28  151 1    
    58   28  152 1    
    59   28  153 1    
    60   29   30 am   BACKBONE|DICT|INTERRES
    61   29  154 1    
    62   30   31 2    
    63   30   32 1    
    64   32   33 1    
    65   32   34 1    
    66   32  155 1    
    67   33  156 1    
    68   33  157 1    
    69   33  158 1    
    70   34   35 am   BACKBONE|DICT|INTERRES
    71   34  159 1    
    72   35   36 2    
    73   35   37 1    
    74   37   38 1    
    75   37   39 1    
    76   37  160 1    
    77   38  161 1    
    78   38  162 1    
    79   38  163 1    
    80   39   40 am   BACKBONE|DICT|INTERRES
    81   39  164 1    
    82   40   41 2    
    83   40   42 1    
    84   42   43 1    
    85   42   44 1    
    86   42  165 1    
    87   43  166 1    
    88   43  167 1    
    89   43  168 1    
    90   44   45 am   BACKBONE|DICT|INTERRES
    91   44  169 1    
    92   45   46 2    
    93   45   47 1    
    94   47   48 1    
    95   47   49 1    
    96   47  170 1    
    97   48  171 1    
    98   48  172 1    
    99   48  173 1    
   100   49   50 am   BACKBONE|DICT|INTERRES
   101   49  174 1    
   102   50   51 2    
   103   50   52 1    
   104   52   53 1    
   105   52   54 1    
   106   52  175 1    
   107   53  176 1    
   108   53  177 1    
   109   53  178 1    
   110   54   55 am   BACKBONE|DICT|INTERRES
   111   54  179 1    
   112   55   56 2    
   113   55   57 1    
   114   57   58 1    
   115   57   59 1    
   116   57  180 1    
   117   58  181 1    
   118   58  182 1    
   119   58  183 1    
   120   59   60 am   BACKBONE|DICT|INTERRES
   121   59  184 1    
   122   60   61 2    
   123   60   62 1    
   124   62   63 1    
   125   62   64 1    
   126   62  185 1    
   127   63  186 1    
   128   63  187 1    
   129   63  188 1    
   130   64   65 am   BACKBONE|DICT|INTERRES
   131   64  189 1    
   132   65   66 2    
   133   67   68 2    
   134   67   69 am   BACKBONE|DICT|INTERRES
   135   69   70 1    
   136   69  190 1    
   137   70   71 1    
   138   70   72 1    
   139   70  191 1    
   140   71  192 1    
   141   71  193 1    
   142   71  194 1    
   143   72   73 2    
   144   72   74 am   BACKBONE|DICT|INTERRES
   145   74   75 1    
   146   74  195 1    
   147   75   76 1    
   148   75   77 1    
   149   75  196 1    
   150   76  197 1    
   151   76  198 1    
   152   76  199 1    
   153   77   78 2    
   154   77   79 am   BACKBONE|DICT|INTERRES
   155   79   80 1    
   156   79  200 1    
   157   80   81 1    
   158   80   82 1    
   159   80  201 1    
   160   81  202 1    
   161   81  203 1    
   162   81  204 1    
   163   82   83 2    
   164   82   84 am   BACKBONE|DICT|INTERRES
   165   84   85 1    
   166   84  205 1    
   167   85   86 1    
   168   85   87 1    
   169   85  206 1    
   170   86  207 1    
   171   86  208 1    
   172   86  209 1    
   173   87   88 2    
   174   87   89 am   BACKBONE|DICT|INTERRES
   175   89   90 1    
   176   89  210 1    
   177   90   91 1    
   178   90   92 1    
   179   90  211 1    
   180   91  212 1    
   181   91  213 1    
   182   91  214 1    
   183   92   93 2    
   184   92   94 am   BACKBONE|DICT|INTERRES
   185   94   95 1    
   186   94  215 1    
   187   95   96 1    
   188   95   97 1    
   189   95  216 1    
   190   96  217 1    
   191   96  218 1    
   192   96  219 1    
   193   97   98 2    
   194   97   99 am   BACKBONE|DICT|INTERRES
   195   99  100 1    
   196   99  220 1    
   197  100  101 1    
   198  100  102 1    
   199  100  221 1    
   200  101  222 1    
   201  101  223 1    
   202  101  224 1    
   203  102  103 2    
   204  102  104 am   BACKBONE|DICT|INTERRES
   205  104  105 1    
   206  104  225 1    
   207  105  106 1    
   208  105  107 1    
   209  105  226 1    
   210  106  227 1    
   211  106  228 1    
   212  106  229 1    
   213  107  108 2    
   214  107  109 am   BACKBONE|DICT|INTERRES
   215  109  110 1    
   216  109  230 1    
   217  110  111 1    
   218  110  112 1    
   219  110  231 1    
   220  111  232 1    
   221  111  233 1    
   222  111  234 1    
   223  112  113 2    
   224  112  114 am   BACKBONE|DICT|INTERRES
   225  114  115 1    
   226  114  235 1    
   227  115  116 1    
   228  115  117 1    
   229  115  236 1    
   230  116  237 1    
   231  116  238 1    
   232  116  239 1    
   233  117  118 2    
   234  117  119 am   BACKBONE|DICT|INTERRES
   235  119  120 1    
   236  119  240 1    
   237  120  121 1    
   238  120  124 1    
   239  120  241 1    
   240  121  122 am   BACKBONE|DICT|INTERRES
   241  121  123 2    
   242  122  242 1    
   243  122  243 1    
   244  124  125 1    
   245  124  244 1    
   246  124  245 1    
   247  125  126 1    
   248  126  246 1    
   249  126  247 1    
@<TRIPOS>SUBSTRUCTURE
     1 UNK         1 GROUP             0       ****    0 ROOT    
