@<TRIPOS>MOLECULE
3R540
247   249    1
SMALL
USER_CHARGES


@<TRIPOS>ATOM
      1 CA         -2.8907  -16.4321  -47.5809 C.3       0 UNK        -0.1800 
      2 C          -1.3948  -16.1499  -47.5798 C.2       0 UNK         0.5000 
      3 O          -0.8165  -15.9125  -46.5199 O.2       0 UNK        -0.5000 
      4 N          -0.7771  -16.1211  -48.7694 N.am      1 UNK        -0.5000 
      5 CA          0.6274  -15.7749  -49.0571 C.3       1 UNK         0.1400 
      6 C6          1.6767  -16.6707  -48.3452 C.3       23 UNK        -0.0398 
      7 S7          1.5664  -18.4148  -48.8712 S.3       23 UNK        -0.2404 
      8 C8          2.9702  -18.5043  -50.0232 C.3       23 UNK        -0.0205 
      9 C9          3.0872  -19.8826  -50.6536 C.ar      23 UNK        -0.0193 
     10 C10         2.4726  -20.1513  -51.8799 C.ar      23 UNK        -0.1150 
     11 C11         2.5925  -21.4123  -52.4833 C.ar      23 UNK        -0.0193 
     12 C12         3.3313  -22.4027  -51.8271 C.ar      23 UNK        -0.1150 
     13 C13         3.9496  -22.1480  -50.5993 C.ar      23 UNK        -0.0193 
     14 C14         3.8278  -20.8827  -50.0201 C.ar      23 UNK        -0.1150 
     15 C15         4.7752  -23.2325  -49.9217 C.3       23 UNK        -0.0205 
     16 S16         3.7501  -24.3721  -48.9386 S.3       23 UNK        -0.2404 
     17 C17         3.4897  -23.4117  -47.4082 C.3       23 UNK        -0.0398 
     18 CA          2.1188  -23.6879  -46.7435 C.3       11 UNK         0.1400 
     19 N           2.1694  -23.4071  -45.3045 N.am      11 UNK        -0.5000 
     20 C           1.1847  -23.6185  -44.4189 C.2       10 UNK         0.5000 
     21 O           0.1275  -24.1843  -44.6992 O.2       10 UNK        -0.5000 
     22 CA          1.3865  -23.0391  -43.0021 C.3       10 UNK         0.1400 
     23 CB          1.8271  -24.1416  -42.0283 C.3       10 UNK        -0.1800 
     24 N           2.3399  -21.9234  -42.9219 N.am      10 UNK        -0.5000 
     25 C           2.2626  -20.7744  -43.6075 C.2       9 UNK         0.5000 
     26 O           1.3867  -20.5363  -44.4382 O.2       9 UNK        -0.5000 
     27 CA          3.3495  -19.7277  -43.3123 C.3       9 UNK         0.1400 
     28 CB          3.4208  -18.6383  -44.3993 C.3       9 UNK        -0.1800 
     29 N           3.0971  -19.0932  -42.0239 N.am      9 UNK        -0.5000 
     30 C           3.4078  -19.6029  -40.8255 C.2       8 UNK         0.5000 
     31 O           3.9825  -20.6818  -40.6719 O.2       8 UNK        -0.5000 
     32 CA          2.9846  -18.7793  -39.5993 C.3       8 UNK         0.1400 
     33 CB          3.8912  -17.5493  -39.4314 C.3       8 UNK        -0.1800 
     34 N           1.5971  -18.3385  -39.7338 N.am      8 UNK        -0.5000 
     35 C           0.5558  -18.8631  -39.0737 C.2       7 UNK         0.5000 
     36 O           0.6591  -19.7475  -38.2226 O.2       7 UNK        -0.5000 
     37 CA         -0.8445  -18.3130  -39.4176 C.3       7 UNK         0.1400 
     38 CB         -1.2375  -17.1967  -38.4385 C.3       7 UNK        -0.1800 
     39 N          -0.9472  -17.8011  -40.7846 N.am      7 UNK        -0.5000 
     40 C          -0.8749  -18.5576  -41.8901 C.2       6 UNK         0.5000 
     41 O          -0.8096  -19.7866  -41.8671 O.2       6 UNK        -0.5000 
     42 CA         -0.8599  -17.8245  -43.2482 C.3       6 UNK         0.1400 
     43 CB         -2.2701  -17.8435  -43.8573 C.3       6 UNK        -0.1800 
     44 N          -0.3923  -16.4351  -43.1966 N.am      6 UNK        -0.5000 
     45 C           0.7733  -16.0035  -42.6905 C.2       5 UNK         0.5000 
     46 O           1.6268  -16.7475  -42.2093 O.2       5 UNK        -0.5000 
     47 CA          1.0138  -14.4833  -42.6523 C.3       5 UNK         0.1400 
     48 CB          1.8828  -14.0645  -43.8430 C.3       5 UNK        -0.1800 
     49 N          -0.2103  -13.6776  -42.6341 N.am      5 UNK        -0.5000 
     50 C          -1.1793  -13.7576  -41.7080 C.2       4 UNK         0.5000 
     51 O          -1.1292  -14.5130  -40.7355 O.2       4 UNK        -0.5000 
     52 CA         -2.4281  -12.8754  -41.9073 C.3       4 UNK         0.1400 
     53 CB         -2.4019  -11.6822  -40.9400 C.3       4 UNK        -0.1800 
     54 N          -2.5991  -12.3719  -43.2723 N.am      4 UNK        -0.5000 
     55 C          -2.8229  -13.1194  -44.3620 C.2       3 UNK         0.5000 
     56 O          -2.9110  -14.3473  -44.3400 O.2       3 UNK        -0.5000 
     57 CA         -2.9534  -12.3730  -45.7063 C.3       3 UNK         0.1400 
     58 CB         -3.3701  -10.8925  -45.5571 C.3       3 UNK        -0.1800 
     59 N          -1.7434  -12.4773  -46.5287 N.am      3 UNK        -0.5000 
     60 C          -0.4913  -12.1245  -46.1981 C.2       2 UNK         0.5000 
     61 O          -0.1628  -11.6936  -45.0912 O.2       2 UNK        -0.5000 
     62 CA          0.5627  -12.3413  -47.2963 C.3       2 UNK         0.1400 
     63 CB          1.9865  -11.8977  -46.9066 C.3       2 UNK        -0.1800 
     64 N           0.5392  -13.7495  -47.6715 N.am      2 UNK        -0.5000 
     65 C           0.9210  -14.2731  -48.8389 C.2       1 UNK         0.5000 
     66 O           1.4439  -13.6183  -49.7414 O.2       1 UNK        -0.5000 
     67 C           0.9682  -22.9473  -47.4693 C.2       11 UNK         0.5000 
     68 O           0.4966  -23.4355  -48.4952 O.2       11 UNK        -0.5000 
     69 N           0.4764  -21.8348  -46.8984 N.am      12 UNK        -0.5000 
     70 CA         -0.7036  -21.1042  -47.3640 C.3       12 UNK         0.1400 
     71 CB         -0.9425  -19.8856  -46.4636 C.3       12 UNK        -0.1800 
     72 C          -1.9822  -21.9626  -47.4217 C.2       12 UNK         0.5000 
     73 O          -2.8170  -21.7323  -48.2951 O.2       12 UNK        -0.5000 
     74 N          -2.1090  -22.9499  -46.5213 N.am      13 UNK        -0.5000 
     75 CA         -3.2227  -23.8994  -46.5067 C.3       13 UNK         0.1400 
     76 CB         -3.2259  -24.6751  -45.1813 C.3       13 UNK        -0.1800 
     77 C          -3.1766  -24.8624  -47.7067 C.2       13 UNK         0.5000 
     78 O          -4.2120  -25.1162  -48.3224 O.2       13 UNK        -0.5000 
     79 N          -1.9710  -25.3412  -48.0462 N.am      14 UNK        -0.5000 
     80 CA         -1.7088  -26.1772  -49.2206 C.3       14 UNK         0.1400 
     81 CB         -0.3127  -26.8077  -49.0987 C.3       14 UNK        -0.1800 
     82 C          -1.8432  -25.3883  -50.5368 C.2       14 UNK         0.5000 
     83 O          -2.3101  -25.9377  -51.5345 O.2       14 UNK        -0.5000 
     84 N          -1.4684  -24.1032  -50.4989 N.am      15 UNK        -0.5000 
     85 CA         -1.6027  -23.1427  -51.5929 C.3       15 UNK         0.1400 
     86 CB         -0.7013  -21.9350  -51.3000 C.3       15 UNK        -0.1800 
     87 C          -3.0486  -22.6657  -51.8363 C.2       15 UNK         0.5000 
     88 O          -3.2678  -21.9546  -52.8138 O.2       15 UNK        -0.5000 
     89 N          -3.9923  -23.0300  -50.9546 N.am      16 UNK        -0.5000 
     90 CA         -5.4055  -22.6338  -50.9590 C.3       16 UNK         0.1400 
     91 CB         -6.1387  -23.1996  -52.1917 C.3       16 UNK        -0.1800 
     92 C          -5.6057  -21.1138  -50.7736 C.2       16 UNK         0.5000 
     93 O          -6.4929  -20.5195  -51.3934 O.2       16 UNK        -0.5000 
     94 N          -4.7755  -20.5296  -49.8965 N.am      17 UNK        -0.5000 
     95 CA         -4.7579  -19.1388  -49.4461 C.3       17 UNK         0.1400 
     96 CB         -5.8825  -18.9173  -48.4108 C.3       17 UNK        -0.1800 
     97 C          -4.7593  -18.1330  -50.6158 C.2       17 UNK         0.5000 
     98 O          -3.9188  -18.2448  -51.5075 O.2       17 UNK        -0.5000 
     99 N          -5.6918  -17.1745  -50.5901 N.am      18 UNK        -0.5000 
    100 CA        -5.9474  -16.2266  -51.6742 C.3       18 UNK         0.1400 
    101 CB        -6.2674  -14.8570  -51.0536 C.3       18 UNK        -0.1800 
    102 C         -7.1016  -16.6883  -52.5884 C.2       18 UNK         0.5000 
    103 O         -7.3323  -16.0608  -53.6223 O.2       18 UNK        -0.5000 
    104 N         -7.8244  -17.7474  -52.1921 N.am      19 UNK        -0.5000 
    105 CA        -9.0196  -18.2473  -52.8739 C.3       19 UNK         0.1400 
    106 CB        -9.7891  -19.1837  -51.9292 C.3       19 UNK        -0.1800 
    107 C         -8.7034  -18.9550  -54.2020 C.2       19 UNK         0.5000 
    108 O         -9.4409  -18.7794  -55.1729 O.2       19 UNK        -0.5000 
    109 N         -7.6109  -19.7254  -54.2246 N.am      20 UNK        -0.5000 
    110 CA        -7.1235  -20.4468  -55.3994 C.3       20 UNK         0.1400 
    111 CB        -7.8201  -21.8177  -55.5058 C.3       20 UNK        -0.1800 
    112 C         -5.5906  -20.5318  -55.3462 C.2       20 UNK         0.5000 
    113 O         -5.0286  -21.6128  -55.5259 O.2       20 UNK        -0.5000 
    114 N         -4.9681  -19.3752  -55.0708 N.am      21 UNK        -0.5000 
    115 CA        -3.5484  -19.1411  -54.7896 C.3       21 UNK         0.1400 
    116 CB        -3.2791  -17.6281  -54.8580 C.3       21 UNK        -0.1800 
    117 C         -2.5651  -19.9185  -55.6865 C.2       21 UNK         0.5000 
    118 O         -2.2994  -19.5079  -56.8185 O.2       21 UNK        -0.5000 
    119 N         -2.0594  -21.0293  -55.1426 N.am      22 UNK        -0.5000 
    120 CA        -1.1007  -21.9649  -55.7493 C.3       22 UNK         0.1400 
    121 C         -1.6725  -22.7925  -56.9407 C.2       22 UNK         0.5000 
    122 N         -2.9856  -22.8850  -57.1144 N.am      22 UNK        -0.7600 
    123 O         -0.9190  -23.3900  -57.7050 O.2       22 UNK        -0.5000 
    124 C124        0.2811  -21.3217  -56.0656 C.3       23 UNK        -0.0398 
    125 S125        1.0081  -20.4323  -54.6444 S.3       23 UNK        -0.2404 
    126 C126        1.9442  -21.7704  -53.8249 C.3       23 UNK        -0.0205 
    127 H127       -3.4070  -15.6970  -46.9632 H         1 UNK         0.0600 
    128 H128       -3.0956  -17.4192  -47.1705 H         1 UNK         0.0600 
    129 H129       -3.3096  -16.3794  -48.5854 H         1 UNK         0.0600 
    130 H130       -1.3267  -16.3136  -49.5947 H         1 UNK         0.3000 
    131 H131        0.7441  -15.9417  -50.1295 H         1 UNK         0.0600 
    132 H132        2.6870  -16.3082  -48.5430 H         1 UNK         0.0800 
    133 H133        1.5589  -16.6315  -47.2617 H         1 UNK         0.0800 
    134 H134        3.8921  -18.2612  -49.4925 H         1 UNK         0.0800 
    135 H135        2.8511  -17.7466  -50.7994 H         1 UNK         0.0800 
    136 H136        1.9032  -19.3650  -52.3520 H         1 UNK         0.1150 
    137 H137        3.4286  -23.3815  -52.2759 H         1 UNK         0.1150 
    138 H138        4.3127  -20.6702  -49.0781 H         1 UNK         0.1150 
    139 H139        5.3043  -23.8094  -50.6816 H         1 UNK         0.0800 
    140 H140        5.5473  -22.7915  -49.2892 H         1 UNK         0.0800 
    141 H141        3.6217  -22.3454  -47.5918 H         1 UNK         0.0800 
    142 H142        4.2969  -23.6967  -46.7319 H         1 UNK         0.0800 
    143 H143        1.9063  -24.7557  -46.8304 H         1 UNK         0.0600 
    144 H144        2.9925  -22.9276  -44.9721 H         1 UNK         0.3000 
    145 H145        0.4176  -22.6578  -42.6729 H         1 UNK         0.0600 
    146 H146        1.8734  -23.7686  -41.0049 H         1 UNK         0.0600 
    147 H147        1.1241  -24.9759  -42.0370 H         1 UNK         0.0600 
    148 H148        2.8101  -24.5368  -42.2874 H         1 UNK         0.0600 
    149 H149        3.0678  -22.0018  -42.2221 H         1 UNK         0.3000 
    150 H150        4.3151  -20.2367  -43.2837 H         1 UNK         0.0600 
    151 H151        3.6300  -19.0749  -45.3767 H         1 UNK         0.0600 
    152 H152        4.2127  -17.9202  -44.1864 H         1 UNK         0.0600 
    153 H153        2.4842  -18.0855  -44.4836 H         1 UNK         0.0600 
    154 H154        2.5943  -18.2084  -42.0646 H         1 UNK         0.3000 
    155 H155        3.1051  -19.4089  -38.7152 H         1 UNK         0.0600 
    156 H156        3.8127  -16.8673  -40.2791 H         1 UNK         0.0600 
    157 H157        4.9373  -17.8446  -39.3416 H         1 UNK         0.0600 
    158 H158        3.6321  -16.9923  -38.5309 H         1 UNK         0.0600 
    159 H159        1.4157  -17.6485  -40.4549 H         1 UNK         0.3000 
    160 H160       -1.5581  -19.1322  -39.3079 H         1 UNK         0.0600 
    161 H161       -0.5655  -16.3408  -38.5151 H         1 UNK         0.0600 
    162 H162       -1.2042  -17.5505  -37.4072 H         1 UNK         0.0600 
    163 H163       -2.2512  -16.8435  -38.6286 H         1 UNK         0.0600 
    164 H164       -1.0072  -16.7953  -40.8882 H         1 UNK         0.3000 
    165 H165       -0.1844  -18.3699  -43.9089 H         1 UNK         0.0600 
    166 H166       -2.2708  -17.4254  -44.8618 H         1 UNK         0.0600 
    167 H167       -2.6566  -18.8609  -43.9295 H         1 UNK         0.0600 
    168 H168       -2.9735  -17.2651  -43.2569 H         1 UNK         0.0600 
    169 H169       -1.0225  -15.7453  -43.5862 H         1 UNK         0.3000 
    170 H170        1.5619  -14.2643  -41.7339 H         1 UNK         0.0600 
    171 H171        2.8276  -14.6097  -43.8511 H         1 UNK         0.0600 
    172 H172        1.3803  -14.2656  -44.7898 H         1 UNK         0.0600 
    173 H173        2.1206  -13.0016  -43.7999 H         1 UNK         0.0600 
    174 H174       -0.3292  -13.0199  -43.3967 H         1 UNK         0.3000 
    175 H175       -3.2977  -13.4912  -41.6690 H         1 UNK         0.0600 
    176 H176       -1.5627  -11.0166  -41.1464 H         1 UNK         0.0600 
    177 H177       -3.3199  -11.0981  -41.0078 H         1 UNK         0.0600 
    178 H178       -2.3082  -12.0179  -39.9062 H         1 UNK         0.0600 
    179 H179       -2.4991  -11.3749  -43.3968 H         1 UNK         0.3000 
    180 H180       -3.7467  -12.8812  -46.2566 H         1 UNK         0.0600 
    181 H181       -2.5937  -10.2864  -45.0891 H         1 UNK         0.0600 
    182 H182       -4.2759  -10.7969  -44.9568 H         1 UNK         0.0600 
    183 H183       -3.5847  -10.4518  -46.5307 H         1 UNK         0.0600 
    184 H184       -1.8876  -12.8612  -47.4514 H         1 UNK         0.3000 
    185 H185        0.2453  -11.7420  -48.1521 H         1 UNK         0.0600 
    186 H186        2.4089  -12.5244  -46.1237 H         1 UNK         0.0600 
    187 H187        2.6594  -11.9433  -47.7628 H         1 UNK         0.0600 
    188 H188        1.9926  -10.8680  -46.5474 H         1 UNK         0.0600 
    189 H189        0.0872  -14.3799  -47.0100 H         1 UNK         0.3000 
    190 H190        0.8998  -21.4850  -46.0429 H         1 UNK         0.3000 
    191 H191       -0.4900  -20.7454  -48.3710 H         1 UNK         0.0600 
    192 H192       -1.7999  -19.3098  -46.8090 H         1 UNK         0.0600 
    193 H193       -0.0822  -19.2162  -46.4572 H         1 UNK         0.0600 
    194 H194       -1.1406  -20.1858  -45.4343 H         1 UNK         0.0600 
    195 H195       -1.3650  -23.1080  -45.8517 H         1 UNK         0.3000 
    196 H196       -4.1538  -23.3318  -46.5681 H         1 UNK         0.0600 
    197 H197       -4.0843  -25.3456  -45.1256 H         1 UNK         0.0600 
    198 H198       -3.2848  -23.9990  -44.3282 H         1 UNK         0.0600 
    199 H199       -2.3281  -25.2831  -45.0657 H         1 UNK         0.0600 
    200 H200       -1.1659  -25.0410  -47.5157 H         1 UNK         0.3000 
    201 H201       -2.4457  -26.9830  -49.2377 H         1 UNK         0.0600 
    202 H202       -0.2262  -27.4027  -48.1895 H         1 UNK         0.0600 
    203 H203        0.4745  -26.0533  -49.0823 H         1 UNK         0.0600 
    204 H204       -0.1113  -27.4705  -49.9411 H         1 UNK         0.0600 
    205 H205       -1.0057  -23.7658  -49.6593 H         1 UNK         0.3000 
    206 H206       -1.2509  -23.6198  -52.5096 H         1 UNK         0.0600 
    207 H207        0.3098  -22.2449  -51.0373 H         1 UNK         0.0600 
    208 H208       -0.6301  -21.2802  -52.1688 H         1 UNK         0.0600 
    209 H209       -1.0920  -21.3357  -50.4792 H         1 UNK         0.0600 
    210 H210       -3.7015  -23.5939  -50.1675 H         1 UNK         0.3000 
    211 H211       -5.8479  -23.1000  -50.0776 H         1 UNK         0.0600 
    212 H212       -5.7732  -22.7558  -53.1170 H         1 UNK         0.0600 
    213 H213       -7.2099  -23.0029  -52.1351 H         1 UNK         0.0600 
    214 H214       -6.0100  -24.2793  -52.2652 H         1 UNK         0.0600 
    215 H215       -4.0640  -21.1138  -49.4605 H         1 UNK         0.3000 
    216 H216       -3.8040  -19.0043  -48.9352 H         1 UNK         0.0600 
    217 H217       -5.8328  -17.9199  -47.9721 H         1 UNK         0.0600 
    218 H218       -5.7927  -19.6266  -47.5878 H         1 UNK         0.0600 
    219 H219       -6.8730  -19.0487  -48.8485 H         1 UNK         0.0600 
    220 H220       -6.3285  -17.1408  -49.8068 H         1 UNK         0.3000 
    221 H221       -5.0578  -16.1141  -52.2961 H         1 UNK         0.0600 
    222 H222       -7.1656  -14.8936  -50.4359 H         1 UNK         0.0600 
    223 H223       -5.4450  -14.5058  -50.4300 H         1 UNK         0.0600 
    224 H224       -6.4308  -14.1047  -51.8265 H         1 UNK         0.0600 
    225 H225       -7.5222  -18.2652  -51.3795 H         1 UNK         0.3000 
    226 H226       -9.6631  -17.3940  -53.0988 H         1 UNK         0.0600 
    227 H227       -9.1944  -20.0541  -51.6495 H         1 UNK         0.0600 
    228 H228      -10.0806  -18.6684  -51.0139 H         1 UNK         0.0600 
    229 H229      -10.7021  -19.5489  -52.4010 H         1 UNK         0.0600 
    230 H230       -7.0734  -19.8394  -53.3704 H         1 UNK         0.3000 
    231 H231       -7.3605  -19.8766  -56.3001 H         1 UNK         0.0600 
    232 H232       -7.4669  -22.3717  -56.3763 H         1 UNK         0.0600 
    233 H233       -8.8989  -21.7044  -55.6121 H         1 UNK         0.0600 
    234 H234       -7.6354  -22.4322  -54.6254 H         1 UNK         0.0600 
    235 H235       -5.5580  -18.5628  -54.9700 H         1 UNK         0.3000 
    236 H236       -3.3779  -19.4555  -53.7594 H         1 UNK         0.0600 
    237 H237       -3.8814  -17.0863  -54.1301 H         1 UNK         0.0600 
    238 H238       -2.2334  -17.4084  -54.6387 H         1 UNK         0.0600 
    239 H239       -3.5017  -17.2227  -55.8458 H         1 UNK         0.0600 
    240 H240       -2.4436  -21.3244  -54.2451 H         1 UNK         0.3000 
    241 H241       -0.9248  -22.7121  -54.9754 H         1 UNK         0.0600 
    242 H242       -3.3487  -23.4308  -57.8789 H         1 UNK         0.3800 
    243 H243       -3.6301  -22.4103  -56.4842 H         1 UNK         0.3800 
    244 H244        0.9914  -22.0799  -56.3992 H         1 UNK         0.0800 
    245 H245        0.1873  -20.6169  -56.8927 H         1 UNK         0.0800 
    246 H246        2.7222  -22.1145  -54.5079 H         1 UNK         0.0800 
    247 H247        1.2722  -22.6147  -53.6651 H         1 UNK         0.0800 
@<TRIPOS>BOND
     1    1    2 1    
     2    1  127 1    
     3    1  128 1    
     4    1  129 1    
     5    2    3 2    
     6    2    4 am   BACKBONE|DICT|INTERRES
     7    4    5 1    
     8    4  130 1    
     9    5    6 1    
    10    5   65 1    
    11    5  131 1    
    12    6    7 1    
    13    6  132 1    
    14    6  133 1    
    15    7    8 1    
    16    8    9 1    
    17    8  134 1    
    18    8  135 1    
    19    9   10 ar   
    20    9   14 ar   
    21   10   11 ar   
    22   10  136 1    
    23   11   12 ar   
    24   11  126 1    
    25   12   13 ar   
    26   12  137 1    
    27   13   14 ar   
    28   13   15 1    
    29   14  138 1    
    30   15   16 1    
    31   15  139 1    
    32   15  140 1    
    33   16   17 1    
    34   17   18 1    
    35   17  141 1    
    36   17  142 1    
    37   18   19 1    
    38   18   67 1    
    39   18  143 1    
    40   19   20 am   BACKBONE|DICT|INTERRES
    41   19  144 1    
    42   20   21 2    
    43   20   22 1    
    44   22   23 1    
    45   22   24 1    
    46   22  145 1    
    47   23  146 1    
    48   23  147 1    
    49   23  148 1    
    50   24   25 am   BACKBONE|DICT|INTERRES
    51   24  149 1    
    52   25   26 2    
    53   25   27 1    
    54   27   28 1    
    55   27   29 1    
    56   27  150 1    
    57   28  151 1    
    58   28  152 1    
    59   28  153 1    
    60   29   30 am   BACKBONE|DICT|INTERRES
    61   29  154 1    
    62   30   31 2    
    63   30   32 1    
    64   32   33 1    
    65   32   34 1    
    66   32  155 1    
    67   33  156 1    
    68   33  157 1    
    69   33  158 1    
    70   34   35 am   BACKBONE|DICT|INTERRES
    71   34  159 1    
    72   35   36 2    
    73   35   37 1    
    74   37   38 1    
    75   37   39 1    
    76   37  160 1    
    77   38  161 1    
    78   38  162 1    
    79   38  163 1    
    80   39   40 am   BACKBONE|DICT|INTERRES
    81   39  164 1    
    82   40   41 2    
    83   40   42 1    
    84   42   43 1    
    85   42   44 1    
    86   42  165 1    
    87   43  166 1    
    88   43  167 1    
    89   43  168 1    
    90   44   45 am   BACKBONE|DICT|INTERRES
    91   44  169 1    
    92   45   46 2    
    93   45   47 1    
    94   47   48 1    
    95   47   49 1    
    96   47  170 1    
    97   48  171 1    
    98   48  172 1    
    99   48  173 1    
   100   49   50 am   BACKBONE|DICT|INTERRES
   101   49  174 1    
   102   50   51 2    
   103   50   52 1    
   104   52   53 1    
   105   52   54 1    
   106   52  175 1    
   107   53  176 1    
   108   53  177 1    
   109   53  178 1    
   110   54   55 am   BACKBONE|DICT|INTERRES
   111   54  179 1    
   112   55   56 2    
   113   55   57 1    
   114   57   58 1    
   115   57   59 1    
   116   57  180 1    
   117   58  181 1    
   118   58  182 1    
   119   58  183 1    
   120   59   60 am   BACKBONE|DICT|INTERRES
   121   59  184 1    
   122   60   61 2    
   123   60   62 1    
   124   62   63 1    
   125   62   64 1    
   126   62  185 1    
   127   63  186 1    
   128   63  187 1    
   129   63  188 1    
   130   64   65 am   BACKBONE|DICT|INTERRES
   131   64  189 1    
   132   65   66 2    
   133   67   68 2    
   134   67   69 am   BACKBONE|DICT|INTERRES
   135   69   70 1    
   136   69  190 1    
   137   70   71 1    
   138   70   72 1    
   139   70  191 1    
   140   71  192 1    
   141   71  193 1    
   142   71  194 1    
   143   72   73 2    
   144   72   74 am   BACKBONE|DICT|INTERRES
   145   74   75 1    
   146   74  195 1    
   147   75   76 1    
   148   75   77 1    
   149   75  196 1    
   150   76  197 1    
   151   76  198 1    
   152   76  199 1    
   153   77   78 2    
   154   77   79 am   BACKBONE|DICT|INTERRES
   155   79   80 1    
   156   79  200 1    
   157   80   81 1    
   158   80   82 1    
   159   80  201 1    
   160   81  202 1    
   161   81  203 1    
   162   81  204 1    
   163   82   83 2    
   164   82   84 am   BACKBONE|DICT|INTERRES
   165   84   85 1    
   166   84  205 1    
   167   85   86 1    
   168   85   87 1    
   169   85  206 1    
   170   86  207 1    
   171   86  208 1    
   172   86  209 1    
   173   87   88 2    
   174   87   89 am   BACKBONE|DICT|INTERRES
   175   89   90 1    
   176   89  210 1    
   177   90   91 1    
   178   90   92 1    
   179   90  211 1    
   180   91  212 1    
   181   91  213 1    
   182   91  214 1    
   183   92   93 2    
   184   92   94 am   BACKBONE|DICT|INTERRES
   185   94   95 1    
   186   94  215 1    
   187   95   96 1    
   188   95   97 1    
   189   95  216 1    
   190   96  217 1    
   191   96  218 1    
   192   96  219 1    
   193   97   98 2    
   194   97   99 am   BACKBONE|DICT|INTERRES
   195   99  100 1    
   196   99  220 1    
   197  100  101 1    
   198  100  102 1    
   199  100  221 1    
   200  101  222 1    
   201  101  223 1    
   202  101  224 1    
   203  102  103 2    
   204  102  104 am   BACKBONE|DICT|INTERRES
   205  104  105 1    
   206  104  225 1    
   207  105  106 1    
   208  105  107 1    
   209  105  226 1    
   210  106  227 1    
   211  106  228 1    
   212  106  229 1    
   213  107  108 2    
   214  107  109 am   BACKBONE|DICT|INTERRES
   215  109  110 1    
   216  109  230 1    
   217  110  111 1    
   218  110  112 1    
   219  110  231 1    
   220  111  232 1    
   221  111  233 1    
   222  111  234 1    
   223  112  113 2    
   224  112  114 am   BACKBONE|DICT|INTERRES
   225  114  115 1    
   226  114  235 1    
   227  115  116 1    
   228  115  117 1    
   229  115  236 1    
   230  116  237 1    
   231  116  238 1    
   232  116  239 1    
   233  117  118 2    
   234  117  119 am   BACKBONE|DICT|INTERRES
   235  119  120 1    
   236  119  240 1    
   237  120  121 1    
   238  120  124 1    
   239  120  241 1    
   240  121  122 am   BACKBONE|DICT|INTERRES
   241  121  123 2    
   242  122  242 1    
   243  122  243 1    
   244  124  125 1    
   245  124  244 1    
   246  124  245 1    
   247  125  126 1    
   248  126  246 1    
   249  126  247 1    
@<TRIPOS>SUBSTRUCTURE
     1 UNK         1 GROUP             0       ****    0 ROOT    
