@<TRIPOS>MOLECULE
3R540
247   249    1
SMALL
USER_CHARGES


@<TRIPOS>ATOM
      1 CA          5.1835  -13.5933  -45.5513 C.3       0 UNK        -0.1800 
      2 C           3.7089  -13.3049  -45.3171 C.2       0 UNK         0.5000 
      3 O           3.2390  -13.4029  -44.1829 O.2       0 UNK        -0.5000 
      4 N           2.9860  -12.9351  -46.3828 N.am      1 UNK        -0.5000 
      5 CA          1.5581  -12.5860  -46.3636 C.3       1 UNK         0.1400 
      6 C6          0.9434  -12.4976  -47.7842 C.3       23 UNK        -0.0398 
      7 S7          1.2974  -13.9531  -48.8293 S.3       23 UNK        -0.2404 
      8 C8         -0.2368  -14.9212  -48.6633 C.3       23 UNK        -0.0205 
      9 C9         -0.1939  -16.2038  -49.4861 C.ar      23 UNK        -0.0193 
     10 C10        -1.1825  -16.4535  -50.4411 C.ar      23 UNK        -0.1150 
     11 C11        -1.1406  -17.6094  -51.2250 C.ar      23 UNK        -0.0193 
     12 C12        -0.0971  -18.5238  -51.0501 C.ar      23 UNK        -0.1150 
     13 C13         0.8963  -18.2932  -50.0919 C.ar      23 UNK        -0.0193 
     14 C14         0.8326  -17.1378  -49.3055 C.ar      23 UNK        -0.1150 
     15 C15         2.0761  -19.2501  -49.9502 C.3       23 UNK        -0.0205 
     16 S16         1.5868  -20.9658  -49.5773 S.3       23 UNK        -0.2404 
     17 C17         0.9911  -20.8053  -47.8621 C.3       23 UNK        -0.0398 
     18 CA          0.1852  -22.0359  -47.3730 C.3       11 UNK         0.1400 
     19 N          -0.0347  -21.9767  -45.9253 N.am      11 UNK        -0.5000 
     20 C          -0.6486  -22.9075  -45.1785 C.2       10 UNK         0.5000 
     21 O          -1.0433  -23.9893  -45.6091 O.2       10 UNK        -0.5000 
     22 CA         -0.9246  -22.5295  -43.7112 C.3       10 UNK         0.1400 
     23 CB          0.2630  -22.9175  -42.8190 C.3       10 UNK        -0.1800 
     24 N          -1.2020  -21.1013  -43.5527 N.am      10 UNK        -0.5000 
     25 C          -2.2374  -20.4491  -44.0958 C.2       9 UNK         0.5000 
     26 O          -3.1331  -21.0030  -44.7342 O.2       9 UNK        -0.5000 
     27 CA         -2.2191  -18.9141  -43.9843 C.3       9 UNK         0.1400 
     28 CB         -2.2861  -18.4360  -42.5195 C.3       9 UNK        -0.1800 
     29 N          -1.0935  -18.3055  -44.7107 N.am      9 UNK        -0.5000 
     30 C           0.2158  -18.3888  -44.4344 C.2       8 UNK         0.5000 
     31 O           0.6839  -19.0240  -43.4851 O.2       8 UNK        -0.5000 
     32 CA          1.1669  -17.6529  -45.3887 C.3       8 UNK         0.1400 
     33 CB          0.9606  -16.1302  -45.3378 C.3       8 UNK        -0.1800 
     34 N           2.5392  -17.9545  -45.0073 N.am      8 UNK        -0.5000 
     35 C           3.6294  -17.7750  -45.7586 C.2       7 UNK         0.5000 
     36 O           3.6005  -17.4603  -46.9479 O.2       7 UNK        -0.5000 
     37 CA          4.9624  -17.8740  -45.0027 C.3       7 UNK         0.1400 
     38 CB          6.1894  -17.5289  -45.8706 C.3       7 UNK        -0.1800 
     39 N           4.8633  -16.9727  -43.8574 N.am      7 UNK        -0.5000 
     40 C           5.5774  -17.0281  -42.7299 C.2       6 UNK         0.5000 
     41 O           6.4946  -17.8253  -42.5319 O.2       6 UNK        -0.5000 
     42 CA          5.1693  -16.0331  -41.6252 C.3       6 UNK         0.1400 
     43 CB          5.9438  -14.7174  -41.7712 C.3       6 UNK        -0.1800 
     44 N           3.7234  -15.7632  -41.6085 N.am      6 UNK        -0.5000 
     45 C           2.8209  -16.6558  -41.1714 C.2       5 UNK         0.5000 
     46 O           3.1386  -17.7587  -40.7241 O.2       5 UNK        -0.5000 
     47 CA          1.3290  -16.2833  -41.2479 C.3       5 UNK         0.1400 
     48 CB          0.5170  -16.8471  -40.0649 C.3       5 UNK        -0.1800 
     49 N           1.0934  -14.8441  -41.3642 N.am      5 UNK        -0.5000 
     50 C           0.0419  -14.3073  -41.9937 C.2       4 UNK         0.5000 
     51 O          -0.7678  -14.9667  -42.6459 O.2       4 UNK        -0.5000 
     52 CA         -0.1776  -12.7890  -41.8686 C.3       4 UNK         0.1400 
     53 CB         -0.9445  -12.4482  -40.5767 C.3       4 UNK        -0.1800 
     54 N           1.0238  -11.9609  -42.0102 N.am      4 UNK        -0.5000 
     55 C           2.0894  -11.8447  -41.2040 C.2       3 UNK         0.5000 
     56 O           2.2524  -12.5256  -40.1902 O.2       3 UNK        -0.5000 
     57 CA          3.1548  -10.7998  -41.6021 C.3       3 UNK         0.1400 
     58 CB          4.5833  -11.3369  -41.4295 C.3       3 UNK        -0.1800 
     59 N           2.9950  -10.3661  -42.9895 N.am      3 UNK        -0.5000 
     60 C           2.3948   -9.2411  -43.3980 C.2       2 UNK         0.5000 
     61 O           1.9586   -8.3793  -42.6348 O.2       2 UNK        -0.5000 
     62 CA          2.2285   -9.0652  -44.9213 C.3       2 UNK         0.1400 
     63 CB          3.3301   -8.1517  -45.4796 C.3       2 UNK        -0.1800 
     64 N           2.2464  -10.3349  -45.6557 N.am      2 UNK        -0.5000 
     65 C           1.2961  -11.2797  -45.5860 C.2       1 UNK         0.5000 
     66 O           0.2744  -11.1664  -44.9090 O.2       1 UNK        -0.5000 
     67 C          -1.1471  -22.1851  -48.1386 C.2       11 UNK         0.5000 
     68 O          -1.2896  -23.1020  -48.9473 O.2       11 UNK        -0.5000 
     69 N          -2.1118  -21.3059  -47.8294 N.am      12 UNK        -0.5000 
     70 CA         -3.4471  -21.3136  -48.4219 C.3       12 UNK         0.1400 
     71 CB         -4.1888  -20.0205  -48.0552 C.3       12 UNK        -0.1800 
     72 C          -4.2583  -22.5527  -48.0124 C.2       12 UNK         0.5000 
     73 O          -4.9227  -23.1395  -48.8656 O.2       12 UNK        -0.5000 
     74 N          -4.1640  -22.9493  -46.7353 N.am      13 UNK        -0.5000 
     75 CA         -4.8095  -24.1439  -46.1881 C.3       13 UNK         0.1400 
     76 CB         -4.6023  -24.1965  -44.6675 C.3       13 UNK        -0.1800 
     77 C          -4.3226  -25.4423  -46.8578 C.2       13 UNK         0.5000 
     78 O          -5.1496  -26.2476  -47.2879 O.2       13 UNK        -0.5000 
     79 N          -2.9962  -25.5957  -46.9876 N.am      14 UNK        -0.5000 
     80 CA         -2.3466  -26.7183  -47.6715 C.3       14 UNK         0.1400 
     81 CB         -0.8281  -26.6388  -47.4548 C.3       14 UNK        -0.1800 
     82 C          -2.6719  -26.7788  -49.1757 C.2       14 UNK         0.5000 
     83 O          -2.7724  -27.8711  -49.7346 O.2       14 UNK        -0.5000 
     84 N          -2.8719  -25.6063  -49.7894 N.am      15 UNK        -0.5000 
     85 CA         -3.2901  -25.4330  -51.1788 C.3       15 UNK         0.1400 
     86 CB         -2.7359  -24.0962  -51.6929 C.3       15 UNK        -0.1800 
     87 C          -4.8173  -25.5347  -51.3878 C.2       15 UNK         0.5000 
     88 O          -5.2874  -25.1857  -52.4711 O.2       15 UNK        -0.5000 
     89 N          -5.5612  -26.0045  -50.3736 N.am      16 UNK        -0.5000 
     90 CA         -7.0079  -26.2449  -50.3665 C.3       16 UNK         0.1400 
     91 CB         -7.3854  -27.3505  -51.3754 C.3       16 UNK        -0.1800 
     92 C          -7.8134  -24.9465  -50.5611 C.2       16 UNK         0.5000 
     93 O          -8.5629  -24.8139  -51.5292 O.2       16 UNK        -0.5000 
     94 N          -7.6053  -23.9975  -49.6382 N.am      17 UNK        -0.5000 
     95 CA         -8.1439  -22.6315  -49.6349 C.3       17 UNK         0.1400 
     96 CB         -9.6831  -22.6287  -49.5231 C.3       17 UNK        -0.1800 
     97 C          -7.6094  -21.8092  -50.8250 C.2       17 UNK         0.5000 
     98 O          -8.3639  -21.0945  -51.4859 O.2       17 UNK        -0.5000 
     99 N          -6.3008  -21.9622  -51.0728 N.am      18 UNK        -0.5000 
    100 CA        -5.4916  -21.3478  -52.1287 C.3       18 UNK         0.1400 
    101 CB        -5.4710  -19.8125  -51.9913 C.3       18 UNK        -0.1800 
    102 C         -5.8348  -21.7932  -53.5649 C.2       18 UNK         0.5000 
    103 O         -5.2536  -21.2485  -54.5037 O.2       18 UNK        -0.5000 
    104 N         -6.7208  -22.7838  -53.7361 N.am      19 UNK        -0.5000 
    105 CA        -7.1745  -23.2942  -55.0332 C.3       19 UNK         0.1400 
    106 CB        -8.2752  -24.3406  -54.8076 C.3       19 UNK        -0.1800 
    107 C         -6.0460  -23.8811  -55.9023 C.2       19 UNK         0.5000 
    108 O         -6.0642  -23.7053  -57.1210 O.2       19 UNK        -0.5000 
    109 N         -5.0752  -24.5401  -55.2586 N.am      20 UNK        -0.5000 
    110 CA        -3.8877  -25.1109  -55.8965 C.3       20 UNK         0.1400 
    111 CB        -3.4918  -26.3869  -55.1357 C.3       20 UNK        -0.1800 
    112 C         -2.7022  -24.1239  -55.9659 C.2       20 UNK         0.5000 
    113 O         -1.6417  -24.5062  -56.4631 O.2       20 UNK        -0.5000 
    114 N         -2.8774  -22.8967  -55.4577 N.am      21 UNK        -0.5000 
    115 CA        -1.8561  -21.8559  -55.3941 C.3       21 UNK         0.1400 
    116 CB        -1.4950  -21.5884  -53.9173 C.3       21 UNK        -0.1800 
    117 C         -2.3570  -20.6131  -56.1477 C.2       21 UNK         0.5000 
    118 O         -2.3031  -20.5920  -57.3782 O.2       21 UNK        -0.5000 
    119 N         -2.8105  -19.5993  -55.4023 N.am      22 UNK        -0.5000 
    120 CA        -3.2662  -18.2969  -55.9114 C.3       22 UNK         0.1400 
    121 C         -4.5920  -18.3351  -56.7259 C.2       22 UNK         0.5000 
    122 N         -5.4438  -19.3389  -56.5635 N.am      22 UNK        -0.7600 
    123 O         -4.8485  -17.4356  -57.5217 O.2       22 UNK        -0.5000 
    124 C124       -3.3658  -17.2442  -54.7776 C.3       23 UNK        -0.0398 
    125 S125       -1.8110  -17.0340  -53.8400 S.3       23 UNK        -0.2404 
    126 C126       -2.2198  -17.8535  -52.2665 C.3       23 UNK        -0.0205 
    127 H127        5.4289  -13.6146  -46.6132 H         1 UNK         0.0600 
    128 H128        5.7937  -12.8275  -45.0729 H         1 UNK         0.0600 
    129 H129        5.4520  -14.5568  -45.1232 H         1 UNK         0.0600 
    130 H130        3.4249  -12.9071  -47.2924 H         1 UNK         0.3000 
    131 H131        1.0338  -13.3749  -45.8232 H         1 UNK         0.0600 
    132 H132        1.3317  -11.6240  -48.3112 H         1 UNK         0.0800 
    133 H133       -0.1369  -12.3539  -47.7230 H         1 UNK         0.0800 
    134 H134       -0.4087  -15.1701  -47.6184 H         1 UNK         0.0800 
    135 H135       -1.0771  -14.2978  -48.9729 H         1 UNK         0.0800 
    136 H136       -1.9814  -15.7402  -50.5888 H         1 UNK         0.1150 
    137 H137       -0.0485  -19.4094  -51.6681 H         1 UNK         0.1150 
    138 H138        1.6054  -16.9405  -48.5761 H         1 UNK         0.1150 
    139 H139        2.6363  -19.2453  -50.8859 H         1 UNK         0.0800 
    140 H140        2.7684  -18.9045  -49.1806 H         1 UNK         0.0800 
    141 H141        0.3954  -19.8958  -47.7752 H         1 UNK         0.0800 
    142 H142        1.8670  -20.6575  -47.2285 H         1 UNK         0.0800 
    143 H143        0.7775  -22.9330  -47.5660 H         1 UNK         0.0600 
    144 H144        0.2611  -21.1343  -45.4573 H         1 UNK         0.3000 
    145 H145       -1.8028  -23.0842  -43.3771 H         1 UNK         0.0600 
    146 H146        0.0485  -22.7162  -41.7693 H         1 UNK         0.0600 
    147 H147        0.4861  -23.9816  -42.9067 H         1 UNK         0.0600 
    148 H148        1.1660  -22.3676  -43.0877 H         1 UNK         0.0600 
    149 H149       -0.4754  -20.5370  -43.1219 H         1 UNK         0.3000 
    150 H150       -3.1228  -18.5552  -44.4797 H         1 UNK         0.0600 
    151 H151       -3.1756  -18.8275  -42.0247 H         1 UNK         0.0600 
    152 H152       -2.3370  -17.3484  -42.4655 H         1 UNK         0.0600 
    153 H153       -1.4237  -18.7552  -41.9344 H         1 UNK         0.0600 
    154 H154       -1.3681  -17.7575  -45.5139 H         1 UNK         0.3000 
    155 H155        0.9786  -18.0171  -46.3994 H         1 UNK         0.0600 
    156 H156        1.5143  -15.6450  -46.1409 H         1 UNK         0.0600 
    157 H157        1.3124  -15.7079  -44.3966 H         1 UNK         0.0600 
    158 H158       -0.0878  -15.8529  -45.4448 H         1 UNK         0.0600 
    159 H159        2.6318  -18.3010  -44.0598 H         1 UNK         0.3000 
    160 H160        5.0613  -18.9006  -44.6442 H         1 UNK         0.0600 
    161 H161        6.1268  -16.5199  -46.2778 H         1 UNK         0.0600 
    162 H162        6.2731  -18.2165  -46.7129 H         1 UNK         0.0600 
    163 H163        7.1151  -17.6032  -45.3001 H         1 UNK         0.0600 
    164 H164        4.1195  -16.2906  -43.9132 H         1 UNK         0.3000 
    165 H165        5.4490  -16.4756  -40.6665 H         1 UNK         0.0600 
    166 H166        5.6926  -14.2041  -42.6985 H         1 UNK         0.0600 
    167 H167        5.7337  -14.0467  -40.9385 H         1 UNK         0.0600 
    168 H168        7.0197  -14.8961  -41.7776 H         1 UNK         0.0600 
    169 H169        3.4091  -14.8841  -41.9969 H         1 UNK         0.3000 
    170 H170        0.9673  -16.7662  -42.1544 H         1 UNK         0.0600 
    171 H171        0.6218  -17.9302  -39.9920 H         1 UNK         0.0600 
    172 H172        0.8425  -16.4167  -39.1174 H         1 UNK         0.0600 
    173 H173       -0.5471  -16.6398  -40.1801 H         1 UNK         0.0600 
    174 H174        1.6918  -14.2234  -40.8243 H         1 UNK         0.3000 
    175 H175       -0.8182  -12.5050  -42.7050 H         1 UNK         0.0600 
    176 H176       -1.1751  -11.3842  -40.5242 H         1 UNK         0.0600 
    177 H177       -1.8911  -12.9883  -40.5337 H         1 UNK         0.0600 
    178 H178       -0.3794  -12.7144  -39.6831 H         1 UNK         0.0600 
    179 H179        1.0253  -11.3936  -42.8483 H         1 UNK         0.3000 
    180 H180        3.0310   -9.9523  -40.9252 H         1 UNK         0.0600 
    181 H181        4.7792  -12.1529  -42.1224 H         1 UNK         0.0600 
    182 H182        4.7563  -11.7040  -40.4172 H         1 UNK         0.0600 
    183 H183        5.3200  -10.5565  -41.6200 H         1 UNK         0.0600 
    184 H184        3.2844  -11.0352  -43.6898 H         1 UNK         0.3000 
    185 H185        1.2629   -8.5852  -45.0940 H         1 UNK         0.0600 
    186 H186        3.1840   -7.9614  -46.5430 H         1 UNK         0.0600 
    187 H187        3.3288   -7.1846  -44.9749 H         1 UNK         0.0600 
    188 H188        4.3208   -8.5890  -45.3485 H         1 UNK         0.0600 
    189 H189        3.0591  -10.5140  -46.2278 H         1 UNK         0.3000 
    190 H190       -1.9422  -20.6211  -47.1096 H         1 UNK         0.3000 
    191 H191       -3.3327  -21.3368  -49.5076 H         1 UNK         0.0600 
    192 H192       -3.6577  -19.1437  -48.4265 H         1 UNK         0.0600 
    193 H193       -5.1867  -20.0060  -48.4955 H         1 UNK         0.0600 
    194 H194       -4.3059  -19.9115  -46.9766 H         1 UNK         0.0600 
    195 H195       -3.6315  -22.3788  -46.0860 H         1 UNK         0.3000 
    196 H196       -5.8809  -24.0535  -46.3785 H         1 UNK         0.0600 
    197 H197       -5.1401  -25.0387  -44.2307 H         1 UNK         0.0600 
    198 H198       -4.9697  -23.2897  -44.1865 H         1 UNK         0.0600 
    199 H199       -3.5505  -24.3110  -44.4079 H         1 UNK         0.0600 
    200 H200       -2.3756  -24.8962  -46.5863 H         1 UNK         0.3000 
    201 H201       -2.7097  -27.6422  -47.2169 H         1 UNK         0.0600 
    202 H202       -0.5789  -26.6823  -46.3945 H         1 UNK         0.0600 
    203 H203       -0.4140  -25.7136  -47.8581 H         1 UNK         0.0600 
    204 H204       -0.3177  -27.4697  -47.9434 H         1 UNK         0.0600 
    205 H205       -2.7252  -24.7553  -49.2594 H         1 UNK         0.3000 
    206 H206       -2.8427  -26.2281  -51.7775 H         1 UNK         0.0600 
    207 H207       -1.6464  -24.0893  -51.6613 H         1 UNK         0.0600 
    208 H208       -3.0299  -23.9078  -52.7252 H         1 UNK         0.0600 
    209 H209       -3.0868  -23.2635  -51.0859 H         1 UNK         0.0600 
    210 H210       -5.0897  -26.2084  -49.5011 H         1 UNK         0.3000 
    211 H211       -7.2530  -26.6158  -49.3702 H         1 UNK         0.0600 
    212 H212       -7.1951  -27.0486  -52.4057 H         1 UNK         0.0600 
    213 H213       -8.4447  -27.5986  -51.3005 H         1 UNK         0.0600 
    214 H214       -6.8233  -28.2648  -51.1855 H         1 UNK         0.0600 
    215 H215       -6.8877  -24.1730  -48.9460 H         1 UNK         0.3000 
    216 H216       -7.7512  -22.1528  -48.7365 H         1 UNK         0.0600 
    217 H217      -10.0175  -23.2234  -48.6732 H         1 UNK         0.0600 
    218 H218      -10.1599  -23.0257  -50.4195 H         1 UNK         0.0600 
    219 H219      -10.0593  -21.6155  -49.3780 H         1 UNK         0.0600 
    220 H220       -5.7935  -22.5765  -50.4404 H         1 UNK         0.3000 
    221 H221       -4.4738  -21.6929  -51.9575 H         1 UNK         0.0600 
    222 H222       -5.1451  -19.5078  -50.9972 H         1 UNK         0.0600 
    223 H223       -4.7824  -19.3661  -52.7073 H         1 UNK         0.0600 
    224 H224       -6.4517  -19.3735  -52.1743 H         1 UNK         0.0600 
    225 H225       -7.1170  -23.2241  -52.9166 H         1 UNK         0.3000 
    226 H226       -7.6082  -22.4552  -55.5808 H         1 UNK         0.0600 
    227 H227       -9.1162  -23.9168  -54.2583 H         1 UNK         0.0600 
    228 H228       -8.6608  -24.7157  -55.7564 H         1 UNK         0.0600 
    229 H229       -7.9030  -25.1957  -54.2415 H         1 UNK         0.0600 
    230 H230       -5.1592  -24.6676  -54.2512 H         1 UNK         0.3000 
    231 H231       -4.1297  -25.3970  -56.9220 H         1 UNK         0.0600 
    232 H232       -4.3294  -27.0809  -55.0625 H         1 UNK         0.0600 
    233 H233       -3.1540  -26.1608  -54.1255 H         1 UNK         0.0600 
    234 H234       -2.6802  -26.9103  -55.6423 H         1 UNK         0.0600 
    235 H235       -3.8030  -22.6255  -55.1473 H         1 UNK         0.3000 
    236 H236       -0.9440  -22.1728  -55.9035 H         1 UNK         0.0600 
    237 H237       -1.0028  -22.4567  -53.4799 H         1 UNK         0.0600 
    238 H238       -0.8003  -20.7524  -53.8244 H         1 UNK         0.0600 
    239 H239       -2.3731  -21.3676  -53.3103 H         1 UNK         0.0600 
    240 H240       -2.8425  -19.7177  -54.4032 H         1 UNK         0.3000 
    241 H241       -2.4995  -17.9502  -56.6071 H         1 UNK         0.0600 
    242 H242       -6.2955  -19.3583  -57.1001 H         1 UNK         0.3800 
    243 H243       -5.2661  -20.0655  -55.8724 H         1 UNK         0.3800 
    244 H244       -3.6204  -16.2689  -55.1963 H         1 UNK         0.0800 
    245 H245       -4.1787  -17.4933  -54.0944 H         1 UNK         0.0800 
    246 H246       -3.1748  -17.4794  -51.8939 H         1 UNK         0.0800 
    247 H247       -2.3462  -18.9239  -52.4293 H         1 UNK         0.0800 
@<TRIPOS>BOND
     1    1    2 1    
     2    1  127 1    
     3    1  128 1    
     4    1  129 1    
     5    2    3 2    
     6    2    4 am   BACKBONE|DICT|INTERRES
     7    4    5 1    
     8    4  130 1    
     9    5    6 1    
    10    5   65 1    
    11    5  131 1    
    12    6    7 1    
    13    6  132 1    
    14    6  133 1    
    15    7    8 1    
    16    8    9 1    
    17    8  134 1    
    18    8  135 1    
    19    9   10 ar   
    20    9   14 ar   
    21   10   11 ar   
    22   10  136 1    
    23   11   12 ar   
    24   11  126 1    
    25   12   13 ar   
    26   12  137 1    
    27   13   14 ar   
    28   13   15 1    
    29   14  138 1    
    30   15   16 1    
    31   15  139 1    
    32   15  140 1    
    33   16   17 1    
    34   17   18 1    
    35   17  141 1    
    36   17  142 1    
    37   18   19 1    
    38   18   67 1    
    39   18  143 1    
    40   19   20 am   BACKBONE|DICT|INTERRES
    41   19  144 1    
    42   20   21 2    
    43   20   22 1    
    44   22   23 1    
    45   22   24 1    
    46   22  145 1    
    47   23  146 1    
    48   23  147 1    
    49   23  148 1    
    50   24   25 am   BACKBONE|DICT|INTERRES
    51   24  149 1    
    52   25   26 2    
    53   25   27 1    
    54   27   28 1    
    55   27   29 1    
    56   27  150 1    
    57   28  151 1    
    58   28  152 1    
    59   28  153 1    
    60   29   30 am   BACKBONE|DICT|INTERRES
    61   29  154 1    
    62   30   31 2    
    63   30   32 1    
    64   32   33 1    
    65   32   34 1    
    66   32  155 1    
    67   33  156 1    
    68   33  157 1    
    69   33  158 1    
    70   34   35 am   BACKBONE|DICT|INTERRES
    71   34  159 1    
    72   35   36 2    
    73   35   37 1    
    74   37   38 1    
    75   37   39 1    
    76   37  160 1    
    77   38  161 1    
    78   38  162 1    
    79   38  163 1    
    80   39   40 am   BACKBONE|DICT|INTERRES
    81   39  164 1    
    82   40   41 2    
    83   40   42 1    
    84   42   43 1    
    85   42   44 1    
    86   42  165 1    
    87   43  166 1    
    88   43  167 1    
    89   43  168 1    
    90   44   45 am   BACKBONE|DICT|INTERRES
    91   44  169 1    
    92   45   46 2    
    93   45   47 1    
    94   47   48 1    
    95   47   49 1    
    96   47  170 1    
    97   48  171 1    
    98   48  172 1    
    99   48  173 1    
   100   49   50 am   BACKBONE|DICT|INTERRES
   101   49  174 1    
   102   50   51 2    
   103   50   52 1    
   104   52   53 1    
   105   52   54 1    
   106   52  175 1    
   107   53  176 1    
   108   53  177 1    
   109   53  178 1    
   110   54   55 am   BACKBONE|DICT|INTERRES
   111   54  179 1    
   112   55   56 2    
   113   55   57 1    
   114   57   58 1    
   115   57   59 1    
   116   57  180 1    
   117   58  181 1    
   118   58  182 1    
   119   58  183 1    
   120   59   60 am   BACKBONE|DICT|INTERRES
   121   59  184 1    
   122   60   61 2    
   123   60   62 1    
   124   62   63 1    
   125   62   64 1    
   126   62  185 1    
   127   63  186 1    
   128   63  187 1    
   129   63  188 1    
   130   64   65 am   BACKBONE|DICT|INTERRES
   131   64  189 1    
   132   65   66 2    
   133   67   68 2    
   134   67   69 am   BACKBONE|DICT|INTERRES
   135   69   70 1    
   136   69  190 1    
   137   70   71 1    
   138   70   72 1    
   139   70  191 1    
   140   71  192 1    
   141   71  193 1    
   142   71  194 1    
   143   72   73 2    
   144   72   74 am   BACKBONE|DICT|INTERRES
   145   74   75 1    
   146   74  195 1    
   147   75   76 1    
   148   75   77 1    
   149   75  196 1    
   150   76  197 1    
   151   76  198 1    
   152   76  199 1    
   153   77   78 2    
   154   77   79 am   BACKBONE|DICT|INTERRES
   155   79   80 1    
   156   79  200 1    
   157   80   81 1    
   158   80   82 1    
   159   80  201 1    
   160   81  202 1    
   161   81  203 1    
   162   81  204 1    
   163   82   83 2    
   164   82   84 am   BACKBONE|DICT|INTERRES
   165   84   85 1    
   166   84  205 1    
   167   85   86 1    
   168   85   87 1    
   169   85  206 1    
   170   86  207 1    
   171   86  208 1    
   172   86  209 1    
   173   87   88 2    
   174   87   89 am   BACKBONE|DICT|INTERRES
   175   89   90 1    
   176   89  210 1    
   177   90   91 1    
   178   90   92 1    
   179   90  211 1    
   180   91  212 1    
   181   91  213 1    
   182   91  214 1    
   183   92   93 2    
   184   92   94 am   BACKBONE|DICT|INTERRES
   185   94   95 1    
   186   94  215 1    
   187   95   96 1    
   188   95   97 1    
   189   95  216 1    
   190   96  217 1    
   191   96  218 1    
   192   96  219 1    
   193   97   98 2    
   194   97   99 am   BACKBONE|DICT|INTERRES
   195   99  100 1    
   196   99  220 1    
   197  100  101 1    
   198  100  102 1    
   199  100  221 1    
   200  101  222 1    
   201  101  223 1    
   202  101  224 1    
   203  102  103 2    
   204  102  104 am   BACKBONE|DICT|INTERRES
   205  104  105 1    
   206  104  225 1    
   207  105  106 1    
   208  105  107 1    
   209  105  226 1    
   210  106  227 1    
   211  106  228 1    
   212  106  229 1    
   213  107  108 2    
   214  107  109 am   BACKBONE|DICT|INTERRES
   215  109  110 1    
   216  109  230 1    
   217  110  111 1    
   218  110  112 1    
   219  110  231 1    
   220  111  232 1    
   221  111  233 1    
   222  111  234 1    
   223  112  113 2    
   224  112  114 am   BACKBONE|DICT|INTERRES
   225  114  115 1    
   226  114  235 1    
   227  115  116 1    
   228  115  117 1    
   229  115  236 1    
   230  116  237 1    
   231  116  238 1    
   232  116  239 1    
   233  117  118 2    
   234  117  119 am   BACKBONE|DICT|INTERRES
   235  119  120 1    
   236  119  240 1    
   237  120  121 1    
   238  120  124 1    
   239  120  241 1    
   240  121  122 am   BACKBONE|DICT|INTERRES
   241  121  123 2    
   242  122  242 1    
   243  122  243 1    
   244  124  125 1    
   245  124  244 1    
   246  124  245 1    
   247  125  126 1    
   248  126  246 1    
   249  126  247 1    
@<TRIPOS>SUBSTRUCTURE
     1 UNK         1 GROUP             0       ****    0 ROOT    
