@<TRIPOS>MOLECULE
3R540
247   249    1
SMALL
USER_CHARGES


@<TRIPOS>ATOM
      1 CA          2.8078  -11.3192  -49.8454 C.3       0 UNK        -0.1800 
      2 C           1.5141  -11.3948  -49.0364 C.2       0 UNK         0.5000 
      3 O           1.0702  -10.3730  -48.5168 O.2       0 UNK        -0.5000 
      4 N           0.8675  -12.5621  -48.9034 N.am      1 UNK        -0.5000 
      5 CA          1.2662  -13.8759  -49.4326 C.3       1 UNK         0.1400 
      6 C6          0.1297  -14.9175  -49.2964 C.3       23 UNK        -0.0398 
      7 S7         -1.3964  -14.4200  -50.1623 S.3       23 UNK        -0.2404 
      8 C8         -1.3759  -15.5284  -51.6055 C.3       23 UNK        -0.0205 
      9 C9         -1.6888  -16.9676  -51.2234 C.ar      23 UNK        -0.0193 
     10 C10        -2.9993  -17.3385  -50.9119 C.ar      23 UNK        -0.1150 
     11 C11        -3.3062  -18.6614  -50.5833 C.ar      23 UNK        -0.0193 
     12 C12        -2.2810  -19.6112  -50.5415 C.ar      23 UNK        -0.1150 
     13 C13        -0.9638  -19.2527  -50.8443 C.ar      23 UNK        -0.0193 
     14 C14        -0.6768  -17.9314  -51.1972 C.ar      23 UNK        -0.1150 
     15 C15         0.1429  -20.2983  -50.8093 C.3       23 UNK        -0.0205 
     16 S16         1.4569  -19.9277  -49.5942 S.3       23 UNK        -0.2404 
     17 C17         0.5497  -19.7753  -48.0168 C.3       23 UNK        -0.0398 
     18 CA          0.4209  -21.1155  -47.2477 C.3       11 UNK         0.1400 
     19 N           0.3139  -20.9210  -45.7979 N.am      11 UNK        -0.5000 
     20 C           0.3971  -21.9022  -44.8859 C.2       10 UNK         0.5000 
     21 O           0.6512  -23.0732  -45.1633 O.2       10 UNK        -0.5000 
     22 CA          0.0949  -21.5236  -43.4234 C.3       10 UNK         0.1400 
     23 CB          1.3713  -21.0714  -42.7045 C.3       10 UNK        -0.1800 
     24 N          -0.9338  -20.4864  -43.3139 N.am      10 UNK        -0.5000 
     25 C          -2.2192  -20.6893  -43.6386 C.2       9 UNK         0.5000 
     26 O          -2.6624  -21.7760  -44.0091 O.2       9 UNK        -0.5000 
     27 CA         -3.1542  -19.4689  -43.5965 C.3       9 UNK         0.1400 
     28 CB         -3.6524  -19.2177  -42.1659 C.3       9 UNK        -0.1800 
     29 N          -2.5319  -18.2487  -44.1077 N.am      9 UNK        -0.5000 
     30 C          -2.0443  -18.0617  -45.3401 C.2       8 UNK         0.5000 
     31 O          -2.0713  -18.9308  -46.2101 O.2       8 UNK        -0.5000 
     32 CA         -1.3686  -16.7084  -45.6551 C.3       8 UNK         0.1400 
     33 CB         -2.3316  -15.7784  -46.4170 C.3       8 UNK        -0.1800 
     34 N          -0.7688  -16.0365  -44.4896 N.am      8 UNK        -0.5000 
     35 C          -1.3793  -15.5089  -43.4173 C.2       7 UNK         0.5000 
     36 O          -2.6032  -15.4448  -43.2965 O.2       7 UNK        -0.5000 
     37 CA         -0.4699  -15.0386  -42.2612 C.3       7 UNK         0.1400 
     38 CB         -1.2089  -15.0326  -40.9074 C.3       7 UNK        -0.1800 
     39 N           0.7878  -15.7868  -42.1350 N.am      7 UNK        -0.5000 
     40 C           0.9543  -17.1104  -41.9771 C.2       6 UNK         0.5000 
     41 O           0.0457  -17.9407  -42.0409 O.2       6 UNK        -0.5000 
     42 CA          2.3919  -17.5816  -41.7029 C.3       6 UNK         0.1400 
     43 CB          3.1999  -17.6556  -43.0079 C.3       6 UNK        -0.1800 
     44 N           3.0766  -16.6837  -40.7741 N.am      6 UNK        -0.5000 
     45 C           3.1187  -16.8364  -39.4438 C.2       5 UNK         0.5000 
     46 O           2.6193  -17.7916  -38.8483 O.2       5 UNK        -0.5000 
     47 CA          3.8484  -15.7411  -38.6380 C.3       5 UNK         0.1400 
     48 CB          5.3160  -16.1336  -38.4081 C.3       5 UNK        -0.1800 
     49 N           3.8047  -14.4294  -39.2872 N.am      5 UNK        -0.5000 
     50 C           2.7135  -13.6548  -39.3610 C.2       4 UNK         0.5000 
     51 O           1.6531  -13.9201  -38.7955 O.2       4 UNK        -0.5000 
     52 CA          2.8090  -12.3790  -40.2252 C.3       4 UNK         0.1400 
     53 CB          3.0310  -11.1460  -39.3360 C.3       4 UNK        -0.1800 
     54 N           3.8478  -12.4093  -41.2635 N.am      4 UNK        -0.5000 
     55 C           3.9120  -13.2903  -42.2703 C.2       3 UNK         0.5000 
     56 O           3.1311  -14.2369  -42.3924 O.2       3 UNK        -0.5000 
     57 CA          5.0797  -13.1155  -43.2617 C.3       3 UNK         0.1400 
     58 CB          6.3881  -13.6171  -42.6293 C.3       3 UNK        -0.1800 
     59 N           4.8702  -13.8360  -44.5200 N.am      3 UNK        -0.5000 
     60 C           3.9014  -13.5779  -45.4070 C.2       2 UNK         0.5000 
     61 O           3.1029  -12.6416  -45.3010 O.2       2 UNK        -0.5000 
     62 CA          3.8129  -14.5278  -46.6136 C.3       2 UNK         0.1400 
     63 CB          3.5564  -15.9858  -46.1802 C.3       2 UNK        -0.1800 
     64 N           2.7307  -14.0771  -47.4785 N.am      2 UNK        -0.5000 
     65 C           2.5334  -14.4317  -48.7518 C.2       1 UNK         0.5000 
     66 O           3.2915  -15.1656  -49.3858 O.2       1 UNK        -0.5000 
     67 C          -0.7657  -21.9481  -47.7665 C.2       11 UNK         0.5000 
     68 O          -0.5560  -22.9294  -48.4783 O.2       11 UNK        -0.5000 
     69 N          -1.9842  -21.5677  -47.3539 N.am      12 UNK        -0.5000 
     70 CA         -3.2329  -22.2648  -47.6583 C.3       12 UNK         0.1400 
     71 CB         -4.4156  -21.4940  -47.0517 C.3       12 UNK        -0.1800 
     72 C          -3.2279  -23.7241  -47.1733 C.2       12 UNK         0.5000 
     73 O          -3.6240  -24.6091  -47.9305 O.2       12 UNK        -0.5000 
     74 N          -2.7417  -23.9502  -45.9455 N.am      13 UNK        -0.5000 
     75 CA         -2.5707  -25.2738  -45.3495 C.3       13 UNK         0.1400 
     76 CB         -2.1981  -25.1265  -43.8666 C.3       13 UNK        -0.1800 
     77 C          -1.5330  -26.1349  -46.0927 C.2       13 UNK         0.5000 
     78 O          -1.8096  -27.3018  -46.3711 O.2       13 UNK        -0.5000 
     79 N          -0.3732  -25.5455  -46.4187 N.am      14 UNK        -0.5000 
     80 CA          0.7200  -26.2048  -47.1372 C.3       14 UNK         0.1400 
     81 CB          1.9707  -25.3132  -47.1058 C.3       14 UNK        -0.1800 
     82 C           0.3554  -26.5727  -48.5863 C.2       14 UNK         0.5000 
     83 O           0.6829  -27.6718  -49.0355 O.2       14 UNK        -0.5000 
     84 N          -0.3269  -25.6561  -49.2846 N.am      15 UNK        -0.5000 
     85 CA         -0.7970  -25.8420  -50.6578 C.3       15 UNK         0.1400 
     86 CB         -1.0890  -24.4642  -51.2711 C.3       15 UNK        -0.1800 
     87 C          -2.0447  -26.7396  -50.7627 C.2       15 UNK         0.5000 
     88 O          -2.3417  -27.2171  -51.8581 O.2       15 UNK        -0.5000 
     89 N          -2.7588  -26.9235  -49.6410 N.am      16 UNK        -0.5000 
     90 CA         -4.0749  -27.5589  -49.5145 C.3       16 UNK         0.1400 
     91 CB         -4.0014  -29.0656  -49.8391 C.3       16 UNK        -0.1800 
     92 C          -5.1365  -26.7963  -50.3356 C.2       16 UNK         0.5000 
     93 O          -5.8564  -27.3977  -51.1343 O.2       16 UNK        -0.5000 
     94 N          -5.1671  -25.4722  -50.1179 N.am      17 UNK        -0.5000 
     95 CA         -5.8709  -24.4273  -50.8643 C.3       17 UNK         0.1400 
     96 CB         -7.3967  -24.6476  -50.8751 C.3       17 UNK        -0.1800 
     97 C          -5.2855  -24.2719  -52.2808 C.2       17 UNK         0.5000 
     98 O          -5.6107  -25.0517  -53.1774 O.2       17 UNK        -0.5000 
     99 N          -4.4204  -23.2612  -52.4531 N.am      18 UNK        -0.5000 
    100 CA        -3.7458  -22.9428  -53.7172 C.3       18 UNK         0.1400 
    101 CB        -2.6946  -21.8489  -53.4681 C.3       18 UNK        -0.1800 
    102 C         -4.7070  -22.5069  -54.8414 C.2       18 UNK         0.5000 
    103 O         -4.3981  -22.7189  -56.0147 O.2       18 UNK        -0.5000 
    104 N         -5.8449  -21.9095  -54.4554 N.am      19 UNK        -0.5000 
    105 CA        -6.9744  -21.4443  -55.2685 C.3       19 UNK         0.1400 
    106 CB        -7.6302  -22.6035  -56.0430 C.3       19 UNK        -0.1800 
    107 C         -6.6330  -20.2627  -56.1930 C.2       19 UNK         0.5000 
    108 O         -7.2306  -19.1953  -56.0540 O.2       19 UNK        -0.5000 
    109 N         -5.6627  -20.4559  -57.0937 N.am      20 UNK        -0.5000 
    110 CA        -5.1845  -19.4554  -58.0490 C.3       20 UNK         0.1400 
    111 CB        -4.2352  -20.1262  -59.0533 C.3       20 UNK        -0.1800 
    112 C         -4.4990  -18.2606  -57.3630 C.2       20 UNK         0.5000 
    113 O         -4.6897  -17.1219  -57.7913 O.2       20 UNK        -0.5000 
    114 N         -3.7390  -18.5423  -56.2957 N.am      21 UNK        -0.5000 
    115 CA        -3.1278  -17.5270  -55.4383 C.3       21 UNK         0.1400 
    116 CB        -1.9290  -18.1400  -54.6980 C.3       21 UNK        -0.1800 
    117 C         -4.1386  -16.9381  -54.4371 C.2       21 UNK         0.5000 
    118 O         -4.0469  -15.7541  -54.1121 O.2       21 UNK        -0.5000 
    119 N         -5.0730  -17.7742  -53.9644 N.am      22 UNK        -0.5000 
    120 CA        -6.0921  -17.4081  -52.9698 C.3       22 UNK         0.1400 
    121 C         -7.2059  -16.4781  -53.5250 C.2       22 UNK         0.5000 
    122 N         -7.6355  -16.6474  -54.7691 N.am      22 UNK        -0.7600 
    123 O         -7.6837  -15.5940  -52.8196 O.2       22 UNK        -0.5000 
    124 C124       -6.7197  -18.6424  -52.2710 C.3       23 UNK        -0.0398 
    125 S125       -5.5254  -19.8961  -51.6846 S.3       23 UNK        -0.2404 
    126 C126       -4.7377  -19.0695  -50.2665 C.3       23 UNK        -0.0205 
    127 H127        3.0437  -10.2823  -50.0853 H         1 UNK         0.0600 
    128 H128        2.7277  -11.8603  -50.7875 H         1 UNK         0.0600 
    129 H129        3.6418  -11.7258  -49.2738 H         1 UNK         0.0600 
    130 H130       -0.0041  -12.5627  -48.3935 H         1 UNK         0.3000 
    131 H131        1.4860  -13.7645  -50.4958 H         1 UNK         0.0600 
    132 H132        0.4563  -15.8888  -49.6698 H         1 UNK         0.0800 
    133 H133       -0.1179  -15.0747  -48.2463 H         1 UNK         0.0800 
    134 H134       -2.1182  -15.1792  -52.3237 H         1 UNK         0.0800 
    135 H135       -0.4102  -15.4581  -52.1085 H         1 UNK         0.0800 
    136 H136       -3.7761  -16.5888  -50.9280 H         1 UNK         0.1150 
    137 H137       -2.5127  -20.6338  -50.2828 H         1 UNK         0.1150 
    138 H138        0.3389  -17.6552  -51.4432 H         1 UNK         0.1150 
    139 H139       -0.2651  -21.2890  -50.6081 H         1 UNK         0.0800 
    140 H140        0.5942  -20.3589  -51.8004 H         1 UNK         0.0800 
    141 H141        1.1207  -19.0665  -47.4157 H         1 UNK         0.0800 
    142 H142       -0.4162  -19.2964  -48.1807 H         1 UNK         0.0800 
    143 H143        1.3300  -21.6969  -47.4168 H         1 UNK         0.0600 
    144 H144        0.0326  -20.0045  -45.4847 H         1 UNK         0.3000 
    145 H145       -0.2741  -22.4184  -42.9179 H         1 UNK         0.0600 
    146 H146        1.1694  -20.8107  -41.6654 H         1 UNK         0.0600 
    147 H147        2.1191  -21.8654  -42.7028 H         1 UNK         0.0600 
    148 H148        1.8155  -20.2062  -43.1921 H         1 UNK         0.0600 
    149 H149       -0.6465  -19.5717  -42.9770 H         1 UNK         0.3000 
    150 H150       -4.0166  -19.6898  -44.2284 H         1 UNK         0.0600 
    151 H151       -4.1341  -20.1069  -41.7571 H         1 UNK         0.0600 
    152 H152       -4.3843  -18.4101  -42.1398 H         1 UNK         0.0600 
    153 H153       -2.8333  -18.9486  -41.4972 H         1 UNK         0.0600 
    154 H154       -2.4937  -17.4593  -43.4741 H         1 UNK         0.3000 
    155 H155       -0.5351  -16.9309  -46.3231 H         1 UNK         0.0600 
    156 H156       -1.8748  -14.8100  -46.6192 H         1 UNK         0.0600 
    157 H157       -3.2532  -15.6022  -45.8619 H         1 UNK         0.0600 
    158 H158       -2.6107  -16.2147  -47.3774 H         1 UNK         0.0600 
    159 H159        0.2399  -16.0618  -44.4556 H         1 UNK         0.3000 
    160 H160       -0.1908  -14.0099  -42.4934 H         1 UNK         0.0600 
    161 H161       -1.5614  -16.0288  -40.6375 H         1 UNK         0.0600 
    162 H162       -2.0763  -14.3720  -40.9328 H         1 UNK         0.0600 
    163 H163       -0.5614  -14.6799  -40.1058 H         1 UNK         0.0600 
    164 H164        1.6276  -15.2106  -42.1427 H         1 UNK         0.3000 
    165 H165        2.3375  -18.5858  -41.2785 H         1 UNK         0.0600 
    166 H166        3.4501  -16.6624  -43.3769 H         1 UNK         0.0600 
    167 H167        4.1346  -18.1955  -42.8569 H         1 UNK         0.0600 
    168 H168        2.6502  -18.1666  -43.7985 H         1 UNK         0.0600 
    169 H169        3.4529  -15.8337  -41.1759 H         1 UNK         0.3000 
    170 H170        3.3594  -15.6634  -37.6645 H         1 UNK         0.0600 
    171 H171        5.3877  -17.0976  -37.9027 H         1 UNK         0.0600 
    172 H172        5.8637  -16.2140  -39.3479 H         1 UNK         0.0600 
    173 H173        5.8268  -15.4014  -37.7824 H         1 UNK         0.0600 
    174 H174        4.6417  -14.1254  -39.7615 H         1 UNK         0.3000 
    175 H175        1.8474  -12.2658  -40.7303 H         1 UNK         0.0600 
    176 H176        3.9953  -11.1858  -38.8278 H         1 UNK         0.0600 
    177 H177        2.9952  -10.2259  -39.9196 H         1 UNK         0.0600 
    178 H178        2.2586  -11.0715  -38.5691 H         1 UNK         0.0600 
    179 H179        4.5396  -11.6749  -41.2175 H         1 UNK         0.3000 
    180 H180        5.1790  -12.0526  -43.4908 H         1 UNK         0.0600 
    181 H181        6.3338  -14.6780  -42.3804 H         1 UNK         0.0600 
    182 H182        6.6183  -13.0760  -41.7107 H         1 UNK         0.0600 
    183 H183        7.2322  -13.4743  -43.3044 H         1 UNK         0.0600 
    184 H184        5.4698  -14.6322  -44.6770 H         1 UNK         0.3000 
    185 H185        4.7557  -14.4660  -47.1608 H         1 UNK         0.0600 
    186 H186        3.4734  -16.6515  -47.0393 H         1 UNK         0.0600 
    187 H187        4.3734  -16.3673  -45.5678 H         1 UNK         0.0600 
    188 H188        2.6348  -16.0729  -45.6040 H         1 UNK         0.0600 
    189 H189        2.1120  -13.4035  -47.0421 H         1 UNK         0.3000 
    190 H190       -2.0622  -20.7200  -46.7975 H         1 UNK         0.3000 
    191 H191       -3.3468  -22.2717  -48.7436 H         1 UNK         0.0600 
    192 H192       -4.3641  -20.4311  -47.2845 H         1 UNK         0.0600 
    193 H193       -5.3628  -21.8723  -47.4376 H         1 UNK         0.0600 
    194 H194       -4.4469  -21.5858  -45.9663 H         1 UNK         0.0600 
    195 H195       -2.4962  -23.1530  -45.3652 H         1 UNK         0.3000 
    196 H196       -3.5317  -25.7894  -45.4064 H         1 UNK         0.0600 
    197 H197       -2.0926  -26.1024  -43.3913 H         1 UNK         0.0600 
    198 H198       -2.9664  -24.5793  -43.3200 H         1 UNK         0.0600 
    199 H199       -1.2550  -24.5947  -43.7388 H         1 UNK         0.0600 
    200 H200       -0.2054  -24.5879  -46.1250 H         1 UNK         0.3000 
    201 H201        0.9541  -27.1320  -46.6101 H         1 UNK         0.0600 
    202 H202        2.3004  -25.1340  -46.0823 H         1 UNK         0.0600 
    203 H203        1.7861  -24.3446  -47.5721 H         1 UNK         0.0600 
    204 H204        2.8002  -25.7819  -47.6366 H         1 UNK         0.0600 
    205 H205       -0.5090  -24.7478  -48.8618 H         1 UNK         0.3000 
    206 H206       -0.0010  -26.3120  -51.2391 H         1 UNK         0.0600 
    207 H207       -0.2048  -23.8271  -51.2513 H         1 UNK         0.0600 
    208 H208       -1.3982  -24.5595  -52.3124 H         1 UNK         0.0600 
    209 H209       -1.8870  -23.9479  -50.7356 H         1 UNK         0.0600 
    210 H210       -2.4297  -26.4564  -48.8062 H         1 UNK         0.3000 
    211 H211       -4.3632  -27.4619  -48.4666 H         1 UNK         0.0600 
    212 H212       -3.7652  -29.2482  -50.8876 H         1 UNK         0.0600 
    213 H213       -4.9540  -29.5537  -49.6304 H         1 UNK         0.0600 
    214 H214       -3.2428  -29.5608  -49.2330 H         1 UNK         0.0600 
    215 H215       -4.5374  -25.1262  -49.3950 H         1 UNK         0.3000 
    216 H216       -5.6886  -23.4985  -50.3210 H         1 UNK         0.0600 
    217 H217       -7.7874  -24.7450  -49.8622 H         1 UNK         0.0600 
    218 H218       -7.6827  -25.5399  -51.4321 H         1 UNK         0.0600 
    219 H219       -7.9036  -23.8015  -51.3403 H         1 UNK         0.0600 
    220 H220       -4.2123  -22.6548  -51.6740 H         1 UNK         0.3000 
    221 H221       -3.2306  -23.8438  -54.0567 H         1 UNK         0.0600 
    222 H222       -3.1529  -20.9218  -53.1258 H         1 UNK         0.0600 
    223 H223       -1.9659  -22.1533  -52.7181 H         1 UNK         0.0600 
    224 H224       -2.1416  -21.6225  -54.3806 H         1 UNK         0.0600 
    225 H225       -5.9519  -21.7579  -53.4618 H         1 UNK         0.3000 
    226 H226       -7.7159  -21.0780  -54.5568 H         1 UNK         0.0600 
    227 H227       -7.9383  -23.4009  -55.3666 H         1 UNK         0.0600 
    228 H228       -8.5212  -22.2623  -56.5714 H         1 UNK         0.0600 
    229 H229       -6.9590  -23.0371  -56.7846 H         1 UNK         0.0600 
    230 H230       -5.1833  -21.3523  -57.0765 H         1 UNK         0.3000 
    231 H231       -6.0485  -19.0735  -58.5967 H         1 UNK         0.0600 
    232 H232       -3.8707  -19.4066  -59.7875 H         1 UNK         0.0600 
    233 H233       -4.7406  -20.9215  -59.6014 H         1 UNK         0.0600 
    234 H234       -3.3660  -20.5609  -58.5580 H         1 UNK         0.0600 
    235 H235       -3.6196  -19.5077  -56.0287 H         1 UNK         0.3000 
    236 H236       -2.7561  -16.7123  -56.0636 H         1 UNK         0.0600 
    237 H237       -1.2248  -18.5997  -55.3914 H         1 UNK         0.0600 
    238 H238       -1.3850  -17.3727  -54.1468 H         1 UNK         0.0600 
    239 H239       -2.2390  -18.8975  -53.9783 H         1 UNK         0.0600 
    240 H240       -5.0886  -18.7261  -54.2911 H         1 UNK         0.3000 
    241 H241       -5.5865  -16.8326  -52.1951 H         1 UNK         0.0600 
    242 H242       -7.3178  -17.4376  -55.3239 H         1 UNK         0.3800 
    243 H243       -8.3538  -16.0420  -55.1329 H         1 UNK         0.3800 
    244 H244       -7.4017  -19.1491  -52.9556 H         1 UNK         0.0800 
    245 H245       -7.3313  -18.3267  -51.4240 H         1 UNK         0.0800 
    246 H246       -5.3251  -18.2072  -49.9482 H         1 UNK         0.0800 
    247 H247       -4.7366  -19.7607  -49.4256 H         1 UNK         0.0800 
@<TRIPOS>BOND
     1    1    2 1    
     2    1  127 1    
     3    1  128 1    
     4    1  129 1    
     5    2    3 2    
     6    2    4 am   BACKBONE|DICT|INTERRES
     7    4    5 1    
     8    4  130 1    
     9    5    6 1    
    10    5   65 1    
    11    5  131 1    
    12    6    7 1    
    13    6  132 1    
    14    6  133 1    
    15    7    8 1    
    16    8    9 1    
    17    8  134 1    
    18    8  135 1    
    19    9   10 ar   
    20    9   14 ar   
    21   10   11 ar   
    22   10  136 1    
    23   11   12 ar   
    24   11  126 1    
    25   12   13 ar   
    26   12  137 1    
    27   13   14 ar   
    28   13   15 1    
    29   14  138 1    
    30   15   16 1    
    31   15  139 1    
    32   15  140 1    
    33   16   17 1    
    34   17   18 1    
    35   17  141 1    
    36   17  142 1    
    37   18   19 1    
    38   18   67 1    
    39   18  143 1    
    40   19   20 am   BACKBONE|DICT|INTERRES
    41   19  144 1    
    42   20   21 2    
    43   20   22 1    
    44   22   23 1    
    45   22   24 1    
    46   22  145 1    
    47   23  146 1    
    48   23  147 1    
    49   23  148 1    
    50   24   25 am   BACKBONE|DICT|INTERRES
    51   24  149 1    
    52   25   26 2    
    53   25   27 1    
    54   27   28 1    
    55   27   29 1    
    56   27  150 1    
    57   28  151 1    
    58   28  152 1    
    59   28  153 1    
    60   29   30 am   BACKBONE|DICT|INTERRES
    61   29  154 1    
    62   30   31 2    
    63   30   32 1    
    64   32   33 1    
    65   32   34 1    
    66   32  155 1    
    67   33  156 1    
    68   33  157 1    
    69   33  158 1    
    70   34   35 am   BACKBONE|DICT|INTERRES
    71   34  159 1    
    72   35   36 2    
    73   35   37 1    
    74   37   38 1    
    75   37   39 1    
    76   37  160 1    
    77   38  161 1    
    78   38  162 1    
    79   38  163 1    
    80   39   40 am   BACKBONE|DICT|INTERRES
    81   39  164 1    
    82   40   41 2    
    83   40   42 1    
    84   42   43 1    
    85   42   44 1    
    86   42  165 1    
    87   43  166 1    
    88   43  167 1    
    89   43  168 1    
    90   44   45 am   BACKBONE|DICT|INTERRES
    91   44  169 1    
    92   45   46 2    
    93   45   47 1    
    94   47   48 1    
    95   47   49 1    
    96   47  170 1    
    97   48  171 1    
    98   48  172 1    
    99   48  173 1    
   100   49   50 am   BACKBONE|DICT|INTERRES
   101   49  174 1    
   102   50   51 2    
   103   50   52 1    
   104   52   53 1    
   105   52   54 1    
   106   52  175 1    
   107   53  176 1    
   108   53  177 1    
   109   53  178 1    
   110   54   55 am   BACKBONE|DICT|INTERRES
   111   54  179 1    
   112   55   56 2    
   113   55   57 1    
   114   57   58 1    
   115   57   59 1    
   116   57  180 1    
   117   58  181 1    
   118   58  182 1    
   119   58  183 1    
   120   59   60 am   BACKBONE|DICT|INTERRES
   121   59  184 1    
   122   60   61 2    
   123   60   62 1    
   124   62   63 1    
   125   62   64 1    
   126   62  185 1    
   127   63  186 1    
   128   63  187 1    
   129   63  188 1    
   130   64   65 am   BACKBONE|DICT|INTERRES
   131   64  189 1    
   132   65   66 2    
   133   67   68 2    
   134   67   69 am   BACKBONE|DICT|INTERRES
   135   69   70 1    
   136   69  190 1    
   137   70   71 1    
   138   70   72 1    
   139   70  191 1    
   140   71  192 1    
   141   71  193 1    
   142   71  194 1    
   143   72   73 2    
   144   72   74 am   BACKBONE|DICT|INTERRES
   145   74   75 1    
   146   74  195 1    
   147   75   76 1    
   148   75   77 1    
   149   75  196 1    
   150   76  197 1    
   151   76  198 1    
   152   76  199 1    
   153   77   78 2    
   154   77   79 am   BACKBONE|DICT|INTERRES
   155   79   80 1    
   156   79  200 1    
   157   80   81 1    
   158   80   82 1    
   159   80  201 1    
   160   81  202 1    
   161   81  203 1    
   162   81  204 1    
   163   82   83 2    
   164   82   84 am   BACKBONE|DICT|INTERRES
   165   84   85 1    
   166   84  205 1    
   167   85   86 1    
   168   85   87 1    
   169   85  206 1    
   170   86  207 1    
   171   86  208 1    
   172   86  209 1    
   173   87   88 2    
   174   87   89 am   BACKBONE|DICT|INTERRES
   175   89   90 1    
   176   89  210 1    
   177   90   91 1    
   178   90   92 1    
   179   90  211 1    
   180   91  212 1    
   181   91  213 1    
   182   91  214 1    
   183   92   93 2    
   184   92   94 am   BACKBONE|DICT|INTERRES
   185   94   95 1    
   186   94  215 1    
   187   95   96 1    
   188   95   97 1    
   189   95  216 1    
   190   96  217 1    
   191   96  218 1    
   192   96  219 1    
   193   97   98 2    
   194   97   99 am   BACKBONE|DICT|INTERRES
   195   99  100 1    
   196   99  220 1    
   197  100  101 1    
   198  100  102 1    
   199  100  221 1    
   200  101  222 1    
   201  101  223 1    
   202  101  224 1    
   203  102  103 2    
   204  102  104 am   BACKBONE|DICT|INTERRES
   205  104  105 1    
   206  104  225 1    
   207  105  106 1    
   208  105  107 1    
   209  105  226 1    
   210  106  227 1    
   211  106  228 1    
   212  106  229 1    
   213  107  108 2    
   214  107  109 am   BACKBONE|DICT|INTERRES
   215  109  110 1    
   216  109  230 1    
   217  110  111 1    
   218  110  112 1    
   219  110  231 1    
   220  111  232 1    
   221  111  233 1    
   222  111  234 1    
   223  112  113 2    
   224  112  114 am   BACKBONE|DICT|INTERRES
   225  114  115 1    
   226  114  235 1    
   227  115  116 1    
   228  115  117 1    
   229  115  236 1    
   230  116  237 1    
   231  116  238 1    
   232  116  239 1    
   233  117  118 2    
   234  117  119 am   BACKBONE|DICT|INTERRES
   235  119  120 1    
   236  119  240 1    
   237  120  121 1    
   238  120  124 1    
   239  120  241 1    
   240  121  122 am   BACKBONE|DICT|INTERRES
   241  121  123 2    
   242  122  242 1    
   243  122  243 1    
   244  124  125 1    
   245  124  244 1    
   246  124  245 1    
   247  125  126 1    
   248  126  246 1    
   249  126  247 1    
@<TRIPOS>SUBSTRUCTURE
     1 UNK         1 GROUP             0       ****    0 ROOT    
