@<TRIPOS>MOLECULE
3R540
247   249    1
SMALL
USER_CHARGES


@<TRIPOS>ATOM
      1 CA         -0.3873   -9.0506  -48.7326 C.3       0 UNK        -0.1800 
      2 C          -0.1903  -10.1147  -47.6640 C.2       0 UNK         0.5000 
      3 O           0.8846  -10.1950  -47.0706 O.2       0 UNK        -0.5000 
      4 N          -1.2275  -10.9192  -47.3979 N.am      1 UNK        -0.5000 
      5 CA         -1.2273  -12.0516  -46.4573 C.3       1 UNK         0.1400 
      6 C6         -2.5292  -12.8799  -46.5596 C.3       23 UNK        -0.0398 
      7 S7         -2.7580  -13.6135  -48.2146 S.3       23 UNK        -0.2404 
      8 C8         -1.9086  -15.2003  -47.9678 C.3       23 UNK        -0.0205 
      9 C9         -2.0928  -16.1383  -49.1472 C.ar      23 UNK        -0.0193 
     10 C10        -1.3782  -15.9352  -50.3303 C.ar      23 UNK        -0.1150 
     11 C11        -1.5357  -16.8071  -51.4119 C.ar      23 UNK        -0.0193 
     12 C12        -2.4180  -17.8871  -51.3018 C.ar      23 UNK        -0.1150 
     13 C13        -3.1321  -18.1046  -50.1194 C.ar      23 UNK        -0.0193 
     14 C14        -2.9669  -17.2241  -49.0476 C.ar      23 UNK        -0.1150 
     15 C15        -4.0902  -19.2821  -49.9961 C.3       23 UNK        -0.0205 
     16 S16        -3.2554  -20.8879  -50.2160 S.3       23 UNK        -0.2404 
     17 C17        -2.0846  -20.8377  -48.8237 C.3       23 UNK        -0.0398 
     18 CA         -1.7166  -22.2271  -48.2555 C.3       11 UNK         0.1400 
     19 N          -0.4932  -22.1437  -47.4552 N.am      11 UNK        -0.5000 
     20 C           0.1754  -23.1846  -46.9436 C.2       10 UNK         0.5000 
     21 O          -0.1637  -24.3568  -47.0918 O.2       10 UNK        -0.5000 
     22 CA          1.4056  -22.8586  -46.0800 C.3       10 UNK         0.1400 
     23 CB          2.6001  -22.4593  -46.9590 C.3       10 UNK        -0.1800 
     24 N           1.1392  -21.8098  -45.0947 N.am      10 UNK        -0.5000 
     25 C           0.2421  -21.9162  -44.1034 C.2       9 UNK         0.5000 
     26 O          -0.4412  -22.9200  -43.9027 O.2       9 UNK        -0.5000 
     27 CA          0.0417  -20.6818  -43.2083 C.3       9 UNK         0.1400 
     28 CB          1.1824  -20.5554  -42.1875 C.3       9 UNK        -0.1800 
     29 N          -0.0736  -19.4404  -43.9711 N.am      9 UNK        -0.5000 
     30 C          -1.0352  -19.1768  -44.8674 C.2       8 UNK         0.5000 
     31 O          -1.9500  -19.9511  -45.1490 O.2       8 UNK        -0.5000 
     32 CA         -0.9194  -17.8387  -45.6173 C.3       8 UNK         0.1400 
     33 CB         -1.2890  -16.6615  -44.6969 C.3       8 UNK        -0.1800 
     34 N           0.4153  -17.6300  -46.1802 N.am      8 UNK        -0.5000 
     35 C           1.0163  -18.4553  -47.0516 C.2       7 UNK         0.5000 
     36 O           0.4971  -19.4697  -47.5126 O.2       7 UNK        -0.5000 
     37 CA          2.4711  -18.1293  -47.4188 C.3       7 UNK         0.1400 
     38 CB          2.5295  -17.0470  -48.5073 C.3       7 UNK        -0.1800 
     39 N           3.2387  -17.7154  -46.2435 N.am      7 UNK        -0.5000 
     40 C           3.5566  -18.5337  -45.2280 C.2       6 UNK         0.5000 
     41 O           3.2832  -19.7338  -45.2031 O.2       6 UNK        -0.5000 
     42 CA          4.2523  -17.8911  -44.0145 C.3       6 UNK         0.1400 
     43 CB          5.7594  -17.7385  -44.2675 C.3       6 UNK        -0.1800 
     44 N           3.6800  -16.5882  -43.6744 N.am      6 UNK        -0.5000 
     45 C           2.4331  -16.4055  -43.2165 C.2       5 UNK         0.5000 
     46 O           1.6578  -17.3279  -42.9676 O.2       5 UNK        -0.5000 
     47 CA          1.9588  -14.9495  -43.0535 C.3       5 UNK         0.1400 
     48 CB          2.2383  -14.4402  -41.6325 C.3       5 UNK        -0.1800 
     49 N           2.5706  -14.0366  -44.0199 N.am      5 UNK        -0.5000 
     50 C           2.3765  -14.0727  -45.3438 C.2       4 UNK         0.5000 
     51 O           1.6670  -14.9143  -45.8992 O.2       4 UNK        -0.5000 
     52 CA          3.1098  -12.9946  -46.1695 C.3       4 UNK         0.1400 
     53 CB          2.7506  -13.0409  -47.6654 C.3       4 UNK        -0.1800 
     54 N           2.8499  -11.6462  -45.6640 N.am      4 UNK        -0.5000 
     55 C           3.4471  -11.0699  -44.6119 C.2       3 UNK         0.5000 
     56 O           4.2961  -11.6330  -43.9198 O.2       3 UNK        -0.5000 
     57 CA          2.9826   -9.6515  -44.2483 C.3       3 UNK         0.1400 
     58 CB          3.5286   -8.6211  -45.2496 C.3       3 UNK        -0.1800 
     59 N           1.5229   -9.5888  -44.2313 N.am      3 UNK        -0.5000 
     60 C           0.7648   -9.7556  -43.1385 C.2       2 UNK         0.5000 
     61 O           1.2193   -9.8827  -42.0010 O.2       2 UNK        -0.5000 
     62 CA         -0.7624   -9.8025  -43.3509 C.3       2 UNK         0.1400 
     63 CB         -1.3676   -8.3957  -43.2300 C.3       2 UNK        -0.1800 
     64 N          -1.1363  -10.3751  -44.6452 N.am      2 UNK        -0.5000 
     65 C          -0.9553  -11.6586  -44.9878 C.2       1 UNK         0.5000 
     66 O          -0.5674  -12.5203  -44.1994 O.2       1 UNK        -0.5000 
     67 C          -2.8816  -22.8641  -47.4667 C.2       11 UNK         0.5000 
     68 O          -3.5803  -23.7312  -47.9986 O.2       11 UNK        -0.5000 
     69 N          -3.0462  -22.4550  -46.2000 N.am      12 UNK        -0.5000 
     70 CA         -4.0243  -23.0134  -45.2677 C.3       12 UNK         0.1400 
     71 CB         -4.0604  -22.1702  -43.9850 C.3       12 UNK        -0.1800 
     72 C          -3.7632  -24.4948  -44.9448 C.2       12 UNK         0.5000 
     73 O          -4.7038  -25.2882  -44.9518 O.2       12 UNK        -0.5000 
     74 N          -2.4976  -24.8450  -44.6840 N.am      13 UNK        -0.5000 
     75 CA         -2.0759  -26.2053  -44.3571 C.3       13 UNK         0.1400 
     76 CB         -0.6486  -26.1772  -43.7883 C.3       13 UNK        -0.1800 
     77 C          -2.1627  -27.1698  -45.5528 C.2       13 UNK         0.5000 
     78 O          -2.6780  -28.2782  -45.4000 O.2       13 UNK        -0.5000 
     79 N          -1.6355  -26.7477  -46.7091 N.am      14 UNK        -0.5000 
     80 CA         -1.4728  -27.6024  -47.8835 C.3       14 UNK         0.1400 
     81 CB         -0.3372  -27.0524  -48.7608 C.3       14 UNK        -0.1800 
     82 C          -2.7509  -27.7565  -48.7211 C.2       14 UNK         0.5000 
     83 O          -2.9517  -28.8254  -49.3002 O.2       14 UNK        -0.5000 
     84 N          -3.5636  -26.6950  -48.8148 N.am      15 UNK        -0.5000 
     85 CA         -4.6422  -26.6002  -49.8011 C.3       15 UNK         0.1400 
     86 CB         -4.1160  -25.8427  -51.0323 C.3       15 UNK        -0.1800 
     87 C          -5.9246  -25.9611  -49.2477 C.2       15 UNK         0.5000 
     88 O          -6.7556  -25.5143  -50.0395 O.2       15 UNK        -0.5000 
     89 N          -6.0719  -25.8958  -47.9152 N.am      16 UNK        -0.5000 
     90 CA         -7.2325  -25.3427  -47.1967 C.3       16 UNK         0.1400 
     91 CB         -8.4609  -26.2581  -47.3828 C.3       16 UNK        -0.1800 
     92 C          -7.5391  -23.8676  -47.5475 C.2       16 UNK         0.5000 
     93 O          -8.6891  -23.4369  -47.4501 O.2       16 UNK        -0.5000 
     94 N          -6.5001  -23.1334  -47.9716 N.am      17 UNK        -0.5000 
     95 CA         -6.5124  -21.7559  -48.4658 C.3       17 UNK         0.1400 
     96 CB         -6.9675  -20.7696  -47.3701 C.3       17 UNK        -0.1800 
     97 C          -7.2582  -21.5618  -49.8074 C.2       17 UNK         0.5000 
     98 O          -7.5973  -20.4271  -50.1458 O.2       17 UNK        -0.5000 
     99 N          -7.4952  -22.6489  -50.5585 N.am      18 UNK        -0.5000 
    100 CA        -8.1988  -22.6238  -51.8459 C.3       18 UNK         0.1400 
    101 CB        -8.9269  -23.9631  -52.0401 C.3       18 UNK        -0.1800 
    102 C         -7.2706  -22.3413  -53.0449 C.2       18 UNK         0.5000 
    103 O         -7.7623  -21.9814  -54.1159 O.2       18 UNK        -0.5000 
    104 N         -5.9575  -22.5260  -52.8589 N.am      19 UNK        -0.5000 
    105 CA        -4.9090  -22.2724  -53.8523 C.3       19 UNK         0.1400 
    106 CB        -3.7102  -23.1468  -53.4500 C.3       19 UNK        -0.1800 
    107 C         -4.5751  -20.7569  -53.9346 C.2       19 UNK         0.5000 
    108 O         -5.0945  -19.9940  -53.1226 O.2       19 UNK        -0.5000 
    109 N         -3.7607  -20.2344  -54.8681 N.am      20 UNK        -0.5000 
    110 CA        -2.9283  -20.8061  -55.9389 C.3       20 UNK         0.1400 
    111 CB        -3.6880  -21.8013  -56.8393 C.3       20 UNK        -0.1800 
    112 C         -1.5541  -21.3299  -55.4703 C.2       20 UNK         0.5000 
    113 O         -0.8289  -21.9193  -56.2720 O.2       20 UNK        -0.5000 
    114 N         -1.2197  -21.1220  -54.1882 N.am      21 UNK        -0.5000 
    115 CA         0.0211  -21.5999  -53.5703 C.3       21 UNK         0.1400 
    116 CB        -0.1584  -21.6361  -52.0438 C.3       21 UNK        -0.1800 
    117 C          1.2480  -20.7462  -53.9393 C.2       21 UNK         0.5000 
    118 O          2.3650  -21.2647  -53.9628 O.2       21 UNK        -0.5000 
    119 N          1.0192  -19.4537  -54.1927 N.am      22 UNK        -0.5000 
    120 CA         2.0538  -18.4608  -54.5094 C.3       22 UNK         0.1400 
    121 C          2.5444  -18.5794  -55.9773 C.2       22 UNK         0.5000 
    122 N          3.8376  -18.4186  -56.2224 N.am      22 UNK        -0.7600 
    123 O          1.7571  -18.7717  -56.9014 O.2       22 UNK        -0.5000 
    124 C124        1.5718  -17.0196  -54.2060 C.3       23 UNK        -0.0398 
    125 S125        1.0233  -16.8260  -52.4736 S.3       23 UNK        -0.2404 
    126 C126       -0.7654  -16.5739  -52.7022 C.3       23 UNK        -0.0205 
    127 H127        0.3347   -9.1914  -49.5368 H         1 UNK         0.0600 
    128 H128       -0.2354   -8.0591  -48.3062 H         1 UNK         0.0600 
    129 H129       -1.3884   -9.0879  -49.1627 H         1 UNK         0.0600 
    130 H130       -2.0819  -10.8025  -47.9244 H         1 UNK         0.3000 
    131 H131       -0.3994  -12.7020  -46.7445 H         1 UNK         0.0600 
    132 H132       -3.3954  -12.2528  -46.3417 H         1 UNK         0.0800 
    133 H133       -2.5460  -13.6787  -45.8156 H         1 UNK         0.0800 
    134 H134       -2.3151  -15.6645  -47.0714 H         1 UNK         0.0800 
    135 H135       -0.8451  -15.0337  -47.7866 H         1 UNK         0.0800 
    136 H136       -0.6981  -15.0985  -50.4093 H         1 UNK         0.1150 
    137 H137       -2.5525  -18.5655  -52.1320 H         1 UNK         0.1150 
    138 H138       -3.5202  -17.3842  -48.1330 H         1 UNK         0.1150 
    139 H139       -4.5881  -19.2726  -49.0258 H         1 UNK         0.0800 
    140 H140       -4.8818  -19.1765  -50.7367 H         1 UNK         0.0800 
    141 H141       -2.4590  -20.1841  -48.0336 H         1 UNK         0.0800 
    142 H142       -1.1905  -20.3508  -49.2137 H         1 UNK         0.0800 
    143 H143       -1.4946  -22.8891  -49.0953 H         1 UNK         0.0600 
    144 H144       -0.1291  -21.2061  -47.2972 H         1 UNK         0.3000 
    145 H145        1.6755  -23.7651  -45.5344 H         1 UNK         0.0600 
    146 H146        3.4995  -22.3182  -46.3594 H         1 UNK         0.0600 
    147 H147        2.8187  -23.2326  -47.6964 H         1 UNK         0.0600 
    148 H148        2.4111  -21.5320  -47.5003 H         1 UNK         0.0600 
    149 H149        1.6859  -20.9583  -45.1774 H         1 UNK         0.3000 
    150 H150       -0.8920  -20.8195  -42.6592 H         1 UNK         0.0600 
    151 H151        1.2834  -21.4678  -41.5983 H         1 UNK         0.0600 
    152 H152        0.9980  -19.7370  -41.4914 H         1 UNK         0.0600 
    153 H153        2.1402  -20.3690  -42.6743 H         1 UNK         0.0600 
    154 H154        0.6244  -18.7263  -43.7803 H         1 UNK         0.3000 
    155 H155       -1.6204  -17.8637  -46.4526 H         1 UNK         0.0600 
    156 H156       -0.7752  -16.7135  -43.7379 H         1 UNK         0.0600 
    157 H157       -2.3590  -16.6595  -44.4872 H         1 UNK         0.0600 
    158 H158       -1.0385  -15.6996  -45.1438 H         1 UNK         0.0600 
    159 H159        0.9127  -16.7955  -45.8868 H         1 UNK         0.3000 
    160 H160        2.9302  -19.0356  -47.8193 H         1 UNK         0.0600 
    161 H161        2.0112  -16.1377  -48.2050 H         1 UNK         0.0600 
    162 H162        2.0519  -17.3974  -49.4234 H         1 UNK         0.0600 
    163 H163        3.5580  -16.7856  -48.7557 H         1 UNK         0.0600 
    164 H164        3.4495  -16.7323  -46.1622 H         1 UNK         0.3000 
    165 H165        4.1145  -18.5568  -43.1597 H         1 UNK         0.0600 
    166 H166        6.2698  -17.3523  -43.3850 H         1 UNK         0.0600 
    167 H167        6.2130  -18.7008  -44.5088 H         1 UNK         0.0600 
    168 H168        5.9644  -17.0614  -45.0976 H         1 UNK         0.0600 
    169 H169        4.2537  -15.7752  -43.8430 H         1 UNK         0.3000 
    170 H170        0.8794  -14.9314  -43.2163 H         1 UNK         0.0600 
    171 H171        1.7735  -15.0872  -40.8874 H         1 UNK         0.0600 
    172 H172        3.3074  -14.4063  -41.4193 H         1 UNK         0.0600 
    173 H173        1.8349  -13.4373  -41.4889 H         1 UNK         0.0600 
    174 H174        3.1705  -13.3062  -43.6523 H         1 UNK         0.3000 
    175 H175        4.1790  -13.1986  -46.0833 H         1 UNK         0.0600 
    176 H176        1.6821  -12.9059  -47.8322 H         1 UNK         0.0600 
    177 H177        3.2743  -12.2622  -48.2202 H         1 UNK         0.0600 
    178 H178        3.0360  -13.9957  -48.1065 H         1 UNK         0.0600 
    179 H179        2.1451  -11.1139  -46.1706 H         1 UNK         0.3000 
    180 H180        3.3822   -9.4051  -43.2623 H         1 UNK         0.0600 
    181 H181        3.1655   -8.8032  -46.2619 H         1 UNK         0.0600 
    182 H182        4.6185   -8.6488  -45.2815 H         1 UNK         0.0600 
    183 H183        3.2371   -7.6091  -44.9683 H         1 UNK         0.0600 
    184 H184        1.0695   -9.5480  -45.1368 H         1 UNK         0.3000 
    185 H185       -1.1889  -10.4280  -42.5638 H         1 UNK         0.0600 
    186 H186       -1.1261   -7.9490  -42.2645 H         1 UNK         0.0600 
    187 H187       -0.9907   -7.7267  -44.0047 H         1 UNK         0.0600 
    188 H188       -2.4544   -8.4253  -43.3103 H         1 UNK         0.0600 
    189 H189       -1.4676   -9.7335  -45.3508 H         1 UNK         0.3000 
    190 H190       -2.4553  -21.7107  -45.8393 H         1 UNK         0.3000 
    191 H191       -5.0079  -22.9464  -45.7320 H         1 UNK         0.0600 
    192 H192       -3.0907  -22.1512  -43.4869 H         1 UNK         0.0600 
    193 H193       -4.7879  -22.5668  -43.2759 H         1 UNK         0.0600 
    194 H194       -4.3450  -21.1402  -44.2007 H         1 UNK         0.0600 
    195 H195       -1.7796  -24.1263  -44.6558 H         1 UNK         0.3000 
    196 H196       -2.7385  -26.5855  -43.5766 H         1 UNK         0.0600 
    197 H197       -0.3072  -27.1816  -43.5348 H         1 UNK         0.0600 
    198 H198       -0.6000  -25.5782  -42.8788 H         1 UNK         0.0600 
    199 H199        0.0614  -25.7574  -44.5020 H         1 UNK         0.0600 
    200 H200       -1.2086  -25.8241  -46.7582 H         1 UNK         0.3000 
    201 H201       -1.1755  -28.5987  -47.5484 H         1 UNK         0.0600 
    202 H202        0.5926  -26.9692  -48.1979 H         1 UNK         0.0600 
    203 H203       -0.5781  -26.0657  -49.1588 H         1 UNK         0.0600 
    204 H204       -0.1460  -27.7096  -49.6101 H         1 UNK         0.0600 
    205 H205       -3.3360  -25.8404  -48.3177 H         1 UNK         0.3000 
    206 H206       -4.9453  -27.5974  -50.1256 H         1 UNK         0.0600 
    207 H207       -3.2289  -26.3226  -51.4457 H         1 UNK         0.0600 
    208 H208       -4.8651  -25.8176  -51.8244 H         1 UNK         0.0600 
    209 H209       -3.8556  -24.8129  -50.7835 H         1 UNK         0.0600 
    210 H210       -5.3292  -26.2584  -47.3330 H         1 UNK         0.3000 
    211 H211       -6.9812  -25.3527  -46.1369 H         1 UNK         0.0600 
    212 H212       -8.8241  -26.2446  -48.4110 H         1 UNK         0.0600 
    213 H213       -9.2852  -25.9446  -46.7412 H         1 UNK         0.0600 
    214 H214       -8.2260  -27.2903  -47.1232 H         1 UNK         0.0600 
    215 H215       -5.5950  -23.5919  -48.0219 H         1 UNK         0.3000 
    216 H216       -5.4703  -21.5315  -48.6727 H         1 UNK         0.0600 
    217 H217       -6.8119  -19.7369  -47.6837 H         1 UNK         0.0600 
    218 H218       -6.4019  -20.9136  -46.4496 H         1 UNK         0.0600 
    219 H219       -8.0263  -20.8813  -47.1369 H         1 UNK         0.0600 
    220 H220       -7.2058  -23.5629  -50.2227 H         1 UNK         0.3000 
    221 H221       -8.9549  -21.8361  -51.8246 H         1 UNK         0.0600 
    222 H222       -8.2257  -24.7917  -52.1440 H         1 UNK         0.0600 
    223 H223       -9.5839  -24.1827  -51.1982 H         1 UNK         0.0600 
    224 H224       -9.5443  -23.9443  -52.9390 H         1 UNK         0.0600 
    225 H225       -5.6463  -22.7682  -51.9308 H         1 UNK         0.3000 
    226 H226       -5.2894  -22.6030  -54.8182 H         1 UNK         0.0600 
    227 H227       -2.9807  -23.2421  -54.2476 H         1 UNK         0.0600 
    228 H228       -3.2024  -22.7635  -52.5656 H         1 UNK         0.0600 
    229 H229       -4.0305  -24.1644  -53.2373 H         1 UNK         0.0600 
    230 H230       -3.6743  -19.2294  -54.8227 H         1 UNK         0.3000 
    231 H231       -2.6927  -19.9490  -56.5715 H         1 UNK         0.0600 
    232 H232       -4.7065  -21.4681  -57.0394 H         1 UNK         0.0600 
    233 H233       -3.7276  -22.8038  -56.4163 H         1 UNK         0.0600 
    234 H234       -3.1875  -21.8949  -57.8037 H         1 UNK         0.0600 
    235 H235       -1.8717  -20.6375  -53.5897 H         1 UNK         0.3000 
    236 H236        0.2125  -22.6195  -53.9121 H         1 UNK         0.0600 
    237 H237        0.7514  -21.9786  -51.5491 H         1 UNK         0.0600 
    238 H238       -0.3964  -20.6497  -51.6433 H         1 UNK         0.0600 
    239 H239       -0.9561  -22.3199  -51.7554 H         1 UNK         0.0600 
    240 H240        0.0684  -19.1223  -54.1815 H         1 UNK         0.3000 
    241 H241        2.9065  -18.6607  -53.8567 H         1 UNK         0.0600 
    242 H242        4.1665  -18.4776  -57.1740 H         1 UNK         0.3800 
    243 H243        4.5013  -18.2524  -55.4812 H         1 UNK         0.3800 
    244 H244        2.3826  -16.3093  -54.3762 H         1 UNK         0.0800 
    245 H245        0.7697  -16.7279  -54.8862 H         1 UNK         0.0800 
    246 H246       -0.9442  -15.5569  -53.0542 H         1 UNK         0.0800 
    247 H247       -1.1328  -17.2409  -53.4831 H         1 UNK         0.0800 
@<TRIPOS>BOND
     1    1    2 1    
     2    1  127 1    
     3    1  128 1    
     4    1  129 1    
     5    2    3 2    
     6    2    4 am   BACKBONE|DICT|INTERRES
     7    4    5 1    
     8    4  130 1    
     9    5    6 1    
    10    5   65 1    
    11    5  131 1    
    12    6    7 1    
    13    6  132 1    
    14    6  133 1    
    15    7    8 1    
    16    8    9 1    
    17    8  134 1    
    18    8  135 1    
    19    9   10 ar   
    20    9   14 ar   
    21   10   11 ar   
    22   10  136 1    
    23   11   12 ar   
    24   11  126 1    
    25   12   13 ar   
    26   12  137 1    
    27   13   14 ar   
    28   13   15 1    
    29   14  138 1    
    30   15   16 1    
    31   15  139 1    
    32   15  140 1    
    33   16   17 1    
    34   17   18 1    
    35   17  141 1    
    36   17  142 1    
    37   18   19 1    
    38   18   67 1    
    39   18  143 1    
    40   19   20 am   BACKBONE|DICT|INTERRES
    41   19  144 1    
    42   20   21 2    
    43   20   22 1    
    44   22   23 1    
    45   22   24 1    
    46   22  145 1    
    47   23  146 1    
    48   23  147 1    
    49   23  148 1    
    50   24   25 am   BACKBONE|DICT|INTERRES
    51   24  149 1    
    52   25   26 2    
    53   25   27 1    
    54   27   28 1    
    55   27   29 1    
    56   27  150 1    
    57   28  151 1    
    58   28  152 1    
    59   28  153 1    
    60   29   30 am   BACKBONE|DICT|INTERRES
    61   29  154 1    
    62   30   31 2    
    63   30   32 1    
    64   32   33 1    
    65   32   34 1    
    66   32  155 1    
    67   33  156 1    
    68   33  157 1    
    69   33  158 1    
    70   34   35 am   BACKBONE|DICT|INTERRES
    71   34  159 1    
    72   35   36 2    
    73   35   37 1    
    74   37   38 1    
    75   37   39 1    
    76   37  160 1    
    77   38  161 1    
    78   38  162 1    
    79   38  163 1    
    80   39   40 am   BACKBONE|DICT|INTERRES
    81   39  164 1    
    82   40   41 2    
    83   40   42 1    
    84   42   43 1    
    85   42   44 1    
    86   42  165 1    
    87   43  166 1    
    88   43  167 1    
    89   43  168 1    
    90   44   45 am   BACKBONE|DICT|INTERRES
    91   44  169 1    
    92   45   46 2    
    93   45   47 1    
    94   47   48 1    
    95   47   49 1    
    96   47  170 1    
    97   48  171 1    
    98   48  172 1    
    99   48  173 1    
   100   49   50 am   BACKBONE|DICT|INTERRES
   101   49  174 1    
   102   50   51 2    
   103   50   52 1    
   104   52   53 1    
   105   52   54 1    
   106   52  175 1    
   107   53  176 1    
   108   53  177 1    
   109   53  178 1    
   110   54   55 am   BACKBONE|DICT|INTERRES
   111   54  179 1    
   112   55   56 2    
   113   55   57 1    
   114   57   58 1    
   115   57   59 1    
   116   57  180 1    
   117   58  181 1    
   118   58  182 1    
   119   58  183 1    
   120   59   60 am   BACKBONE|DICT|INTERRES
   121   59  184 1    
   122   60   61 2    
   123   60   62 1    
   124   62   63 1    
   125   62   64 1    
   126   62  185 1    
   127   63  186 1    
   128   63  187 1    
   129   63  188 1    
   130   64   65 am   BACKBONE|DICT|INTERRES
   131   64  189 1    
   132   65   66 2    
   133   67   68 2    
   134   67   69 am   BACKBONE|DICT|INTERRES
   135   69   70 1    
   136   69  190 1    
   137   70   71 1    
   138   70   72 1    
   139   70  191 1    
   140   71  192 1    
   141   71  193 1    
   142   71  194 1    
   143   72   73 2    
   144   72   74 am   BACKBONE|DICT|INTERRES
   145   74   75 1    
   146   74  195 1    
   147   75   76 1    
   148   75   77 1    
   149   75  196 1    
   150   76  197 1    
   151   76  198 1    
   152   76  199 1    
   153   77   78 2    
   154   77   79 am   BACKBONE|DICT|INTERRES
   155   79   80 1    
   156   79  200 1    
   157   80   81 1    
   158   80   82 1    
   159   80  201 1    
   160   81  202 1    
   161   81  203 1    
   162   81  204 1    
   163   82   83 2    
   164   82   84 am   BACKBONE|DICT|INTERRES
   165   84   85 1    
   166   84  205 1    
   167   85   86 1    
   168   85   87 1    
   169   85  206 1    
   170   86  207 1    
   171   86  208 1    
   172   86  209 1    
   173   87   88 2    
   174   87   89 am   BACKBONE|DICT|INTERRES
   175   89   90 1    
   176   89  210 1    
   177   90   91 1    
   178   90   92 1    
   179   90  211 1    
   180   91  212 1    
   181   91  213 1    
   182   91  214 1    
   183   92   93 2    
   184   92   94 am   BACKBONE|DICT|INTERRES
   185   94   95 1    
   186   94  215 1    
   187   95   96 1    
   188   95   97 1    
   189   95  216 1    
   190   96  217 1    
   191   96  218 1    
   192   96  219 1    
   193   97   98 2    
   194   97   99 am   BACKBONE|DICT|INTERRES
   195   99  100 1    
   196   99  220 1    
   197  100  101 1    
   198  100  102 1    
   199  100  221 1    
   200  101  222 1    
   201  101  223 1    
   202  101  224 1    
   203  102  103 2    
   204  102  104 am   BACKBONE|DICT|INTERRES
   205  104  105 1    
   206  104  225 1    
   207  105  106 1    
   208  105  107 1    
   209  105  226 1    
   210  106  227 1    
   211  106  228 1    
   212  106  229 1    
   213  107  108 2    
   214  107  109 am   BACKBONE|DICT|INTERRES
   215  109  110 1    
   216  109  230 1    
   217  110  111 1    
   218  110  112 1    
   219  110  231 1    
   220  111  232 1    
   221  111  233 1    
   222  111  234 1    
   223  112  113 2    
   224  112  114 am   BACKBONE|DICT|INTERRES
   225  114  115 1    
   226  114  235 1    
   227  115  116 1    
   228  115  117 1    
   229  115  236 1    
   230  116  237 1    
   231  116  238 1    
   232  116  239 1    
   233  117  118 2    
   234  117  119 am   BACKBONE|DICT|INTERRES
   235  119  120 1    
   236  119  240 1    
   237  120  121 1    
   238  120  124 1    
   239  120  241 1    
   240  121  122 am   BACKBONE|DICT|INTERRES
   241  121  123 2    
   242  122  242 1    
   243  122  243 1    
   244  124  125 1    
   245  124  244 1    
   246  124  245 1    
   247  125  126 1    
   248  126  246 1    
   249  126  247 1    
@<TRIPOS>SUBSTRUCTURE
     1 UNK         1 GROUP             0       ****    0 ROOT    
