@<TRIPOS>MOLECULE
3R540
247   249    1
SMALL
USER_CHARGES


@<TRIPOS>ATOM
      1 CA         -2.1444  -12.6289  -46.1739 C.3       0 UNK        -0.1800 
      2 C          -0.9660  -12.5053  -47.1281 C.2       0 UNK         0.5000 
      3 O          -1.0847  -11.8506  -48.1646 O.2       0 UNK        -0.5000 
      4 N           0.1701  -13.1224  -46.7810 N.am      1 UNK        -0.5000 
      5 CA          1.4358  -12.9813  -47.5087 C.3       1 UNK         0.1400 
      6 C6          2.3784  -14.2054  -47.3313 C.3       23 UNK        -0.0398 
      7 S7          1.5849  -15.8266  -47.5658 S.3       23 UNK        -0.2404 
      8 C8          1.2663  -15.8794  -49.3530 C.3       23 UNK        -0.0205 
      9 C9          0.1824  -16.9012  -49.6557 C.ar      23 UNK        -0.0193 
     10 C10        -1.1613  -16.5202  -49.6202 C.ar      23 UNK        -0.1150 
     11 C11        -2.1707  -17.4527  -49.8708 C.ar      23 UNK        -0.0193 
     12 C12        -1.8281  -18.7789  -50.1478 C.ar      23 UNK        -0.1150 
     13 C13        -0.4881  -19.1787  -50.1807 C.ar      23 UNK        -0.0193 
     14 C14         0.5139  -18.2275  -49.9475 C.ar      23 UNK        -0.1150 
     15 C15        -0.1554  -20.6396  -50.4812 C.3       23 UNK        -0.0205 
     16 S16         1.2549  -21.3196  -49.5401 S.3       23 UNK        -0.2404 
     17 C17         0.7458  -21.0045  -47.8170 C.3       23 UNK        -0.0398 
     18 CA          0.4343  -22.2803  -47.0013 C.3       11 UNK         0.1400 
     19 N           0.4063  -21.9906  -45.5661 N.am      11 UNK        -0.5000 
     20 C           0.2829  -22.8983  -44.5890 C.2       10 UNK         0.5000 
     21 O           0.2239  -24.1113  -44.7859 O.2       10 UNK        -0.5000 
     22 CA          0.1559  -22.3550  -43.1535 C.3       10 UNK         0.1400 
     23 CB          1.5319  -21.9770  -42.5858 C.3       10 UNK        -0.1800 
     24 N          -0.7471  -21.2057  -43.0651 N.am      10 UNK        -0.5000 
     25 C          -2.0608  -21.2542  -43.3315 C.2       9 UNK         0.5000 
     26 O          -2.6584  -22.2870  -43.6325 O.2       9 UNK        -0.5000 
     27 CA         -2.8268  -19.9184  -43.3107 C.3       9 UNK         0.1400 
     28 CB         -3.1415  -19.4821  -41.8722 C.3       9 UNK        -0.1800 
     29 N          -2.1074  -18.8500  -44.0035 N.am      9 UNK        -0.5000 
     30 C          -1.7943  -18.8665  -45.3069 C.2       8 UNK         0.5000 
     31 O          -2.1251  -19.7624  -46.0814 O.2       8 UNK        -0.5000 
     32 CA         -0.9174  -17.7150  -45.8189 C.3       8 UNK         0.1400 
     33 CB         -1.7707  -16.4732  -46.1121 C.3       8 UNK        -0.1800 
     34 N           0.1585  -17.3853  -44.8812 N.am      8 UNK        -0.5000 
     35 C           1.1768  -18.2079  -44.5872 C.2       7 UNK         0.5000 
     36 O           1.3234  -19.3208  -45.0884 O.2       7 UNK        -0.5000 
     37 CA          2.1634  -17.7393  -43.5044 C.3       7 UNK         0.1400 
     38 CB          3.2279  -16.8008  -44.0922 C.3       7 UNK        -0.1800 
     39 N           1.4771  -17.0813  -42.3943 N.am      7 UNK        -0.5000 
     40 C           0.6559  -17.7097  -41.5393 C.2       6 UNK         0.5000 
     41 O           0.4420  -18.9218  -41.5624 O.2       6 UNK        -0.5000 
     42 CA         -0.0907  -16.8255  -40.5227 C.3       6 UNK         0.1400 
     43 CB          0.7501  -16.6375  -39.2514 C.3       6 UNK        -0.1800 
     44 N          -0.4403  -15.5127  -41.0692 N.am      6 UNK        -0.5000 
     45 C          -1.2764  -15.3121  -42.0987 C.2       5 UNK         0.5000 
     46 O          -1.9000  -16.2180  -42.6505 O.2       5 UNK        -0.5000 
     47 CA         -1.3900  -13.8718  -42.6357 C.3       5 UNK         0.1400 
     48 CB         -2.6020  -13.1556  -42.0241 C.3       5 UNK        -0.1800 
     49 N          -0.1787  -13.0834  -42.3869 N.am      5 UNK        -0.5000 
     50 C           0.9818  -13.2658  -43.0302 C.2       4 UNK         0.5000 
     51 O           1.1120  -14.0170  -44.0015 O.2       4 UNK        -0.5000 
     52 CA          2.2058  -12.5577  -42.4288 C.3       4 UNK         0.1400 
     53 CB          2.5958  -13.2451  -41.1007 C.3       4 UNK        -0.1800 
     54 N           3.3163  -12.6132  -43.3769 N.am      4 UNK        -0.5000 
     55 C           4.5016  -12.0026  -43.2409 C.2       3 UNK         0.5000 
     56 O           4.7942  -11.2696  -42.2953 O.2       3 UNK        -0.5000 
     57 CA          5.5344  -12.2428  -44.3582 C.3       3 UNK         0.1400 
     58 CB          5.9278  -13.7276  -44.4472 C.3       3 UNK        -0.1800 
     59 N           5.0436  -11.7911  -45.6576 N.am      3 UNK        -0.5000 
     60 C           4.8568  -10.5099  -46.0097 C.2       2 UNK         0.5000 
     61 O           5.1906   -9.5501  -45.3142 O.2       2 UNK        -0.5000 
     62 CA          4.1588  -10.2600  -47.3646 C.3       2 UNK         0.1400 
     63 CB          5.1976  -10.0522  -48.4773 C.3       2 UNK        -0.1800 
     64 N           3.2482  -11.3438  -47.7522 N.am      2 UNK        -0.5000 
     65 C           2.1532  -11.6898  -47.0600 C.2       1 UNK         0.5000 
     66 O           1.7550  -11.0640  -46.0731 O.2       1 UNK        -0.5000 
     67 C          -0.8653  -22.9686  -47.4681 C.2       11 UNK         0.5000 
     68 O          -0.7976  -24.0104  -48.1194 O.2       11 UNK        -0.5000 
     69 N          -2.0206  -22.4125  -47.0779 N.am      12 UNK        -0.5000 
     70 CA         -3.3452  -22.9624  -47.3651 C.3       12 UNK         0.1400 
     71 CB         -4.4218  -21.9514  -46.9446 C.3       12 UNK        -0.1800 
     72 C          -3.5931  -24.3316  -46.7045 C.2       12 UNK         0.5000 
     73 O          -4.2440  -25.1838  -47.3056 O.2       12 UNK        -0.5000 
     74 N          -3.0587  -24.5418  -45.4943 N.am      13 UNK        -0.5000 
     75 CA         -3.1046  -25.8300  -44.8024 C.3       13 UNK         0.1400 
     76 CB         -2.6888  -25.6457  -43.3349 C.3       13 UNK        -0.1800 
     77 C          -2.2350  -26.8993  -45.4916 C.2       13 UNK         0.5000 
     78 O          -2.6633  -28.0484  -45.6054 O.2       13 UNK        -0.5000 
     79 N          -1.0350  -26.5043  -45.9359 N.am      14 UNK        -0.5000 
     80 CA         -0.0551  -27.3846  -46.5677 C.3       14 UNK         0.1400 
     81 CB          1.3336  -26.7298  -46.4940 C.3       14 UNK        -0.1800 
     82 C          -0.4028  -27.7462  -48.0227 C.2       14 UNK         0.5000 
     83 O          -0.3400  -28.9225  -48.3830 O.2       14 UNK        -0.5000 
     84 N          -0.7242  -26.7336  -48.8376 N.am      15 UNK        -0.5000 
     85 CA         -0.8354  -26.8430  -50.2952 C.3       15 UNK         0.1400 
     86 CB          0.0445  -25.7522  -50.9301 C.3       15 UNK        -0.1800 
     87 C          -2.2846  -26.7711  -50.8128 C.2       15 UNK         0.5000 
     88 O          -2.4817  -26.7524  -52.0299 O.2       15 UNK        -0.5000 
     89 N          -3.2718  -26.7429  -49.9050 N.am      16 UNK        -0.5000 
     90 CA         -4.7107  -26.6483  -50.1764 C.3       16 UNK         0.1400 
     91 CB         -5.2250  -27.9285  -50.8754 C.3       16 UNK        -0.1800 
     92 C          -5.0477  -25.3363  -50.9156 C.2       16 UNK         0.5000 
     93 O          -4.8454  -24.2602  -50.3526 O.2       16 UNK        -0.5000 
     94 N          -5.5328  -25.4331  -52.1608 N.am      17 UNK        -0.5000 
     95 CA         -5.7959  -24.2868  -53.0338 C.3       17 UNK         0.1400 
     96 CB         -6.6051  -24.7578  -54.2517 C.3       17 UNK        -0.1800 
     97 C          -4.5114  -23.5660  -53.4890 C.2       17 UNK         0.5000 
     98 O          -4.5648  -22.3737  -53.7877 O.2       17 UNK        -0.5000 
     99 N          -3.3896  -24.3031  -53.5545 N.am      18 UNK        -0.5000 
    100 CA        -2.0240  -23.8439  -53.8491 C.3       18 UNK         0.1400 
    101 CB        -1.5308  -22.9419  -52.7011 C.3       18 UNK        -0.1800 
    102 C         -1.8372  -23.1561  -55.2215 C.2       18 UNK         0.5000 
    103 O         -0.8143  -22.5035  -55.4347 O.2       18 UNK        -0.5000 
    104 N         -2.8358  -23.2842  -56.1093 N.am      19 UNK        -0.5000 
    105 CA        -3.0246  -22.5322  -57.3566 C.3       19 UNK         0.1400 
    106 CB        -1.9367  -22.8924  -58.3901 C.3       19 UNK        -0.1800 
    107 C         -3.1656  -21.0053  -57.1376 C.2       19 UNK         0.5000 
    108 O         -2.8962  -20.2288  -58.0563 O.2       19 UNK        -0.5000 
    109 N         -3.5862  -20.5992  -55.9321 N.am      20 UNK        -0.5000 
    110 CA        -3.7880  -19.2119  -55.5270 C.3       20 UNK         0.1400 
    111 CB        -3.2836  -19.0512  -54.0827 C.3       20 UNK        -0.1800 
    112 C         -5.2767  -18.8386  -55.6190 C.2       20 UNK         0.5000 
    113 O         -6.1433  -19.7156  -55.5694 O.2       20 UNK        -0.5000 
    114 N         -5.5496  -17.5328  -55.7335 N.am      21 UNK        -0.5000 
    115 CA        -6.9050  -16.9761  -55.7026 C.3       21 UNK         0.1400 
    116 CB        -6.8938  -15.5833  -56.3519 C.3       21 UNK        -0.1800 
    117 C         -7.4703  -16.9012  -54.2706 C.2       21 UNK         0.5000 
    118 O         -8.6781  -17.0532  -54.0822 O.2       21 UNK        -0.5000 
    119 N         -6.5863  -16.6621  -53.2952 N.am      22 UNK        -0.5000 
    120 CA        -6.8796  -16.6562  -51.8567 C.3       22 UNK         0.1400 
    121 C         -7.0302  -18.0837  -51.2571 C.2       22 UNK         0.5000 
    122 N         -7.7025  -18.2122  -50.1207 N.am      22 UNK        -0.7600 
    123 O         -6.5274  -19.0703  -51.7890 O.2       22 UNK        -0.5000 
    124 C124       -5.8482  -15.7982  -51.0757 C.3       23 UNK        -0.0398 
    125 S125       -4.1010  -16.2271  -51.4038 S.3       23 UNK        -0.2404 
    126 C126       -3.6283  -17.0232  -49.8396 C.3       23 UNK        -0.0205 
    127 H127       -1.9327  -12.1016  -45.2437 H         1 UNK         0.0600 
    128 H128       -2.3566  -13.6720  -45.9475 H         1 UNK         0.0600 
    129 H129       -3.0425  -12.1933  -46.6121 H         1 UNK         0.0600 
    130 H130        0.2418  -13.5984  -45.8893 H         1 UNK         0.3000 
    131 H131        1.2193  -12.8756  -48.5732 H         1 UNK         0.0600 
    132 H132        2.8015  -14.2137  -46.3258 H         1 UNK         0.0800 
    133 H133        3.2253  -14.1458  -48.0165 H         1 UNK         0.0800 
    134 H134        2.1879  -16.1254  -49.8824 H         1 UNK         0.0800 
    135 H135        0.9513  -14.8993  -49.7114 H         1 UNK         0.0800 
    136 H136       -1.4226  -15.4959  -49.3936 H         1 UNK         0.1150 
    137 H137       -2.6096  -19.5009  -50.3402 H         1 UNK         0.1150 
    138 H138        1.5538  -18.5204  -49.9734 H         1 UNK         0.1150 
    139 H139       -1.0241  -21.2714  -50.2883 H         1 UNK         0.0800 
    140 H140        0.0646  -20.7256  -51.5454 H         1 UNK         0.0800 
    141 H141       -0.0925  -20.3089  -47.7799 H         1 UNK         0.0800 
    142 H142        1.5830  -20.4772  -47.3602 H         1 UNK         0.0800 
    143 H143        1.2512  -22.9879  -47.1585 H         1 UNK         0.0600 
    144 H144        0.5038  -21.0120  -45.3077 H         1 UNK         0.3000 
    145 H145       -0.2583  -23.1525  -42.5333 H         1 UNK         0.0600 
    146 H146        1.9901  -21.1614  -43.1455 H         1 UNK         0.0600 
    147 H147        1.4552  -21.6643  -41.5443 H         1 UNK         0.0600 
    148 H148        2.2157  -22.8260  -42.6218 H         1 UNK         0.0600 
    149 H149       -0.3354  -20.3225  -42.7804 H         1 UNK         0.3000 
    150 H150       -3.7734  -20.0708  -43.8332 H         1 UNK         0.0600 
    151 H151       -3.7245  -20.2440  -41.3535 H         1 UNK         0.0600 
    152 H152       -3.7232  -18.5601  -41.8582 H         1 UNK         0.0600 
    153 H153       -2.2342  -19.3130  -41.2927 H         1 UNK         0.0600 
    154 H154       -1.8380  -18.0418  -43.4512 H         1 UNK         0.3000 
    155 H155       -0.4601  -18.0371  -46.7570 H         1 UNK         0.0600 
    156 H156       -2.5623  -16.7088  -46.8236 H         1 UNK         0.0600 
    157 H157       -1.1697  -15.6798  -46.5520 H         1 UNK         0.0600 
    158 H158       -2.2472  -16.0804  -45.2152 H         1 UNK         0.0600 
    159 H159        0.1087  -16.4887  -44.4208 H         1 UNK         0.3000 
    160 H160        2.6724  -18.6219  -43.1112 H         1 UNK         0.0600 
    161 H161        2.7834  -15.9099  -44.5326 H         1 UNK         0.0600 
    162 H162        3.7936  -17.3016  -44.8787 H         1 UNK         0.0600 
    163 H163        3.9398  -16.4810  -43.3312 H         1 UNK         0.0600 
    164 H164        1.5732  -16.0796  -42.3307 H         1 UNK         0.3000 
    165 H165       -1.0164  -17.3372  -40.2514 H         1 UNK         0.0600 
    166 H166        0.2026  -16.0733  -38.4962 H         1 UNK         0.0600 
    167 H167        1.0101  -17.6008  -38.8104 H         1 UNK         0.0600 
    168 H168        1.6815  -16.1084  -39.4572 H         1 UNK         0.0600 
    169 H169        0.0147  -14.7136  -40.6558 H         1 UNK         0.3000 
    170 H170       -1.5425  -13.9448  -43.7125 H         1 UNK         0.0600 
    171 H171       -3.5207  -13.7122  -42.2147 H         1 UNK         0.0600 
    172 H172       -2.5029  -13.0446  -40.9436 H         1 UNK         0.0600 
    173 H173       -2.7304  -12.1623  -42.4545 H         1 UNK         0.0600 
    174 H174       -0.2156  -12.4352  -41.6129 H         1 UNK         0.3000 
    175 H175        1.9484  -11.5121  -42.2491 H         1 UNK         0.0600 
    176 H176        2.8958  -14.2818  -41.2594 H         1 UNK         0.0600 
    177 H177        3.4218  -12.7348  -40.6066 H         1 UNK         0.0600 
    178 H178        1.7678  -13.2464  -40.3914 H         1 UNK         0.0600 
    179 H179        3.1217  -13.1722  -44.1961 H         1 UNK         0.3000 
    180 H180        6.4324  -11.6715  -44.1129 H         1 UNK         0.0600 
    181 H181        5.0924  -14.3562  -44.7571 H         1 UNK         0.0600 
    182 H182        6.2757  -14.0972  -43.4816 H         1 UNK         0.0600 
    183 H183        6.7383  -13.8759  -45.1609 H         1 UNK         0.0600 
    184 H184        4.7661  -12.5062  -46.3109 H         1 UNK         0.3000 
    185 H185        3.5717   -9.3442  -47.2684 H         1 UNK         0.0600 
    186 H186        4.7182   -9.7993  -49.4231 H         1 UNK         0.0600 
    187 H187        5.8758   -9.2344  -48.2299 H         1 UNK         0.0600 
    188 H188        5.8041  -10.9450  -48.6348 H         1 UNK         0.0600 
    189 H189        3.5121  -11.8773  -48.5683 H         1 UNK         0.3000 
    190 H190       -2.0001  -21.5322  -46.5666 H         1 UNK         0.3000 
    191 H191       -3.4127  -23.1009  -48.4454 H         1 UNK         0.0600 
    192 H192       -4.3035  -21.0070  -47.4764 H         1 UNK         0.0600 
    193 H193       -5.4203  -22.3286  -47.1689 H         1 UNK         0.0600 
    194 H194       -4.3793  -21.7414  -45.8752 H         1 UNK         0.0600 
    195 H195       -2.5979  -23.7749  -45.0158 H         1 UNK         0.3000 
    196 H196       -4.1376  -26.1842  -44.8142 H         1 UNK         0.0600 
    197 H197       -2.7386  -26.5913  -42.7937 H         1 UNK         0.0600 
    198 H198       -3.3481  -24.9435  -42.8245 H         1 UNK         0.0600 
    199 H199       -1.6694  -25.2705  -43.2466 H         1 UNK         0.0600 
    200 H200       -0.7393  -25.5489  -45.7585 H         1 UNK         0.3000 
    201 H201       -0.0131  -28.3146  -45.9965 H         1 UNK         0.0600 
    202 H202        1.6348  -26.5631  -45.4596 H         1 UNK         0.0600 
    203 H203        1.3529  -25.7662  -47.0050 H         1 UNK         0.0600 
    204 H204        2.0918  -27.3636  -46.9557 H         1 UNK         0.0600 
    205 H205       -0.7661  -25.7864  -48.4618 H         1 UNK         0.3000 
    206 H206       -0.4455  -27.8059  -50.6307 H         1 UNK         0.0600 
    207 H207       -0.2706  -24.7544  -50.6276 H         1 UNK         0.0600 
    208 H208        1.0871  -25.8712  -50.6353 H         1 UNK         0.0600 
    209 H209        0.0117  -25.7952  -52.0192 H         1 UNK         0.0600 
    210 H210       -3.0118  -26.7009  -48.9291 H         1 UNK         0.3000 
    211 H211       -5.2134  -26.5927  -49.2111 H         1 UNK         0.0600 
    212 H212       -6.3066  -27.8929  -51.0115 H         1 UNK         0.0600 
    213 H213       -5.0098  -28.8102  -50.2717 H         1 UNK         0.0600 
    214 H214       -4.7714  -28.0848  -51.8544 H         1 UNK         0.0600 
    215 H215       -5.6632  -26.3516  -52.5593 H         1 UNK         0.3000 
    216 H216       -6.3994  -23.5647  -52.4796 H         1 UNK         0.0600 
    217 H217       -6.8376  -23.9215  -54.9126 H         1 UNK         0.0600 
    218 H218       -7.5529  -25.2023  -53.9475 H         1 UNK         0.0600 
    219 H219       -6.0589  -25.4980  -54.8377 H         1 UNK         0.0600 
    220 H220       -3.4480  -25.2725  -53.2625 H         1 UNK         0.3000 
    221 H221       -1.4019  -24.7395  -53.8654 H         1 UNK         0.0600 
    222 H222       -1.9916  -21.9539  -52.7414 H         1 UNK         0.0600 
    223 H223       -1.7641  -23.3733  -51.7280 H         1 UNK         0.0600 
    224 H224       -0.4501  -22.8059  -52.7498 H         1 UNK         0.0600 
    225 H225       -3.6238  -23.8464  -55.8217 H         1 UNK         0.3000 
    226 H226       -3.9818  -22.8621  -57.7624 H         1 UNK         0.0600 
    227 H227       -1.8578  -23.9717  -58.5200 H         1 UNK         0.0600 
    228 H228       -2.1688  -22.4661  -59.3667 H         1 UNK         0.0600 
    229 H229       -0.9564  -22.5166  -58.0964 H         1 UNK         0.0600 
    230 H230       -3.8673  -21.2950  -55.2460 H         1 UNK         0.3000 
    231 H231       -3.2137  -18.5437  -56.1721 H         1 UNK         0.0600 
    232 H232       -3.8718  -19.6448  -53.3808 H         1 UNK         0.0600 
    233 H233       -3.3421  -18.0116  -53.7605 H         1 UNK         0.0600 
    234 H234       -2.2423  -19.3606  -53.9895 H         1 UNK         0.0600 
    235 H235       -4.7886  -16.8712  -55.7897 H         1 UNK         0.3000 
    236 H236       -7.5657  -17.6173  -56.2903 H         1 UNK         0.0600 
    237 H237       -6.5519  -15.6332  -57.3859 H         1 UNK         0.0600 
    238 H238       -7.8949  -15.1503  -56.3621 H         1 UNK         0.0600 
    239 H239       -6.2429  -14.8920  -55.8151 H         1 UNK         0.0600 
    240 H240       -5.6089  -16.5917  -53.5343 H         1 UNK         0.3000 
    241 H241       -7.8507  -16.1723  -51.7334 H         1 UNK         0.0600 
    242 H242       -7.8017  -19.1304  -49.7168 H         1 UNK         0.3800 
    243 H243       -8.1318  -17.4233  -49.6624 H         1 UNK         0.3800 
    244 H244       -5.9770  -14.7524  -51.3576 H         1 UNK         0.0800 
    245 H245       -6.0465  -15.8297  -50.0031 H         1 UNK         0.0800 
    246 H246       -4.2755  -17.8828  -49.6575 H         1 UNK         0.0800 
    247 H247       -3.7895  -16.3293  -49.0134 H         1 UNK         0.0800 
@<TRIPOS>BOND
     1    1    2 1    
     2    1  127 1    
     3    1  128 1    
     4    1  129 1    
     5    2    3 2    
     6    2    4 am   BACKBONE|DICT|INTERRES
     7    4    5 1    
     8    4  130 1    
     9    5    6 1    
    10    5   65 1    
    11    5  131 1    
    12    6    7 1    
    13    6  132 1    
    14    6  133 1    
    15    7    8 1    
    16    8    9 1    
    17    8  134 1    
    18    8  135 1    
    19    9   10 ar   
    20    9   14 ar   
    21   10   11 ar   
    22   10  136 1    
    23   11   12 ar   
    24   11  126 1    
    25   12   13 ar   
    26   12  137 1    
    27   13   14 ar   
    28   13   15 1    
    29   14  138 1    
    30   15   16 1    
    31   15  139 1    
    32   15  140 1    
    33   16   17 1    
    34   17   18 1    
    35   17  141 1    
    36   17  142 1    
    37   18   19 1    
    38   18   67 1    
    39   18  143 1    
    40   19   20 am   BACKBONE|DICT|INTERRES
    41   19  144 1    
    42   20   21 2    
    43   20   22 1    
    44   22   23 1    
    45   22   24 1    
    46   22  145 1    
    47   23  146 1    
    48   23  147 1    
    49   23  148 1    
    50   24   25 am   BACKBONE|DICT|INTERRES
    51   24  149 1    
    52   25   26 2    
    53   25   27 1    
    54   27   28 1    
    55   27   29 1    
    56   27  150 1    
    57   28  151 1    
    58   28  152 1    
    59   28  153 1    
    60   29   30 am   BACKBONE|DICT|INTERRES
    61   29  154 1    
    62   30   31 2    
    63   30   32 1    
    64   32   33 1    
    65   32   34 1    
    66   32  155 1    
    67   33  156 1    
    68   33  157 1    
    69   33  158 1    
    70   34   35 am   BACKBONE|DICT|INTERRES
    71   34  159 1    
    72   35   36 2    
    73   35   37 1    
    74   37   38 1    
    75   37   39 1    
    76   37  160 1    
    77   38  161 1    
    78   38  162 1    
    79   38  163 1    
    80   39   40 am   BACKBONE|DICT|INTERRES
    81   39  164 1    
    82   40   41 2    
    83   40   42 1    
    84   42   43 1    
    85   42   44 1    
    86   42  165 1    
    87   43  166 1    
    88   43  167 1    
    89   43  168 1    
    90   44   45 am   BACKBONE|DICT|INTERRES
    91   44  169 1    
    92   45   46 2    
    93   45   47 1    
    94   47   48 1    
    95   47   49 1    
    96   47  170 1    
    97   48  171 1    
    98   48  172 1    
    99   48  173 1    
   100   49   50 am   BACKBONE|DICT|INTERRES
   101   49  174 1    
   102   50   51 2    
   103   50   52 1    
   104   52   53 1    
   105   52   54 1    
   106   52  175 1    
   107   53  176 1    
   108   53  177 1    
   109   53  178 1    
   110   54   55 am   BACKBONE|DICT|INTERRES
   111   54  179 1    
   112   55   56 2    
   113   55   57 1    
   114   57   58 1    
   115   57   59 1    
   116   57  180 1    
   117   58  181 1    
   118   58  182 1    
   119   58  183 1    
   120   59   60 am   BACKBONE|DICT|INTERRES
   121   59  184 1    
   122   60   61 2    
   123   60   62 1    
   124   62   63 1    
   125   62   64 1    
   126   62  185 1    
   127   63  186 1    
   128   63  187 1    
   129   63  188 1    
   130   64   65 am   BACKBONE|DICT|INTERRES
   131   64  189 1    
   132   65   66 2    
   133   67   68 2    
   134   67   69 am   BACKBONE|DICT|INTERRES
   135   69   70 1    
   136   69  190 1    
   137   70   71 1    
   138   70   72 1    
   139   70  191 1    
   140   71  192 1    
   141   71  193 1    
   142   71  194 1    
   143   72   73 2    
   144   72   74 am   BACKBONE|DICT|INTERRES
   145   74   75 1    
   146   74  195 1    
   147   75   76 1    
   148   75   77 1    
   149   75  196 1    
   150   76  197 1    
   151   76  198 1    
   152   76  199 1    
   153   77   78 2    
   154   77   79 am   BACKBONE|DICT|INTERRES
   155   79   80 1    
   156   79  200 1    
   157   80   81 1    
   158   80   82 1    
   159   80  201 1    
   160   81  202 1    
   161   81  203 1    
   162   81  204 1    
   163   82   83 2    
   164   82   84 am   BACKBONE|DICT|INTERRES
   165   84   85 1    
   166   84  205 1    
   167   85   86 1    
   168   85   87 1    
   169   85  206 1    
   170   86  207 1    
   171   86  208 1    
   172   86  209 1    
   173   87   88 2    
   174   87   89 am   BACKBONE|DICT|INTERRES
   175   89   90 1    
   176   89  210 1    
   177   90   91 1    
   178   90   92 1    
   179   90  211 1    
   180   91  212 1    
   181   91  213 1    
   182   91  214 1    
   183   92   93 2    
   184   92   94 am   BACKBONE|DICT|INTERRES
   185   94   95 1    
   186   94  215 1    
   187   95   96 1    
   188   95   97 1    
   189   95  216 1    
   190   96  217 1    
   191   96  218 1    
   192   96  219 1    
   193   97   98 2    
   194   97   99 am   BACKBONE|DICT|INTERRES
   195   99  100 1    
   196   99  220 1    
   197  100  101 1    
   198  100  102 1    
   199  100  221 1    
   200  101  222 1    
   201  101  223 1    
   202  101  224 1    
   203  102  103 2    
   204  102  104 am   BACKBONE|DICT|INTERRES
   205  104  105 1    
   206  104  225 1    
   207  105  106 1    
   208  105  107 1    
   209  105  226 1    
   210  106  227 1    
   211  106  228 1    
   212  106  229 1    
   213  107  108 2    
   214  107  109 am   BACKBONE|DICT|INTERRES
   215  109  110 1    
   216  109  230 1    
   217  110  111 1    
   218  110  112 1    
   219  110  231 1    
   220  111  232 1    
   221  111  233 1    
   222  111  234 1    
   223  112  113 2    
   224  112  114 am   BACKBONE|DICT|INTERRES
   225  114  115 1    
   226  114  235 1    
   227  115  116 1    
   228  115  117 1    
   229  115  236 1    
   230  116  237 1    
   231  116  238 1    
   232  116  239 1    
   233  117  118 2    
   234  117  119 am   BACKBONE|DICT|INTERRES
   235  119  120 1    
   236  119  240 1    
   237  120  121 1    
   238  120  124 1    
   239  120  241 1    
   240  121  122 am   BACKBONE|DICT|INTERRES
   241  121  123 2    
   242  122  242 1    
   243  122  243 1    
   244  124  125 1    
   245  124  244 1    
   246  124  245 1    
   247  125  126 1    
   248  126  246 1    
   249  126  247 1    
@<TRIPOS>SUBSTRUCTURE
     1 UNK         1 GROUP             0       ****    0 ROOT    
