@<TRIPOS>MOLECULE
3R540
247   249    1
SMALL
USER_CHARGES


@<TRIPOS>ATOM
      1 CA         -4.4126  -17.3277  -48.8480 C.3       0 UNK        -0.1800 
      2 C          -3.0028  -16.7912  -48.6487 C.2       0 UNK         0.5000 
      3 O          -2.1145  -17.5294  -48.2265 O.2       0 UNK        -0.5000 
      4 N          -2.8170  -15.4935  -48.9297 N.am      1 UNK        -0.5000 
      5 CA         -1.5630  -14.7343  -48.7900 C.3       1 UNK         0.1400 
      6 C6         -0.4471  -15.1726  -49.7787 C.3       23 UNK        -0.0398 
      7 S7         -0.9630  -14.9890  -51.5220 S.3       23 UNK        -0.2404 
      8 C8          0.0544  -16.2521  -52.3592 C.3       23 UNK        -0.0205 
      9 C9         -0.2105  -17.6653  -51.8564 C.ar      23 UNK        -0.0193 
     10 C10        -1.5136  -18.1657  -51.8023 C.ar      23 UNK        -0.1150 
     11 C11        -1.7691  -19.4440  -51.3052 C.ar      23 UNK        -0.0193 
     12 C12        -0.7011  -20.2428  -50.8893 C.ar      23 UNK        -0.1150 
     13 C13         0.6089  -19.7530  -50.9290 C.ar      23 UNK        -0.0193 
     14 C14         0.8485  -18.4669  -51.4209 C.ar      23 UNK        -0.1150 
     15 C15         1.7595  -20.5949  -50.3962 C.3       23 UNK        -0.0205 
     16 S16         2.4592  -19.9355  -48.8412 S.3       23 UNK        -0.2404 
     17 C17         0.9709  -19.7436  -47.8047 C.3       23 UNK        -0.0398 
     18 CA          0.4735  -21.0965  -47.2311 C.3       11 UNK         0.1400 
     19 N           1.0927  -21.3967  -45.9325 N.am      11 UNK        -0.5000 
     20 C           0.7418  -22.3291  -45.0345 C.2       10 UNK         0.5000 
     21 O          -0.2668  -23.0277  -45.1218 O.2       10 UNK        -0.5000 
     22 CA          1.6939  -22.5402  -43.8446 C.3       10 UNK         0.1400 
     23 CB          3.1537  -22.1519  -44.1525 C.3       10 UNK        -0.1800 
     24 N           1.2282  -21.7977  -42.6772 N.am      10 UNK        -0.5000 
     25 C           0.3350  -22.2504  -41.7867 C.2       9 UNK         0.5000 
     26 O          -0.1866  -23.3643  -41.8396 O.2       9 UNK        -0.5000 
     27 CA         -0.0232  -21.3077  -40.6237 C.3       9 UNK         0.1400 
     28 CB          1.0853  -21.3093  -39.5594 C.3       9 UNK        -0.1800 
     29 N          -0.2714  -19.9366  -41.0650 N.am      9 UNK        -0.5000 
     30 C          -1.3642  -19.5392  -41.7316 C.2       8 UNK         0.5000 
     31 O          -2.3053  -20.2831  -42.0061 O.2       8 UNK        -0.5000 
     32 CA         -1.4053  -18.0629  -42.1760 C.3       8 UNK         0.1400 
     33 CB         -1.8707  -17.1575  -41.0255 C.3       8 UNK        -0.1800 
     34 N          -0.1093  -17.6003  -42.6707 N.am      8 UNK        -0.5000 
     35 C           0.4796  -18.0598  -43.7833 C.2       7 UNK         0.5000 
     36 O          -0.0600  -18.8379  -44.5697 O.2       7 UNK        -0.5000 
     37 CA          1.9263  -17.6032  -44.0427 C.3       7 UNK         0.1400 
     38 CB          1.9561  -16.3311  -44.8989 C.3       7 UNK        -0.1800 
     39 N           2.6737  -17.3766  -42.8043 N.am      7 UNK        -0.5000 
     40 C           3.1181  -18.3562  -42.0050 C.2       6 UNK         0.5000 
     41 O           2.9478  -19.5514  -42.2355 O.2       6 UNK        -0.5000 
     42 CA          3.8280  -17.9292  -40.7079 C.3       6 UNK         0.1400 
     43 CB          5.2816  -17.5218  -40.9909 C.3       6 UNK        -0.1800 
     44 N           3.1375  -16.8328  -40.0298 N.am      6 UNK        -0.5000 
     45 C           1.9068  -16.9214  -39.5060 C.2       5 UNK         0.5000 
     46 O           1.2459  -17.9588  -39.4903 O.2       5 UNK        -0.5000 
     47 CA          1.2906  -15.6213  -38.9549 C.3       5 UNK         0.1400 
     48 CB          1.6164  -15.4626  -37.4626 C.3       5 UNK        -0.1800 
     49 N           1.7152  -14.4161  -39.6751 N.am      5 UNK        -0.5000 
     50 C           1.5095  -14.1902  -40.9789 C.2       4 UNK         0.5000 
     51 O           0.9571  -14.9938  -41.7380 O.2       4 UNK        -0.5000 
     52 CA          2.0544  -12.8686  -41.5341 C.3       4 UNK         0.1400 
     53 CB          3.5783  -12.9405  -41.7321 C.3       4 UNK        -0.1800 
     54 N           1.4125  -12.6189  -42.8158 N.am      4 UNK        -0.5000 
     55 C           1.0943  -11.4264  -43.3271 C.2       3 UNK         0.5000 
     56 O           1.3768  -10.3546  -42.7897 O.2       3 UNK        -0.5000 
     57 CA          0.3314  -11.4277  -44.6673 C.3       3 UNK         0.1400 
     58 CB          1.2652  -11.0234  -45.8186 C.3       3 UNK        -0.1800 
     59 N          -0.2718  -12.7228  -44.9918 N.am      3 UNK        -0.5000 
     60 C          -1.3600  -13.2462  -44.4155 C.2       2 UNK         0.5000 
     61 O          -2.0035  -12.6679  -43.5385 O.2       2 UNK        -0.5000 
     62 CA         -1.7977  -14.6395  -44.9220 C.3       2 UNK         0.1400 
     63 CB         -3.0741  -15.1469  -44.2273 C.3       2 UNK        -0.1800 
     64 N          -2.0143  -14.6751  -46.3707 N.am      2 UNK        -0.5000 
     65 C          -1.0705  -14.6690  -47.3242 C.2       1 UNK         0.5000 
     66 O           0.1338  -14.5879  -47.0774 O.2       1 UNK        -0.5000 
     67 C          -1.0648  -21.1562  -47.2656 C.2       11 UNK         0.5000 
     68 O          -1.6158  -21.8620  -48.1124 O.2       11 UNK        -0.5000 
     69 N          -1.7252  -20.4474  -46.3430 N.am      12 UNK        -0.5000 
     70 CA         -3.1844  -20.3389  -46.3025 C.3       12 UNK         0.1400 
     71 CB         -3.5847  -19.2333  -45.3182 C.3       12 UNK        -0.1800 
     72 C          -3.9072  -21.6616  -45.9756 C.2       12 UNK         0.5000 
     73 O          -5.0702  -21.8140  -46.3510 O.2       12 UNK        -0.5000 
     74 N          -3.2150  -22.5926  -45.3061 N.am      13 UNK        -0.5000 
     75 CA         -3.6988  -23.9435  -45.0294 C.3       13 UNK         0.1400 
     76 CB         -3.2341  -24.3663  -43.6274 C.3       13 UNK        -0.1800 
     77 C          -3.1991  -24.9428  -46.0879 C.2       13 UNK         0.5000 
     78 O          -3.9547  -25.8285  -46.4894 O.2       13 UNK        -0.5000 
     79 N          -1.9353  -24.7938  -46.5085 N.am      14 UNK        -0.5000 
     80 CA         -1.2448  -25.6816  -47.4432 C.3       14 UNK         0.1400 
     81 CB          0.2613  -25.3764  -47.4094 C.3       14 UNK        -0.1800 
     82 C          -1.7693  -25.5975  -48.8865 C.2       14 UNK         0.5000 
     83 O          -1.7832  -26.6194  -49.5737 O.2       14 UNK        -0.5000 
     84 N          -2.1650  -24.3898  -49.3221 N.am      15 UNK        -0.5000 
     85 CA         -2.6619  -24.0554  -50.6644 C.3       15 UNK         0.1400 
     86 CB         -4.0089  -24.7608  -50.9346 C.3       15 UNK        -0.1800 
     87 C          -1.6257  -24.3071  -51.7843 C.2       15 UNK         0.5000 
     88 O          -2.0016  -24.6201  -52.9144 O.2       15 UNK        -0.5000 
     89 N          -0.3337  -24.1945  -51.4412 N.am      16 UNK        -0.5000 
     90 CA          0.7909  -24.6505  -52.2618 C.3       16 UNK         0.1400 
     91 CB          2.0783  -24.6036  -51.4243 C.3       16 UNK        -0.1800 
     92 C           0.9777  -23.8935  -53.5900 C.2       16 UNK         0.5000 
     93 O           1.3976  -24.5064  -54.5726 O.2       16 UNK        -0.5000 
     94 N           0.6766  -22.5877  -53.6032 N.am      17 UNK        -0.5000 
     95 CA          0.7897  -21.7488  -54.7996 C.3       17 UNK         0.1400 
     96 CB          0.9085  -20.2755  -54.3858 C.3       17 UNK        -0.1800 
     97 C          -0.3925  -21.9312  -55.7674 C.2       17 UNK         0.5000 
     98 O          -0.1925  -21.8465  -56.9802 O.2       17 UNK        -0.5000 
     99 N          -1.5873  -22.1688  -55.2034 N.am      18 UNK        -0.5000 
    100 CA        -2.9040  -22.2185  -55.8489 C.3       18 UNK         0.1400 
    101 CB        -2.9620  -23.3453  -56.9009 C.3       18 UNK        -0.1800 
    102 C         -3.3492  -20.8597  -56.4378 C.2       18 UNK         0.5000 
    103 O         -2.5694  -19.9062  -56.4988 O.2       18 UNK        -0.5000 
    104 N         -4.6234  -20.7960  -56.8486 N.am      19 UNK        -0.5000 
    105 CA        -5.3320  -19.6988  -57.5276 C.3       19 UNK         0.1400 
    106 CB        -4.6884  -19.3838  -58.8910 C.3       19 UNK        -0.1800 
    107 C         -5.5289  -18.4090  -56.7034 C.2       19 UNK         0.5000 
    108 O         -6.6136  -17.8270  -56.7501 O.2       19 UNK        -0.5000 
    109 N         -4.5046  -17.9858  -55.9561 N.am      20 UNK        -0.5000 
    110 CA        -4.4632  -16.7895  -55.1138 C.3       20 UNK         0.1400 
    111 CB        -2.9889  -16.4331  -54.8536 C.3       20 UNK        -0.1800 
    112 C         -5.2747  -16.9733  -53.8148 C.2       20 UNK         0.5000 
    113 O         -4.7045  -17.0384  -52.7269 O.2       20 UNK        -0.5000 
    114 N         -6.6004  -17.0927  -53.9688 N.am      21 UNK        -0.5000 
    115 CA        -7.5955  -17.4009  -52.9334 C.3       21 UNK         0.1400 
    116 CB        -7.6337  -16.3121  -51.8399 C.3       21 UNK        -0.1800 
    117 C         -7.4520  -18.8291  -52.3615 C.2       21 UNK         0.5000 
    118 O         -7.8986  -19.0949  -51.2443 O.2       21 UNK        -0.5000 
    119 N         -6.8578  -19.7299  -53.1521 N.am      22 UNK        -0.5000 
    120 CA        -6.6520  -21.1478  -52.8321 C.3       22 UNK         0.1400 
    121 C         -6.7011  -22.0712  -54.0835 C.2       22 UNK         0.5000 
    122 N         -7.3496  -21.6663  -55.1704 N.am      22 UNK        -0.7600 
    123 O         -6.1678  -23.1761  -54.0753 O.2       22 UNK        -0.5000 
    124 C124       -5.4386  -21.3872  -51.8947 C.3       23 UNK        -0.0398 
    125 S125       -3.8146  -20.8631  -52.5577 S.3       23 UNK        -0.2404 
    126 C126       -3.2023  -19.9189  -51.1334 C.3       23 UNK        -0.0205 
    127 H127       -4.4324  -18.4133  -48.7618 H         1 UNK         0.0600 
    128 H128       -4.7906  -17.0591  -49.8346 H         1 UNK         0.0600 
    129 H129       -5.0843  -16.9173  -48.0943 H         1 UNK         0.0600 
    130 H130       -3.5975  -14.9614  -49.2877 H         1 UNK         0.3000 
    131 H131       -1.8191  -13.7035  -49.0389 H         1 UNK         0.0600 
    132 H132        0.4507  -14.5667  -49.6462 H         1 UNK         0.0800 
    133 H133       -0.1514  -16.2029  -49.5775 H         1 UNK         0.0800 
    134 H134       -0.1530  -16.2184  -53.4294 H         1 UNK         0.0800 
    135 H135        1.1063  -15.9884  -52.2396 H         1 UNK         0.0800 
    136 H136       -2.3366  -17.5373  -52.1054 H         1 UNK         0.1150 
    137 H137       -0.8981  -21.2272  -50.4925 H         1 UNK         0.1150 
    138 H138        1.8597  -18.0857  -51.4422 H         1 UNK         0.1150 
    139 H139        1.4322  -21.6204  -50.2266 H         1 UNK         0.0800 
    140 H140        2.5481  -20.6456  -51.1482 H         1 UNK         0.0800 
    141 H141        0.2083  -19.2247  -48.3884 H         1 UNK         0.0800 
    142 H142        1.2035  -19.0478  -46.9977 H         1 UNK         0.0800 
    143 H143        0.8006  -21.8988  -47.8940 H         1 UNK         0.0600 
    144 H144        1.9353  -20.8774  -45.7392 H         1 UNK         0.3000 
    145 H145        1.6872  -23.6084  -43.6175 H         1 UNK         0.0600 
    146 H146        3.8042  -22.3952  -43.3122 H         1 UNK         0.0600 
    147 H147        3.2693  -21.0872  -44.3556 H         1 UNK         0.0600 
    148 H148        3.5297  -22.6981  -45.0187 H         1 UNK         0.0600 
    149 H149        1.6485  -20.8838  -42.5300 H         1 UNK         0.3000 
    150 H150       -0.9353  -21.6864  -40.1572 H         1 UNK         0.0600 
    151 H151        1.2861  -22.3211  -39.2050 H         1 UNK         0.0600 
    152 H152        0.7995  -20.7117  -38.6936 H         1 UNK         0.0600 
    153 H153        2.0202  -20.9049  -39.9488 H         1 UNK         0.0600 
    154 H154        0.4254  -19.2443  -40.8109 H         1 UNK         0.3000 
    155 H155       -2.1237  -17.9680  -42.9914 H         1 UNK         0.0600 
    156 H156       -2.9065  -17.3725  -40.7609 H         1 UNK         0.0600 
    157 H157       -1.8128  -16.1033  -41.2955 H         1 UNK         0.0600 
    158 H158       -1.2706  -17.3030  -40.1280 H         1 UNK         0.0600 
    159 H159        0.3772  -16.9047  -42.1159 H         1 UNK         0.3000 
    160 H160        2.4250  -18.3965  -44.6037 H         1 UNK         0.0600 
    161 H161        1.4626  -15.4946  -44.4047 H         1 UNK         0.0600 
    162 H162        1.4502  -16.5004  -45.8498 H         1 UNK         0.0600 
    163 H163        2.9788  -16.0307  -45.1264 H         1 UNK         0.0600 
    164 H164        2.7919  -16.4173  -42.5136 H         1 UNK         0.3000 
    165 H165        3.8388  -18.7899  -40.0356 H         1 UNK         0.0600 
    166 H166        5.8143  -17.2962  -40.0670 H         1 UNK         0.0600 
    167 H167        5.8225  -18.3283  -41.4879 H         1 UNK         0.0600 
    168 H168        5.3383  -16.6429  -41.6343 H         1 UNK         0.0600 
    169 H169        3.6114  -15.9427  -39.9958 H         1 UNK         0.3000 
    170 H170        0.2071  -15.7018  -39.0595 H         1 UNK         0.0600 
    171 H171        2.6874  -15.3430  -37.2943 H         1 UNK         0.0600 
    172 H172        1.1099  -14.5959  -37.0377 H         1 UNK         0.0600 
    173 H173        1.2907  -16.3367  -36.8969 H         1 UNK         0.0600 
    174 H174        2.1851  -13.7107  -39.1259 H         1 UNK         0.3000 
    175 H175        1.8064  -12.0708  -40.8307 H         1 UNK         0.0600 
    176 H176        3.8573  -13.7416  -42.4180 H         1 UNK         0.0600 
    177 H177        3.9661  -12.0056  -42.1371 H         1 UNK         0.0600 
    178 H178        4.0921  -13.1204  -40.7872 H         1 UNK         0.0600 
    179 H179        1.0803  -13.4529  -43.2809 H         1 UNK         0.3000 
    180 H180       -0.4649  -10.6843  -44.5927 H         1 UNK         0.0600 
    181 H181        0.7226  -10.9573  -46.7619 H         1 UNK         0.0600 
    182 H182        2.0766  -11.7409  -45.9478 H         1 UNK         0.0600 
    183 H183        1.7153  -10.0470  -45.6344 H         1 UNK         0.0600 
    184 H184        0.1697  -13.2648  -45.7305 H         1 UNK         0.3000 
    185 H185       -0.9932  -15.3355  -44.6779 H         1 UNK         0.0600 
    186 H186       -3.3164  -16.1624  -44.5380 H         1 UNK         0.0600 
    187 H187       -2.9537  -15.1619  -43.1443 H         1 UNK         0.0600 
    188 H188       -3.9331  -14.5136  -44.4520 H         1 UNK         0.0600 
    189 H189       -2.9768  -14.7181  -46.6714 H         1 UNK         0.3000 
    190 H190       -1.1943  -19.8976  -45.6708 H         1 UNK         0.3000 
    191 H191       -3.5110  -20.0339  -47.2981 H         1 UNK         0.0600 
    192 H192       -3.3462  -19.5114  -44.2933 H         1 UNK         0.0600 
    193 H193       -4.6565  -19.0378  -45.3650 H         1 UNK         0.0600 
    194 H194       -3.0702  -18.3002  -45.5475 H         1 UNK         0.0600 
    195 H195       -2.2456  -22.4050  -45.0748 H         1 UNK         0.3000 
    196 H196       -4.7906  -23.9611  -45.0380 H         1 UNK         0.0600 
    197 H197       -3.6034  -23.6789  -42.8660 H         1 UNK         0.0600 
    198 H198       -2.1463  -24.3913  -43.5527 H         1 UNK         0.0600 
    199 H199       -3.6037  -25.3613  -43.3768 H         1 UNK         0.0600 
    200 H200       -1.3691  -24.0627  -46.0830 H         1 UNK         0.3000 
    201 H201       -1.3904  -26.7076  -47.0987 H         1 UNK         0.0600 
    202 H202        0.6687  -25.5147  -46.4077 H         1 UNK         0.0600 
    203 H203        0.4710  -24.3516  -47.7167 H         1 UNK         0.0600 
    204 H204        0.8114  -26.0398  -48.0781 H         1 UNK         0.0600 
    205 H205       -2.0754  -23.5980  -48.6883 H         1 UNK         0.3000 
    206 H206       -2.8448  -22.9814  -50.6588 H         1 UNK         0.0600 
    207 H207       -4.7480  -24.4993  -50.1774 H         1 UNK         0.0600 
    208 H208       -4.4183  -24.4769  -51.9045 H         1 UNK         0.0600 
    209 H209       -3.9071  -25.8458  -50.9420 H         1 UNK         0.0600 
    210 H210       -0.1231  -23.9423  -50.4878 H         1 UNK         0.3000 
    211 H211        0.5985  -25.6955  -52.5147 H         1 UNK         0.0600 
    212 H212        2.3395  -23.5856  -51.1370 H         1 UNK         0.0600 
    213 H213        2.9214  -25.0086  -51.9856 H         1 UNK         0.0600 
    214 H214        1.9818  -25.1971  -50.5149 H         1 UNK         0.0600 
    215 H215        0.3346  -22.1521  -52.7603 H         1 UNK         0.3000 
    216 H216        1.7040  -22.0179  -55.3334 H         1 UNK         0.0600 
    217 H217        1.0448  -19.6358  -55.2585 H         1 UNK         0.0600 
    218 H218        1.7638  -20.1156  -53.7297 H         1 UNK         0.0600 
    219 H219        0.0114  -19.9316  -53.8703 H         1 UNK         0.0600 
    220 H220       -1.6131  -22.2337  -54.1965 H         1 UNK         0.3000 
    221 H221       -3.6098  -22.4707  -55.0572 H         1 UNK         0.0600 
    222 H222       -2.3648  -23.1129  -57.7829 H         1 UNK         0.0600 
    223 H223       -2.5995  -24.2868  -56.4877 H         1 UNK         0.0600 
    224 H224       -3.9845  -23.5163  -57.2385 H         1 UNK         0.0600 
    225 H225       -5.1927  -21.6160  -56.6929 H         1 UNK         0.3000 
    226 H226       -6.3326  -20.0852  -57.7277 H         1 UNK         0.0600 
    227 H227       -4.6294  -20.2760  -59.5143 H         1 UNK         0.0600 
    228 H228       -5.2756  -18.6444  -59.4371 H         1 UNK         0.0600 
    229 H229       -3.6803  -18.9825  -58.7835 H         1 UNK         0.0600 
    230 H230       -3.6562  -18.5477  -55.9889 H         1 UNK         0.3000 
    231 H231       -4.9131  -15.9588  -55.6613 H         1 UNK         0.0600 
    232 H232       -2.8980  -15.5882  -54.1696 H         1 UNK         0.0600 
    233 H233       -2.4837  -16.1573  -55.7792 H         1 UNK         0.0600 
    234 H234       -2.4457  -17.2729  -54.4200 H         1 UNK         0.0600 
    235 H235       -6.9486  -17.0821  -54.9231 H         1 UNK         0.3000 
    236 H236       -8.5618  -17.3830  -53.4391 H         1 UNK         0.0600 
    237 H237       -6.7381  -16.3255  -51.2190 H         1 UNK         0.0600 
    238 H238       -7.7255  -15.3176  -52.2762 H         1 UNK         0.0600 
    239 H239       -8.4882  -16.4546  -51.1776 H         1 UNK         0.0600 
    240 H240       -6.4892  -19.4242  -54.0398 H         1 UNK         0.3000 
    241 H241       -7.5301  -21.4711  -52.2700 H         1 UNK         0.0600 
    242 H242       -7.4377  -22.3014  -55.9477 H         1 UNK         0.3800 
    243 H243       -7.8805  -20.8101  -55.1689 H         1 UNK         0.3800 
    244 H244       -5.3801  -22.4390  -51.6238 H         1 UNK         0.0800 
    245 H245       -5.6240  -20.8688  -50.9532 H         1 UNK         0.0800 
    246 H246       -3.2789  -20.5215  -50.2267 H         1 UNK         0.0800 
    247 H247       -3.8588  -19.0608  -50.9915 H         1 UNK         0.0800 
@<TRIPOS>BOND
     1    1    2 1    
     2    1  127 1    
     3    1  128 1    
     4    1  129 1    
     5    2    3 2    
     6    2    4 am   BACKBONE|DICT|INTERRES
     7    4    5 1    
     8    4  130 1    
     9    5    6 1    
    10    5   65 1    
    11    5  131 1    
    12    6    7 1    
    13    6  132 1    
    14    6  133 1    
    15    7    8 1    
    16    8    9 1    
    17    8  134 1    
    18    8  135 1    
    19    9   10 ar   
    20    9   14 ar   
    21   10   11 ar   
    22   10  136 1    
    23   11   12 ar   
    24   11  126 1    
    25   12   13 ar   
    26   12  137 1    
    27   13   14 ar   
    28   13   15 1    
    29   14  138 1    
    30   15   16 1    
    31   15  139 1    
    32   15  140 1    
    33   16   17 1    
    34   17   18 1    
    35   17  141 1    
    36   17  142 1    
    37   18   19 1    
    38   18   67 1    
    39   18  143 1    
    40   19   20 am   BACKBONE|DICT|INTERRES
    41   19  144 1    
    42   20   21 2    
    43   20   22 1    
    44   22   23 1    
    45   22   24 1    
    46   22  145 1    
    47   23  146 1    
    48   23  147 1    
    49   23  148 1    
    50   24   25 am   BACKBONE|DICT|INTERRES
    51   24  149 1    
    52   25   26 2    
    53   25   27 1    
    54   27   28 1    
    55   27   29 1    
    56   27  150 1    
    57   28  151 1    
    58   28  152 1    
    59   28  153 1    
    60   29   30 am   BACKBONE|DICT|INTERRES
    61   29  154 1    
    62   30   31 2    
    63   30   32 1    
    64   32   33 1    
    65   32   34 1    
    66   32  155 1    
    67   33  156 1    
    68   33  157 1    
    69   33  158 1    
    70   34   35 am   BACKBONE|DICT|INTERRES
    71   34  159 1    
    72   35   36 2    
    73   35   37 1    
    74   37   38 1    
    75   37   39 1    
    76   37  160 1    
    77   38  161 1    
    78   38  162 1    
    79   38  163 1    
    80   39   40 am   BACKBONE|DICT|INTERRES
    81   39  164 1    
    82   40   41 2    
    83   40   42 1    
    84   42   43 1    
    85   42   44 1    
    86   42  165 1    
    87   43  166 1    
    88   43  167 1    
    89   43  168 1    
    90   44   45 am   BACKBONE|DICT|INTERRES
    91   44  169 1    
    92   45   46 2    
    93   45   47 1    
    94   47   48 1    
    95   47   49 1    
    96   47  170 1    
    97   48  171 1    
    98   48  172 1    
    99   48  173 1    
   100   49   50 am   BACKBONE|DICT|INTERRES
   101   49  174 1    
   102   50   51 2    
   103   50   52 1    
   104   52   53 1    
   105   52   54 1    
   106   52  175 1    
   107   53  176 1    
   108   53  177 1    
   109   53  178 1    
   110   54   55 am   BACKBONE|DICT|INTERRES
   111   54  179 1    
   112   55   56 2    
   113   55   57 1    
   114   57   58 1    
   115   57   59 1    
   116   57  180 1    
   117   58  181 1    
   118   58  182 1    
   119   58  183 1    
   120   59   60 am   BACKBONE|DICT|INTERRES
   121   59  184 1    
   122   60   61 2    
   123   60   62 1    
   124   62   63 1    
   125   62   64 1    
   126   62  185 1    
   127   63  186 1    
   128   63  187 1    
   129   63  188 1    
   130   64   65 am   BACKBONE|DICT|INTERRES
   131   64  189 1    
   132   65   66 2    
   133   67   68 2    
   134   67   69 am   BACKBONE|DICT|INTERRES
   135   69   70 1    
   136   69  190 1    
   137   70   71 1    
   138   70   72 1    
   139   70  191 1    
   140   71  192 1    
   141   71  193 1    
   142   71  194 1    
   143   72   73 2    
   144   72   74 am   BACKBONE|DICT|INTERRES
   145   74   75 1    
   146   74  195 1    
   147   75   76 1    
   148   75   77 1    
   149   75  196 1    
   150   76  197 1    
   151   76  198 1    
   152   76  199 1    
   153   77   78 2    
   154   77   79 am   BACKBONE|DICT|INTERRES
   155   79   80 1    
   156   79  200 1    
   157   80   81 1    
   158   80   82 1    
   159   80  201 1    
   160   81  202 1    
   161   81  203 1    
   162   81  204 1    
   163   82   83 2    
   164   82   84 am   BACKBONE|DICT|INTERRES
   165   84   85 1    
   166   84  205 1    
   167   85   86 1    
   168   85   87 1    
   169   85  206 1    
   170   86  207 1    
   171   86  208 1    
   172   86  209 1    
   173   87   88 2    
   174   87   89 am   BACKBONE|DICT|INTERRES
   175   89   90 1    
   176   89  210 1    
   177   90   91 1    
   178   90   92 1    
   179   90  211 1    
   180   91  212 1    
   181   91  213 1    
   182   91  214 1    
   183   92   93 2    
   184   92   94 am   BACKBONE|DICT|INTERRES
   185   94   95 1    
   186   94  215 1    
   187   95   96 1    
   188   95   97 1    
   189   95  216 1    
   190   96  217 1    
   191   96  218 1    
   192   96  219 1    
   193   97   98 2    
   194   97   99 am   BACKBONE|DICT|INTERRES
   195   99  100 1    
   196   99  220 1    
   197  100  101 1    
   198  100  102 1    
   199  100  221 1    
   200  101  222 1    
   201  101  223 1    
   202  101  224 1    
   203  102  103 2    
   204  102  104 am   BACKBONE|DICT|INTERRES
   205  104  105 1    
   206  104  225 1    
   207  105  106 1    
   208  105  107 1    
   209  105  226 1    
   210  106  227 1    
   211  106  228 1    
   212  106  229 1    
   213  107  108 2    
   214  107  109 am   BACKBONE|DICT|INTERRES
   215  109  110 1    
   216  109  230 1    
   217  110  111 1    
   218  110  112 1    
   219  110  231 1    
   220  111  232 1    
   221  111  233 1    
   222  111  234 1    
   223  112  113 2    
   224  112  114 am   BACKBONE|DICT|INTERRES
   225  114  115 1    
   226  114  235 1    
   227  115  116 1    
   228  115  117 1    
   229  115  236 1    
   230  116  237 1    
   231  116  238 1    
   232  116  239 1    
   233  117  118 2    
   234  117  119 am   BACKBONE|DICT|INTERRES
   235  119  120 1    
   236  119  240 1    
   237  120  121 1    
   238  120  124 1    
   239  120  241 1    
   240  121  122 am   BACKBONE|DICT|INTERRES
   241  121  123 2    
   242  122  242 1    
   243  122  243 1    
   244  124  125 1    
   245  124  244 1    
   246  124  245 1    
   247  125  126 1    
   248  126  246 1    
   249  126  247 1    
@<TRIPOS>SUBSTRUCTURE
     1 UNK         1 GROUP             0       ****    0 ROOT    
