@<TRIPOS>MOLECULE
3R540
247   249    1
SMALL
USER_CHARGES


@<TRIPOS>ATOM
      1 CA         -0.3832  -14.9843  -43.1852 C.3       0 UNK        -0.1800 
      2 C          -1.0767  -13.7612  -43.7701 C.2       0 UNK         0.5000 
      3 O          -2.3014  -13.6616  -43.6987 O.2       0 UNK        -0.5000 
      4 N          -0.2964  -12.8381  -44.3388 N.am      1 UNK        -0.5000 
      5 CA         -0.7480  -11.5587  -44.8941 C.3       1 UNK         0.1400 
      6 C6         -0.3847  -11.4175  -46.3962 C.3       23 UNK        -0.0398 
      7 S7         -1.1506  -12.7032  -47.4390 S.3       23 UNK        -0.2404 
      8 C8          0.2689  -13.8137  -47.6869 C.3       23 UNK        -0.0205 
      9 C9         -0.1703  -15.1902  -48.1589 C.ar      23 UNK        -0.0193 
     10 C10         0.0850  -15.6116  -49.4682 C.ar      23 UNK        -0.1150 
     11 C11        -0.3000  -16.8893  -49.8861 C.ar      23 UNK        -0.0193 
     12 C12        -0.9386  -17.7438  -48.9852 C.ar      23 UNK        -0.1150 
     13 C13        -1.2112  -17.3307  -47.6778 C.ar      23 UNK        -0.0193 
     14 C14        -0.8182  -16.0538  -47.2703 C.ar      23 UNK        -0.1150 
     15 C15        -1.8918  -18.2725  -46.6954 C.3       23 UNK        -0.0205 
     16 S16        -3.3773  -19.0602  -47.3967 S.3       23 UNK        -0.2404 
     17 C17        -3.3715  -20.6763  -46.5559 C.3       23 UNK        -0.0398 
     18 CA         -2.5703  -21.7394  -47.3486 C.3       11 UNK         0.1400 
     19 N          -1.1192  -21.5422  -47.2710 N.am      11 UNK        -0.5000 
     20 C          -0.2316  -22.0984  -48.1062 C.2       10 UNK         0.5000 
     21 O          -0.5459  -22.7751  -49.0851 O.2       10 UNK        -0.5000 
     22 CA          1.2587  -21.9115  -47.7722 C.3       10 UNK         0.1400 
     23 CB          1.8199  -20.6701  -48.4744 C.3       10 UNK        -0.1800 
     24 N           1.4992  -21.8175  -46.3323 N.am      10 UNK        -0.5000 
     25 C           1.4490  -22.8679  -45.4996 C.2       9 UNK         0.5000 
     26 O           1.2183  -24.0155  -45.8777 O.2       9 UNK        -0.5000 
     27 CA          1.6409  -22.5990  -43.9926 C.3       9 UNK         0.1400 
     28 CB          3.1214  -22.7347  -43.6091 C.3       9 UNK        -0.1800 
     29 N           1.1542  -21.2884  -43.5616 N.am      9 UNK        -0.5000 
     30 C          -0.1066  -20.8528  -43.6886 C.2       8 UNK         0.5000 
     31 O          -1.0252  -21.5472  -44.1258 O.2       8 UNK        -0.5000 
     32 CA         -0.3732  -19.3747  -43.3380 C.3       8 UNK         0.1400 
     33 CB         -0.8639  -19.2492  -41.8889 C.3       8 UNK        -0.1800 
     34 N           0.7720  -18.4756  -43.5309 N.am      8 UNK        -0.5000 
     35 C           1.5241  -18.3461  -44.6360 C.2       7 UNK         0.5000 
     36 O           1.3449  -19.0090  -45.6562 O.2       7 UNK        -0.5000 
     37 CA          2.6822  -17.3278  -44.6014 C.3       7 UNK         0.1400 
     38 CB          2.4518  -16.2189  -45.6372 C.3       7 UNK        -0.1800 
     39 N           2.8998  -16.7109  -43.2893 N.am      7 UNK        -0.5000 
     40 C           3.4368  -17.3187  -42.2216 C.2       6 UNK         0.5000 
     41 O           3.7996  -18.4957  -42.2324 O.2       6 UNK        -0.5000 
     42 CA          3.5312  -16.5013  -40.9122 C.3       6 UNK         0.1400 
     43 CB          4.8376  -16.7795  -40.1394 C.3       6 UNK        -0.1800 
     44 N           3.3035  -15.0564  -41.0739 N.am      6 UNK        -0.5000 
     45 C           4.0781  -14.1803  -41.7294 C.2       5 UNK         0.5000 
     46 O           5.1341  -14.4753  -42.2940 O.2       5 UNK        -0.5000 
     47 CA          3.5813  -12.7218  -41.7469 C.3       5 UNK         0.1400 
     48 CB          4.1533  -11.9406  -40.5544 C.3       5 UNK        -0.1800 
     49 N           3.9528  -12.0389  -42.9849 N.am      5 UNK        -0.5000 
     50 C           3.4649  -12.3458  -44.1919 C.2       4 UNK         0.5000 
     51 O           2.5720  -13.1760  -44.3815 O.2       4 UNK        -0.5000 
     52 CA          4.0281  -11.5341  -45.3633 C.3       4 UNK         0.1400 
     53 CB          3.8514  -12.2444  -46.7201 C.3       4 UNK        -0.1800 
     54 N           3.3726  -10.2284  -45.3813 N.am      4 UNK        -0.5000 
     55 C           3.8906   -9.1209  -45.9295 C.2       3 UNK         0.5000 
     56 O           5.0143   -9.0842  -46.4334 O.2       3 UNK        -0.5000 
     57 CA          3.0245   -7.8431  -45.9500 C.3       3 UNK         0.1400 
     58 CB          2.7954   -7.3718  -47.3964 C.3       3 UNK        -0.1800 
     59 N           1.7159   -8.0270  -45.3200 N.am      3 UNK        -0.5000 
     60 C           1.3956   -7.6584  -44.0725 C.2       2 UNK         0.5000 
     61 O           2.1740   -7.0994  -43.2993 O.2       2 UNK        -0.5000 
     62 CA         -0.0381   -7.9914  -43.6044 C.3       2 UNK         0.1400 
     63 CB         -0.9767   -6.8028  -43.8621 C.3       2 UNK        -0.1800 
     64 N          -0.5997   -9.1936  -44.2352 N.am      2 UNK        -0.5000 
     65 C          -0.0918  -10.4242  -44.0847 C.2       1 UNK         0.5000 
     66 O           0.8939  -10.6562  -43.3816 O.2       1 UNK        -0.5000 
     67 C          -2.9384  -23.1627  -46.8924 C.2       11 UNK         0.5000 
     68 O          -3.7930  -23.7914  -47.5167 O.2       11 UNK        -0.5000 
     69 N          -2.2573  -23.6638  -45.8506 N.am      12 UNK        -0.5000 
     70 CA         -2.3728  -25.0424  -45.3741 C.3       12 UNK         0.1400 
     71 CB         -1.6185  -25.2008  -44.0459 C.3       12 UNK        -0.1800 
     72 C          -1.8856  -26.0642  -46.4190 C.2       12 UNK         0.5000 
     73 O          -2.5731  -27.0573  -46.6541 O.2       12 UNK        -0.5000 
     74 N          -0.7488  -25.7771  -47.0718 N.am      13 UNK        -0.5000 
     75 CA         -0.1949  -26.5670  -48.1771 C.3       13 UNK         0.1400 
     76 CB          1.1977  -26.0333  -48.5438 C.3       13 UNK        -0.1800 
     77 C          -1.1073  -26.5917  -49.4192 C.2       13 UNK         0.5000 
     78 O          -1.2117  -27.6265  -50.0780 O.2       13 UNK        -0.5000 
     79 N          -1.7829  -25.4665  -49.6878 N.am      14 UNK        -0.5000 
     80 CA         -2.8110  -25.3251  -50.7205 C.3       14 UNK         0.1400 
     81 CB         -2.9923  -23.8291  -51.0305 C.3       14 UNK        -0.1800 
     82 C          -4.1645  -25.9596  -50.3369 C.2       14 UNK         0.5000 
     83 O          -5.0697  -25.9763  -51.1703 O.2       14 UNK        -0.5000 
     84 N          -4.3092  -26.4203  -49.0835 N.am      15 UNK        -0.5000 
     85 CA         -5.5284  -26.9554  -48.4628 C.3       15 UNK         0.1400 
     86 CB         -5.8982  -28.3165  -49.0872 C.3       15 UNK        -0.1800 
     87 C          -6.7029  -25.9512  -48.4761 C.2       15 UNK         0.5000 
     88 O          -7.8641  -26.3579  -48.5418 O.2       15 UNK        -0.5000 
     89 N          -6.3641  -24.6529  -48.4497 N.am      16 UNK        -0.5000 
     90 CA         -7.2332  -23.4828  -48.6018 C.3       16 UNK         0.1400 
     91 CB         -8.1832  -23.3547  -47.3935 C.3       16 UNK        -0.1800 
     92 C          -7.9834  -23.4059  -49.9537 C.2       16 UNK         0.5000 
     93 O          -8.9294  -22.6242  -50.0694 O.2       16 UNK        -0.5000 
     94 N          -7.5654  -24.1920  -50.9576 N.am      17 UNK        -0.5000 
     95 CA         -8.1645  -24.2069  -52.2891 C.3       17 UNK         0.1400 
     96 CB         -7.8670  -25.5499  -52.9743 C.3       17 UNK        -0.1800 
     97 C          -7.6173  -23.0428  -53.1258 C.2       17 UNK         0.5000 
     98 O          -6.3988  -22.9160  -53.2665 O.2       17 UNK        -0.5000 
     99 N          -8.5203  -22.2406  -53.7034 N.am      18 UNK        -0.5000 
    100 CA        -8.1976  -21.0774  -54.5380 C.3       18 UNK         0.1400 
    101 CB        -9.4844  -20.2813  -54.8040 C.3       18 UNK        -0.1800 
    102 C         -7.4985  -21.4330  -55.8659 C.2       18 UNK         0.5000 
    103 O         -6.8135  -20.5831  -56.4344 O.2       18 UNK        -0.5000 
    104 N         -7.6683  -22.6804  -56.3276 N.am      19 UNK        -0.5000 
    105 CA        -6.9815  -23.2378  -57.4935 C.3       19 UNK         0.1400 
    106 CB        -7.6672  -24.5524  -57.8975 C.3       19 UNK        -0.1800 
    107 C         -5.4768  -23.4676  -57.2469 C.2       19 UNK         0.5000 
    108 O         -4.6903  -23.3690  -58.1896 O.2       19 UNK        -0.5000 
    109 N         -5.1072  -23.7648  -55.9931 N.am      20 UNK        -0.5000 
    110 CA        -3.7227  -23.9241  -55.5533 C.3       20 UNK         0.1400 
    111 CB        -3.6512  -25.0198  -54.4783 C.3       20 UNK        -0.1800 
    112 C         -3.1622  -22.5899  -55.0346 C.2       20 UNK         0.5000 
    113 O         -2.0698  -22.1942  -55.4423 O.2       20 UNK        -0.5000 
    114 N         -3.9344  -21.9177  -54.1670 N.am      21 UNK        -0.5000 
    115 CA        -3.7338  -20.5984  -53.5523 C.3       21 UNK         0.1400 
    116 CB        -3.7073  -19.4882  -54.6197 C.3       21 UNK        -0.1800 
    117 C         -2.5227  -20.4734  -52.6057 C.2       21 UNK         0.5000 
    118 O         -2.6682  -19.9094  -51.5209 O.2       21 UNK        -0.5000 
    119 N         -1.3606  -20.9766  -53.0275 N.am      22 UNK        -0.5000 
    120 CA        -0.0791  -20.8830  -52.3274 C.3       22 UNK         0.1400 
    121 C          0.6991  -22.2062  -52.5431 C.2       22 UNK         0.5000 
    122 N          0.7513  -23.0856  -51.5526 N.am      22 UNK        -0.7600 
    123 O          1.2571  -22.4457  -53.6111 O.2       22 UNK        -0.5000 
    124 C124        0.7185  -19.6194  -52.7830 C.3       23 UNK        -0.0398 
    125 S125        1.2768  -18.5953  -51.3829 S.3       23 UNK        -0.2404 
    126 C126       -0.0543  -17.3560  -51.3112 C.3       23 UNK        -0.0205 
    127 H127        0.6967  -14.8485  -43.1435 H         1 UNK         0.0600 
    128 H128       -0.5988  -15.8638  -43.7912 H         1 UNK         0.0600 
    129 H129       -0.7384  -15.1714  -42.1720 H         1 UNK         0.0600 
    130 H130        0.7152  -12.9511  -44.3091 H         1 UNK         0.3000 
    131 H131       -1.8292  -11.4540  -44.7848 H         1 UNK         0.0600 
    132 H132        0.6966  -11.4296  -46.5386 H         1 UNK         0.0800 
    133 H133       -0.7258  -10.4554  -46.7818 H         1 UNK         0.0800 
    134 H134        0.8184  -13.9179  -46.7516 H         1 UNK         0.0800 
    135 H135        0.9582  -13.3604  -48.4007 H         1 UNK         0.0800 
    136 H136        0.5830  -14.9474  -50.1604 H         1 UNK         0.1150 
    137 H137       -1.2286  -18.7344  -49.3089 H         1 UNK         0.1150 
    138 H138       -1.0131  -15.7263  -46.2592 H         1 UNK         0.1150 
    139 H139       -1.1654  -19.0283  -46.4069 H         1 UNK         0.0800 
    140 H140       -2.1760  -17.7442  -45.7844 H         1 UNK         0.0800 
    141 H141       -4.4170  -20.9776  -46.4642 H         1 UNK         0.0800 
    142 H142       -3.0016  -20.5677  -45.5360 H         1 UNK         0.0800 
    143 H143       -2.8621  -21.6614  -48.3984 H         1 UNK         0.0600 
    144 H144       -0.7706  -21.0441  -46.4656 H         1 UNK         0.3000 
    145 H145        1.7999  -22.7799  -48.1529 H         1 UNK         0.0600 
    146 H146        2.8592  -20.4917  -48.1990 H         1 UNK         0.0600 
    147 H147        1.7902  -20.8029  -49.5555 H         1 UNK         0.0600 
    148 H148        1.2493  -19.7716  -48.2354 H         1 UNK         0.0600 
    149 H149        1.6362  -20.8823  -45.9584 H         1 UNK         0.3000 
    150 H150        1.0750  -23.3568  -43.4476 H         1 UNK         0.0600 
    151 H151        3.5120  -23.7117  -43.8974 H         1 UNK         0.0600 
    152 H152        3.2613  -22.6349  -42.5325 H         1 UNK         0.0600 
    153 H153        3.7346  -21.9772  -44.0992 H         1 UNK         0.0600 
    154 H154        1.8457  -20.6434  -43.2066 H         1 UNK         0.3000 
    155 H155       -1.1732  -19.0282  -43.9917 H         1 UNK         0.0600 
    156 H156       -0.0911  -19.5400  -41.1762 H         1 UNK         0.0600 
    157 H157       -1.7309  -19.8874  -41.7124 H         1 UNK         0.0600 
    158 H158       -1.1646  -18.2263  -41.6609 H         1 UNK         0.0600 
    159 H159        1.0137  -17.8948  -42.7430 H         1 UNK         0.3000 
    160 H160        3.5892  -17.8680  -44.8800 H         1 UNK         0.0600 
    161 H161        1.5690  -15.6297  -45.3931 H         1 UNK         0.0600 
    162 H162        2.3049  -16.6318  -46.6364 H         1 UNK         0.0600 
    163 H163        3.3044  -15.5418  -45.6888 H         1 UNK         0.0600 
    164 H164        2.6579  -15.7339  -43.2096 H         1 UNK         0.3000 
    165 H165        2.7098  -16.8581  -40.2894 H         1 UNK         0.0600 
    166 H166        5.7209  -16.5344  -40.7295 H         1 UNK         0.0600 
    167 H167        4.8800  -16.2034  -39.2152 H         1 UNK         0.0600 
    168 H168        4.9138  -17.8326  -39.8661 H         1 UNK         0.0600 
    169 H169        2.4617  -14.7080  -40.6358 H         1 UNK         0.3000 
    170 H170        2.4912  -12.7182  -41.6753 H         1 UNK         0.0600 
    171 H171        5.2428  -11.8973  -40.5867 H         1 UNK         0.0600 
    172 H172        3.7760  -10.9178  -40.5359 H         1 UNK         0.0600 
    173 H173        3.8715  -12.4068  -39.6094 H         1 UNK         0.0600 
    174 H174        4.6757  -11.3386  -42.9127 H         1 UNK         0.3000 
    175 H175        5.0977  -11.4040  -45.1843 H         1 UNK         0.0600 
    176 H176        2.8017  -12.3531  -46.9868 H         1 UNK         0.0600 
    177 H177        4.3434  -11.6947  -47.5224 H         1 UNK         0.0600 
    178 H178        4.2887  -13.2433  -46.6964 H         1 UNK         0.0600 
    179 H179        2.4885  -10.1741  -44.8906 H         1 UNK         0.3000 
    180 H180        3.5858   -7.0659  -45.4275 H         1 UNK         0.0600 
    181 H181        2.2127   -6.4508  -47.4227 H         1 UNK         0.0600 
    182 H182        2.2655   -8.1215  -47.9853 H         1 UNK         0.0600 
    183 H183        3.7416   -7.1678  -47.8993 H         1 UNK         0.0600 
    184 H184        1.0042   -8.4645  -45.8855 H         1 UNK         0.3000 
    185 H185        0.0026   -8.1663  -42.5271 H         1 UNK         0.0600 
    186 H186       -1.9718   -6.9906  -43.4586 H         1 UNK         0.0600 
    187 H187       -0.6001   -5.8970  -43.3847 H         1 UNK         0.0600 
    188 H188       -1.0790   -6.5937  -44.9277 H         1 UNK         0.0600 
    189 H189       -1.4149   -9.0574  -44.8161 H         1 UNK         0.3000 
    190 H190       -1.6133  -23.0585  -45.3527 H         1 UNK         0.3000 
    191 H191       -3.4305  -25.2386  -45.1856 H         1 UNK         0.0600 
    192 H192       -1.7667  -26.1994  -43.6331 H         1 UNK         0.0600 
    193 H193       -1.9714  -24.4851  -43.3031 H         1 UNK         0.0600 
    194 H194       -0.5460  -25.0556  -44.1679 H         1 UNK         0.0600 
    195 H195       -0.1976  -24.9805  -46.7652 H         1 UNK         0.3000 
    196 H196       -0.0841  -27.5952  -47.8268 H         1 UNK         0.0600 
    197 H197        1.1535  -25.0026  -48.8948 H         1 UNK         0.0600 
    198 H198        1.8724  -26.0683  -47.6884 H         1 UNK         0.0600 
    199 H199        1.6481  -26.6307  -49.3375 H         1 UNK         0.0600 
    200 H200       -1.5931  -24.6425  -49.1302 H         1 UNK         0.3000 
    201 H201       -2.4674  -25.8239  -51.6285 H         1 UNK         0.0600 
    202 H202       -3.7874  -23.6591  -51.7558 H         1 UNK         0.0600 
    203 H203       -3.2508  -23.2610  -50.1381 H         1 UNK         0.0600 
    204 H204       -2.0810  -23.4020  -51.4460 H         1 UNK         0.0600 
    205 H205       -3.5136  -26.3505  -48.4612 H         1 UNK         0.3000 
    206 H206       -5.2875  -27.1255  -47.4128 H         1 UNK         0.0600 
    207 H207       -5.0521  -29.0033  -49.0619 H         1 UNK         0.0600 
    208 H208       -6.7149  -28.7895  -48.5409 H         1 UNK         0.0600 
    209 H209       -6.2157  -28.2127  -50.1253 H         1 UNK         0.0600 
    210 H210       -5.3768  -24.4363  -48.3306 H         1 UNK         0.3000 
    211 H211       -6.5663  -22.6195  -48.5859 H         1 UNK         0.0600 
    212 H212       -8.7217  -22.4066  -47.4150 H         1 UNK         0.0600 
    213 H213       -7.6319  -23.3901  -46.4538 H         1 UNK         0.0600 
    214 H214       -8.9270  -24.1518  -47.3771 H         1 UNK         0.0600 
    215 H215       -6.7504  -24.7815  -50.8272 H         1 UNK         0.3000 
    216 H216       -9.2483  -24.1114  -52.1933 H         1 UNK         0.0600 
    217 H217       -6.8009  -25.6853  -53.1590 H         1 UNK         0.0600 
    218 H218       -8.3751  -25.6171  -53.9370 H         1 UNK         0.0600 
    219 H219       -8.2087  -26.3874  -52.3656 H         1 UNK         0.0600 
    220 H220       -9.5020  -22.4125  -53.5388 H         1 UNK         0.3000 
    221 H221       -7.5124  -20.4412  -53.9734 H         1 UNK         0.0600 
    222 H222       -9.9429  -19.9490  -53.8722 H         1 UNK         0.0600 
    223 H223      -10.2196  -20.8752  -55.3488 H         1 UNK         0.0600 
    224 H224       -9.2776  -19.3897  -55.3979 H         1 UNK         0.0600 
    225 H225       -8.2715  -23.3034  -55.8116 H         1 UNK         0.3000 
    226 H226       -7.0798  -22.5315  -58.3209 H         1 UNK         0.0600 
    227 H227       -7.6156  -25.2958  -57.1006 H         1 UNK         0.0600 
    228 H228       -8.7178  -24.3911  -58.1401 H         1 UNK         0.0600 
    229 H229       -7.1937  -24.9842  -58.7804 H         1 UNK         0.0600 
    230 H230       -5.8127  -23.7717  -55.2692 H         1 UNK         0.3000 
    231 H231       -3.0986  -24.2434  -56.3910 H         1 UNK         0.0600 
    232 H232       -4.3472  -24.8326  -53.6611 H         1 UNK         0.0600 
    233 H233       -2.6486  -25.0907  -54.0546 H         1 UNK         0.0600 
    234 H234       -3.8962  -25.9951  -54.8993 H         1 UNK         0.0600 
    235 H235       -4.8014  -22.3669  -53.8761 H         1 UNK         0.3000 
    236 H236       -4.6210  -20.4345  -52.9381 H         1 UNK         0.0600 
    237 H237       -4.6115  -19.5043  -55.2277 H         1 UNK         0.0600 
    238 H238       -3.6463  -18.5029  -54.1552 H         1 UNK         0.0600 
    239 H239       -2.8521  -19.5862  -55.2891 H         1 UNK         0.0600 
    240 H240       -1.3450  -21.4543  -53.9271 H         1 UNK         0.3000 
    241 H241       -0.2881  -20.8078  -51.2577 H         1 UNK         0.0600 
    242 H242        1.2557  -23.9454  -51.6947 H         1 UNK         0.3800 
    243 H243        0.2489  -22.9371  -50.6792 H         1 UNK         0.3800 
    244 H244        0.1221  -18.9944  -53.4501 H         1 UNK         0.0800 
    245 H245        1.6008  -19.8784  -53.3710 H         1 UNK         0.0800 
    246 H246        0.1990  -16.5170  -51.9609 H         1 UNK         0.0800 
    247 H247       -0.9819  -17.7782  -51.6998 H         1 UNK         0.0800 
@<TRIPOS>BOND
     1    1    2 1    
     2    1  127 1    
     3    1  128 1    
     4    1  129 1    
     5    2    3 2    
     6    2    4 am   BACKBONE|DICT|INTERRES
     7    4    5 1    
     8    4  130 1    
     9    5    6 1    
    10    5   65 1    
    11    5  131 1    
    12    6    7 1    
    13    6  132 1    
    14    6  133 1    
    15    7    8 1    
    16    8    9 1    
    17    8  134 1    
    18    8  135 1    
    19    9   10 ar   
    20    9   14 ar   
    21   10   11 ar   
    22   10  136 1    
    23   11   12 ar   
    24   11  126 1    
    25   12   13 ar   
    26   12  137 1    
    27   13   14 ar   
    28   13   15 1    
    29   14  138 1    
    30   15   16 1    
    31   15  139 1    
    32   15  140 1    
    33   16   17 1    
    34   17   18 1    
    35   17  141 1    
    36   17  142 1    
    37   18   19 1    
    38   18   67 1    
    39   18  143 1    
    40   19   20 am   BACKBONE|DICT|INTERRES
    41   19  144 1    
    42   20   21 2    
    43   20   22 1    
    44   22   23 1    
    45   22   24 1    
    46   22  145 1    
    47   23  146 1    
    48   23  147 1    
    49   23  148 1    
    50   24   25 am   BACKBONE|DICT|INTERRES
    51   24  149 1    
    52   25   26 2    
    53   25   27 1    
    54   27   28 1    
    55   27   29 1    
    56   27  150 1    
    57   28  151 1    
    58   28  152 1    
    59   28  153 1    
    60   29   30 am   BACKBONE|DICT|INTERRES
    61   29  154 1    
    62   30   31 2    
    63   30   32 1    
    64   32   33 1    
    65   32   34 1    
    66   32  155 1    
    67   33  156 1    
    68   33  157 1    
    69   33  158 1    
    70   34   35 am   BACKBONE|DICT|INTERRES
    71   34  159 1    
    72   35   36 2    
    73   35   37 1    
    74   37   38 1    
    75   37   39 1    
    76   37  160 1    
    77   38  161 1    
    78   38  162 1    
    79   38  163 1    
    80   39   40 am   BACKBONE|DICT|INTERRES
    81   39  164 1    
    82   40   41 2    
    83   40   42 1    
    84   42   43 1    
    85   42   44 1    
    86   42  165 1    
    87   43  166 1    
    88   43  167 1    
    89   43  168 1    
    90   44   45 am   BACKBONE|DICT|INTERRES
    91   44  169 1    
    92   45   46 2    
    93   45   47 1    
    94   47   48 1    
    95   47   49 1    
    96   47  170 1    
    97   48  171 1    
    98   48  172 1    
    99   48  173 1    
   100   49   50 am   BACKBONE|DICT|INTERRES
   101   49  174 1    
   102   50   51 2    
   103   50   52 1    
   104   52   53 1    
   105   52   54 1    
   106   52  175 1    
   107   53  176 1    
   108   53  177 1    
   109   53  178 1    
   110   54   55 am   BACKBONE|DICT|INTERRES
   111   54  179 1    
   112   55   56 2    
   113   55   57 1    
   114   57   58 1    
   115   57   59 1    
   116   57  180 1    
   117   58  181 1    
   118   58  182 1    
   119   58  183 1    
   120   59   60 am   BACKBONE|DICT|INTERRES
   121   59  184 1    
   122   60   61 2    
   123   60   62 1    
   124   62   63 1    
   125   62   64 1    
   126   62  185 1    
   127   63  186 1    
   128   63  187 1    
   129   63  188 1    
   130   64   65 am   BACKBONE|DICT|INTERRES
   131   64  189 1    
   132   65   66 2    
   133   67   68 2    
   134   67   69 am   BACKBONE|DICT|INTERRES
   135   69   70 1    
   136   69  190 1    
   137   70   71 1    
   138   70   72 1    
   139   70  191 1    
   140   71  192 1    
   141   71  193 1    
   142   71  194 1    
   143   72   73 2    
   144   72   74 am   BACKBONE|DICT|INTERRES
   145   74   75 1    
   146   74  195 1    
   147   75   76 1    
   148   75   77 1    
   149   75  196 1    
   150   76  197 1    
   151   76  198 1    
   152   76  199 1    
   153   77   78 2    
   154   77   79 am   BACKBONE|DICT|INTERRES
   155   79   80 1    
   156   79  200 1    
   157   80   81 1    
   158   80   82 1    
   159   80  201 1    
   160   81  202 1    
   161   81  203 1    
   162   81  204 1    
   163   82   83 2    
   164   82   84 am   BACKBONE|DICT|INTERRES
   165   84   85 1    
   166   84  205 1    
   167   85   86 1    
   168   85   87 1    
   169   85  206 1    
   170   86  207 1    
   171   86  208 1    
   172   86  209 1    
   173   87   88 2    
   174   87   89 am   BACKBONE|DICT|INTERRES
   175   89   90 1    
   176   89  210 1    
   177   90   91 1    
   178   90   92 1    
   179   90  211 1    
   180   91  212 1    
   181   91  213 1    
   182   91  214 1    
   183   92   93 2    
   184   92   94 am   BACKBONE|DICT|INTERRES
   185   94   95 1    
   186   94  215 1    
   187   95   96 1    
   188   95   97 1    
   189   95  216 1    
   190   96  217 1    
   191   96  218 1    
   192   96  219 1    
   193   97   98 2    
   194   97   99 am   BACKBONE|DICT|INTERRES
   195   99  100 1    
   196   99  220 1    
   197  100  101 1    
   198  100  102 1    
   199  100  221 1    
   200  101  222 1    
   201  101  223 1    
   202  101  224 1    
   203  102  103 2    
   204  102  104 am   BACKBONE|DICT|INTERRES
   205  104  105 1    
   206  104  225 1    
   207  105  106 1    
   208  105  107 1    
   209  105  226 1    
   210  106  227 1    
   211  106  228 1    
   212  106  229 1    
   213  107  108 2    
   214  107  109 am   BACKBONE|DICT|INTERRES
   215  109  110 1    
   216  109  230 1    
   217  110  111 1    
   218  110  112 1    
   219  110  231 1    
   220  111  232 1    
   221  111  233 1    
   222  111  234 1    
   223  112  113 2    
   224  112  114 am   BACKBONE|DICT|INTERRES
   225  114  115 1    
   226  114  235 1    
   227  115  116 1    
   228  115  117 1    
   229  115  236 1    
   230  116  237 1    
   231  116  238 1    
   232  116  239 1    
   233  117  118 2    
   234  117  119 am   BACKBONE|DICT|INTERRES
   235  119  120 1    
   236  119  240 1    
   237  120  121 1    
   238  120  124 1    
   239  120  241 1    
   240  121  122 am   BACKBONE|DICT|INTERRES
   241  121  123 2    
   242  122  242 1    
   243  122  243 1    
   244  124  125 1    
   245  124  244 1    
   246  124  245 1    
   247  125  126 1    
   248  126  246 1    
   249  126  247 1    
@<TRIPOS>SUBSTRUCTURE
     1 UNK         1 GROUP             0       ****    0 ROOT    
