@<TRIPOS>MOLECULE
3R540
247   249    1
SMALL
USER_CHARGES


@<TRIPOS>ATOM
      1 CA         -2.9035  -11.5946  -50.6712 C.3       0 UNK        -0.1800 
      2 C          -1.6811  -11.9320  -49.8312 C.2       0 UNK         0.5000 
      3 O          -1.7059  -11.7616  -48.6126 O.2       0 UNK        -0.5000 
      4 N          -0.6205  -12.4413  -50.4689 N.am      1 UNK        -0.5000 
      5 CA          0.6055  -12.9147  -49.8171 C.3       1 UNK         0.1400 
      6 C6          1.7306  -13.1773  -50.8466 C.3       23 UNK        -0.0398 
      7 S7          3.3898  -13.1746  -50.0871 S.3       23 UNK        -0.2404 
      8 C8          4.1932  -14.5797  -50.9285 C.3       23 UNK        -0.0205 
      9 C9          3.5004  -15.9144  -50.6788 C.ar      23 UNK        -0.0193 
     10 C10         3.1233  -16.7198  -51.7550 C.ar      23 UNK        -0.1150 
     11 C11         2.5030  -17.9535  -51.5396 C.ar      23 UNK        -0.0193 
     12 C12         2.2517  -18.3756  -50.2281 C.ar      23 UNK        -0.1150 
     13 C13         2.6422  -17.5894  -49.1328 C.ar      23 UNK        -0.0193 
     14 C14         3.2667  -16.3626  -49.3769 C.ar      23 UNK        -0.1150 
     15 C15         2.4391  -18.0057  -47.6718 C.3       23 UNK        -0.0205 
     16 S16         1.8465  -19.7106  -47.3907 S.3       23 UNK        -0.2404 
     17 C17         0.2808  -19.3972  -46.5110 C.3       23 UNK        -0.0398 
     18 CA         -0.6198  -20.6491  -46.4624 C.3       11 UNK         0.1400 
     19 N           0.0112  -21.7599  -45.7466 N.am      11 UNK        -0.5000 
     20 C          -0.3810  -23.0382  -45.8255 C.2       10 UNK         0.5000 
     21 O          -1.3264  -23.4231  -46.5102 O.2       10 UNK        -0.5000 
     22 CA          0.3748  -24.0436  -44.9401 C.3       10 UNK         0.1400 
     23 CB          1.6640  -24.5106  -45.6307 C.3       10 UNK        -0.1800 
     24 N           0.6976  -23.4843  -43.6272 N.am      10 UNK        -0.5000 
     25 C          -0.2052  -23.0726  -42.7292 C.2       9 UNK         0.5000 
     26 O          -1.4204  -23.1851  -42.8928 O.2       9 UNK        -0.5000 
     27 CA          0.3252  -22.3513  -41.4788 C.3       9 UNK         0.1400 
     28 CB          0.7967  -23.3492  -40.4048 C.3       9 UNK        -0.1800 
     29 N           1.3421  -21.3311  -41.7702 N.am      9 UNK        -0.5000 
     30 C           2.6148  -21.4822  -42.1740 C.2       8 UNK         0.5000 
     31 O           3.1231  -22.5764  -42.4213 O.2       8 UNK        -0.5000 
     32 CA          3.4626  -20.2045  -42.3707 C.3       8 UNK         0.1400 
     33 CB          3.7091  -19.9586  -43.8677 C.3       8 UNK        -0.1800 
     34 N           2.8621  -19.0001  -41.7923 N.am      8 UNK        -0.5000 
     35 C           2.6902  -18.7747  -40.4801 C.2       7 UNK         0.5000 
     36 O           3.1579  -19.5006  -39.6023 O.2       7 UNK        -0.5000 
     37 CA          1.8168  -17.5675  -40.0695 C.3       7 UNK         0.1400 
     38 CB          2.6957  -16.4297  -39.5278 C.3       7 UNK        -0.1800 
     39 N           0.9668  -17.0330  -41.1383 N.am      7 UNK        -0.5000 
     40 C           0.0389  -17.7052  -41.8365 C.2       6 UNK         0.5000 
     41 O          -0.2618  -18.8780  -41.6143 O.2       6 UNK        -0.5000 
     42 CA         -0.6019  -16.9685  -43.0315 C.3       6 UNK         0.1400 
     43 CB         -1.9834  -16.4205  -42.6476 C.3       6 UNK        -0.1800 
     44 N           0.2233  -15.8780  -43.5693 N.am      6 UNK        -0.5000 
     45 C           1.4600  -16.0186  -44.0723 C.2       5 UNK         0.5000 
     46 O           2.0264  -17.1091  -44.1618 O.2       5 UNK        -0.5000 
     47 CA          2.1965  -14.7318  -44.4916 C.3       5 UNK         0.1400 
     48 CB          3.3062  -14.9931  -45.5222 C.3       5 UNK        -0.1800 
     49 N           1.2698  -13.7402  -45.0329 N.am      5 UNK        -0.5000 
     50 C           0.8733  -12.6250  -44.4088 C.2       4 UNK         0.5000 
     51 O           1.2483  -12.2967  -43.2829 O.2       4 UNK        -0.5000 
     52 CA         -0.1413  -11.7427  -45.1593 C.3       4 UNK         0.1400 
     53 CB          0.5748  -10.8473  -46.1811 C.3       4 UNK        -0.1800 
     54 N          -1.1853  -12.5172  -45.8341 N.am      4 UNK        -0.5000 
     55 C          -2.0973  -13.2737  -45.2063 C.2       3 UNK         0.5000 
     56 O          -2.1541  -13.3964  -43.9829 O.2       3 UNK        -0.5000 
     57 CA         -3.1052  -14.0290  -46.0890 C.3       3 UNK         0.1400 
     58 CB         -4.2543  -13.1066  -46.5240 C.3       3 UNK        -0.1800 
     59 N          -2.4645  -14.6025  -47.2705 N.am      3 UNK        -0.5000 
     60 C          -1.7803  -15.7551  -47.2728 C.2       2 UNK         0.5000 
     61 O          -1.6652  -16.4863  -46.2903 O.2       2 UNK        -0.5000 
     62 CA         -1.0983  -16.1534  -48.5968 C.3       2 UNK         0.1400 
     63 CB         -2.0686  -16.9675  -49.4663 C.3       2 UNK        -0.1800 
     64 N          -0.5911  -15.0129  -49.3606 N.am      2 UNK        -0.5000 
     65 C           0.3279  -14.1405  -48.9192 C.2       1 UNK         0.5000 
     66 O           0.8808  -14.2309  -47.8232 O.2       1 UNK        -0.5000 
     67 C          -2.0137  -20.3058  -45.8959 C.2       11 UNK         0.5000 
     68 O          -2.8919  -19.9302  -46.6709 O.2       11 UNK        -0.5000 
     69 N          -2.2254  -20.4966  -44.5827 N.am      12 UNK        -0.5000 
     70 CA         -3.5382  -20.3569  -43.9386 C.3       12 UNK         0.1400 
     71 CB         -3.3815  -20.3393  -42.4111 C.3       12 UNK        -0.1800 
     72 C          -4.5169  -21.4669  -44.3682 C.2       12 UNK         0.5000 
     73 O          -5.7082  -21.2037  -44.5299 O.2       12 UNK        -0.5000 
     74 N          -3.9809  -22.6727  -44.6005 N.am      13 UNK        -0.5000 
     75 CA         -4.6799  -23.8126  -45.1991 C.3       13 UNK         0.1400 
     76 CB         -3.9632  -25.1024  -44.7658 C.3       13 UNK        -0.1800 
     77 C          -4.7721  -23.7272  -46.7401 C.2       13 UNK         0.5000 
     78 O          -5.2830  -24.6590  -47.3657 O.2       13 UNK        -0.5000 
     79 N          -4.2411  -22.6437  -47.3312 N.am      14 UNK        -0.5000 
     80 CA         -4.1569  -22.3416  -48.7636 C.3       14 UNK         0.1400 
     81 CB         -5.5622  -22.0512  -49.3292 C.3       14 UNK        -0.1800 
     82 C          -3.4103  -23.4159  -49.5787 C.2       14 UNK         0.5000 
     83 O          -3.6903  -23.5740  -50.7655 O.2       14 UNK        -0.5000 
     84 N          -2.5057  -24.1632  -48.9295 N.am      15 UNK        -0.5000 
     85 CA         -1.7877  -25.3374  -49.4356 C.3       15 UNK         0.1400 
     86 CB         -0.6903  -24.9044  -50.4271 C.3       15 UNK        -0.1800 
     87 C          -2.7318  -26.4176  -50.0116 C.2       15 UNK         0.5000 
     88 O          -2.4341  -27.0019  -51.0531 O.2       15 UNK        -0.5000 
     89 N          -3.8820  -26.6225  -49.3483 N.am      16 UNK        -0.5000 
     90 CA         -5.0054  -27.4637  -49.7835 C.3       16 UNK         0.1400 
     91 CB         -4.6094  -28.9548  -49.8254 C.3       16 UNK        -0.1800 
     92 C          -5.6315  -26.9550  -51.1016 C.2       16 UNK         0.5000 
     93 O          -5.9233  -27.7401  -52.0045 O.2       16 UNK        -0.5000 
     94 N          -5.7984  -25.6273  -51.1711 N.am      17 UNK        -0.5000 
     95 CA         -6.3181  -24.8099  -52.2729 C.3       17 UNK         0.1400 
     96 CB         -7.7194  -25.2718  -52.7211 C.3       17 UNK        -0.1800 
     97 C          -5.3506  -24.6250  -53.4617 C.2       17 UNK         0.5000 
     98 O          -5.7186  -23.9542  -54.4269 O.2       17 UNK        -0.5000 
     99 N          -4.1239  -25.1601  -53.3772 N.am      18 UNK        -0.5000 
    100 CA        -3.0767  -24.9757  -54.3871 C.3       18 UNK         0.1400 
    101 CB        -1.9992  -26.0553  -54.2097 C.3       18 UNK        -0.1800 
    102 C         -2.4420  -23.5695  -54.3577 C.2       18 UNK         0.5000 
    103 O         -1.9007  -23.1340  -55.3744 O.2       18 UNK        -0.5000 
    104 N         -2.5254  -22.8857  -53.2097 N.am      19 UNK        -0.5000 
    105 CA        -2.0264  -21.5317  -52.9713 C.3       19 UNK         0.1400 
    106 CB        -0.9144  -21.5776  -51.9064 C.3       19 UNK        -0.1800 
    107 C         -3.1758  -20.5871  -52.5698 C.2       19 UNK         0.5000 
    108 O         -2.9442  -19.6050  -51.8609 O.2       19 UNK        -0.5000 
    109 N         -4.3990  -20.8848  -53.0317 N.am      20 UNK        -0.5000 
    110 CA        -5.5822  -20.0434  -52.8591 C.3       20 UNK         0.1400 
    111 CB        -6.8180  -20.7814  -53.3967 C.3       20 UNK        -0.1800 
    112 C         -5.3929  -18.6816  -53.5520 C.2       20 UNK         0.5000 
    113 O         -5.2793  -18.6343  -54.7785 O.2       20 UNK        -0.5000 
    114 N         -5.3228  -17.6181  -52.7394 N.am      21 UNK        -0.5000 
    115 CA        -5.0576  -16.2275  -53.1245 C.3       21 UNK         0.1400 
    116 CB        -6.2157  -15.6604  -53.9732 C.3       21 UNK        -0.1800 
    117 C         -3.6698  -16.0185  -53.7731 C.2       21 UNK         0.5000 
    118 O         -3.5238  -15.1561  -54.6418 O.2       21 UNK        -0.5000 
    119 N         -2.6725  -16.8017  -53.3349 N.am      22 UNK        -0.5000 
    120 CA        -1.2579  -16.6453  -53.7114 C.3       22 UNK         0.1400 
    121 C         -0.6706  -15.2744  -53.2681 C.2       22 UNK         0.5000 
    122 N          0.2246  -14.6893  -54.0522 N.am      22 UNK        -0.7600 
    123 O         -1.0076  -14.7496  -52.2093 O.2       22 UNK        -0.5000 
    124 C124       -0.4160  -17.8279  -53.1718 C.3       23 UNK        -0.0398 
    125 S125        1.1812  -18.0414  -54.0198 S.3       23 UNK        -0.2404 
    126 C126        2.1653  -18.8603  -52.7198 C.3       23 UNK        -0.0205 
    127 H127       -3.1069  -10.5249  -50.6238 H         1 UNK         0.0600 
    128 H128       -2.7645  -11.8714  -51.7167 H         1 UNK         0.0600 
    129 H129       -3.7763  -12.1264  -50.2924 H         1 UNK         0.0600 
    130 H130       -0.7020  -12.6604  -51.4534 H         1 UNK         0.3000 
    131 H131        0.9360  -12.1046  -49.1648 H         1 UNK         0.0600 
    132 H132        1.7325  -12.3914  -51.6028 H         1 UNK         0.0800 
    133 H133        1.5548  -14.1092  -51.3853 H         1 UNK         0.0800 
    134 H134        5.2245  -14.6525  -50.5812 H         1 UNK         0.0800 
    135 H135        4.2436  -14.3628  -51.9967 H         1 UNK         0.0800 
    136 H136        3.3234  -16.3943  -52.7662 H         1 UNK         0.1150 
    137 H137        1.7752  -19.3318  -50.0718 H         1 UNK         0.1150 
    138 H138        3.5780  -15.7440  -48.5483 H         1 UNK         0.1150 
    139 H139        3.3885  -17.9021  -47.1443 H         1 UNK         0.0800 
    140 H140        1.7589  -17.2969  -47.1989 H         1 UNK         0.0800 
    141 H141        0.5051  -19.0328  -45.5073 H         1 UNK         0.0800 
    142 H142       -0.2412  -18.5929  -47.0259 H         1 UNK         0.0800 
    143 H143       -0.7792  -20.9760  -47.4931 H         1 UNK         0.0600 
    144 H144        0.8109  -21.5351  -45.1746 H         1 UNK         0.3000 
    145 H145       -0.2721  -24.9103  -44.7901 H         1 UNK         0.0600 
    146 H146        2.1699  -25.2766  -45.0428 H         1 UNK         0.0600 
    147 H147        1.4485  -24.9414  -46.6096 H         1 UNK         0.0600 
    148 H148        2.3634  -23.6868  -45.7801 H         1 UNK         0.0600 
    149 H149        1.6790  -23.3489  -43.3999 H         1 UNK         0.3000 
    150 H150       -0.5184  -21.8014  -41.0583 H         1 UNK         0.0600 
    151 H151       -0.0162  -24.0154  -40.1133 H         1 UNK         0.0600 
    152 H152        1.1305  -22.8305  -39.5061 H         1 UNK         0.0600 
    153 H153        1.6172  -23.9752  -40.7558 H         1 UNK         0.0600 
    154 H154        1.0048  -20.3797  -41.6531 H         1 UNK         0.3000 
    155 H155        4.4258  -20.3727  -41.8850 H         1 UNK         0.0600 
    156 H156        4.2034  -20.8126  -44.3326 H         1 UNK         0.0600 
    157 H157        4.3468  -19.0887  -44.0264 H         1 UNK         0.0600 
    158 H158        2.7754  -19.7879  -44.4042 H         1 UNK         0.0600 
    159 H159        2.4718  -18.3383  -42.4540 H         1 UNK         0.3000 
    160 H160        1.1583  -17.9066  -39.2675 H         1 UNK         0.0600 
    161 H161        3.3570  -16.0318  -40.2987 H         1 UNK         0.0600 
    162 H162        2.0889  -15.6078  -39.1473 H         1 UNK         0.0600 
    163 H163        3.3222  -16.7757  -38.7045 H         1 UNK         0.0600 
    164 H164        1.1416  -16.0755  -41.4045 H         1 UNK         0.3000 
    165 H165       -0.7392  -17.7042  -43.8259 H         1 UNK         0.0600 
    166 H166       -2.5204  -16.0701  -43.5284 H         1 UNK         0.0600 
    167 H167       -2.6021  -17.1874  -42.1819 H         1 UNK         0.0600 
    168 H168       -1.9067  -15.5895  -41.9455 H         1 UNK         0.0600 
    169 H169       -0.1854  -14.9536  -43.5501 H         1 UNK         0.3000 
    170 H170        2.6766  -14.3487  -43.5894 H         1 UNK         0.0600 
    171 H171        4.0399  -15.7083  -45.1484 H         1 UNK         0.0600 
    172 H172        2.8947  -15.3910  -46.4464 H         1 UNK         0.0600 
    173 H173        3.8413  -14.0752  -45.7655 H         1 UNK         0.0600 
    174 H174        0.9307  -13.9224  -45.9759 H         1 UNK         0.3000 
    175 H175       -0.6294  -11.0974  -44.4260 H         1 UNK         0.0600 
    176 H176        1.1076  -11.4373  -46.9266 H         1 UNK         0.0600 
    177 H177       -0.1296  -10.2005  -46.7044 H         1 UNK         0.0600 
    178 H178        1.3060  -10.2040  -45.6901 H         1 UNK         0.0600 
    179 H179       -1.2416  -12.4213  -46.8437 H         1 UNK         0.3000 
    180 H180       -3.5348  -14.8366  -45.4923 H         1 UNK         0.0600 
    181 H181       -4.7676  -12.6902  -45.6564 H         1 UNK         0.0600 
    182 H182       -3.9001  -12.2699  -47.1267 H         1 UNK         0.0600 
    183 H183       -4.9956  -13.6507  -47.1095 H         1 UNK         0.0600 
    184 H184       -2.4703  -14.0405  -48.1091 H         1 UNK         0.3000 
    185 H185       -0.2413  -16.7818  -48.3587 H         1 UNK         0.0600 
    186 H186       -2.4739  -17.8162  -48.9129 H         1 UNK         0.0600 
    187 H187       -2.9100  -16.3631  -49.8072 H         1 UNK         0.0600 
    188 H188       -1.5695  -17.3705  -50.3441 H         1 UNK         0.0600 
    189 H189       -0.9591  -14.8811  -50.2996 H         1 UNK         0.3000 
    190 H190       -1.4740  -20.8466  -44.0074 H         1 UNK         0.3000 
    191 H191       -3.9648  -19.3989  -44.2443 H         1 UNK         0.0600 
    192 H192       -4.3456  -20.1858  -41.9249 H         1 UNK         0.0600 
    193 H193       -2.7283  -19.5318  -42.0889 H         1 UNK         0.0600 
    194 H194       -2.9719  -21.2739  -42.0299 H         1 UNK         0.0600 
    195 H195       -3.0000  -22.8115  -44.3882 H         1 UNK         0.3000 
    196 H196       -5.7011  -23.8442  -44.8144 H         1 UNK         0.0600 
    197 H197       -4.4890  -25.9865  -45.1284 H         1 UNK         0.0600 
    198 H198       -3.9129  -25.1790  -43.6794 H         1 UNK         0.0600 
    199 H199       -2.9439  -25.1460  -45.1502 H         1 UNK         0.0600 
    200 H200       -3.8269  -21.9441  -46.7299 H         1 UNK         0.3000 
    201 H201       -3.5651  -21.4305  -48.8591 H         1 UNK         0.0600 
    202 H202       -6.0475  -21.2453  -48.7787 H         1 UNK         0.0600 
    203 H203       -6.2090  -22.9274  -49.2805 H         1 UNK         0.0600 
    204 H204       -5.5109  -21.7436  -50.3727 H         1 UNK         0.0600 
    205 H205       -2.2930  -23.9162  -47.9641 H         1 UNK         0.3000 
    206 H206       -1.2955  -25.7899  -48.5737 H         1 UNK         0.0600 
    207 H207       -0.0351  -24.1533  -49.9860 H         1 UNK         0.0600 
    208 H208       -0.0661  -25.7505  -50.7160 H         1 UNK         0.0600 
    209 H209       -1.1150  -24.4858  -51.3383 H         1 UNK         0.0600 
    210 H210       -4.0642  -26.0542  -48.5284 H         1 UNK         0.3000 
    211 H211       -5.7778  -27.3539  -49.0207 H         1 UNK         0.0600 
    212 H212       -3.8861  -29.1648  -50.6136 H         1 UNK         0.0600 
    213 H213       -5.4817  -29.5827  -50.0105 H         1 UNK         0.0600 
    214 H214       -4.1758  -29.2740  -48.8778 H         1 UNK         0.0600 
    215 H215       -5.4465  -25.0877  -50.3919 H         1 UNK         0.3000 
    216 H216       -6.4345  -23.8140  -51.8448 H         1 UNK         0.0600 
    217 H217       -8.3925  -25.3763  -51.8702 H         1 UNK         0.0600 
    218 H218       -7.6855  -26.2272  -53.2449 H         1 UNK         0.0600 
    219 H219       -8.1689  -24.5472  -53.4011 H         1 UNK         0.0600 
    220 H220       -3.8719  -25.6744  -52.5438 H         1 UNK         0.3000 
    221 H221       -3.5262  -25.1128  -55.3729 H         1 UNK         0.0600 
    222 H222       -1.4539  -25.9311  -53.2746 H         1 UNK         0.0600 
    223 H223       -2.4337  -27.0551  -54.2153 H         1 UNK         0.0600 
    224 H224       -1.2694  -26.0122  -55.0190 H         1 UNK         0.0600 
    225 H225       -3.0097  -23.3091  -52.4188 H         1 UNK         0.3000 
    226 H226       -1.5984  -21.1196  -53.8868 H         1 UNK         0.0600 
    227 H227       -0.0957  -22.2248  -52.2204 H         1 UNK         0.0600 
    228 H228       -0.4941  -20.5883  -51.7274 H         1 UNK         0.0600 
    229 H229       -1.2858  -21.9455  -50.9508 H         1 UNK         0.0600 
    230 H230       -4.5026  -21.6941  -53.6270 H         1 UNK         0.3000 
    231 H231       -5.7285  -19.8763  -51.7904 H         1 UNK         0.0600 
    232 H232       -7.0044  -21.6977  -52.8380 H         1 UNK         0.0600 
    233 H233       -7.7114  -20.1619  -53.3095 H         1 UNK         0.0600 
    234 H234       -6.7035  -21.0482  -54.4482 H         1 UNK         0.0600 
    235 H235       -5.3942  -17.7802  -51.7445 H         1 UNK         0.3000 
    236 H236       -5.0325  -15.6594  -52.1934 H         1 UNK         0.0600 
    237 H237       -7.1763  -15.8112  -53.4808 H         1 UNK         0.0600 
    238 H238       -6.0981  -14.5873  -54.1283 H         1 UNK         0.0600 
    239 H239       -6.2654  -16.1281  -54.9568 H         1 UNK         0.0600 
    240 H240       -2.8772  -17.5058  -52.6369 H         1 UNK         0.3000 
    241 H241       -1.2305  -16.6820  -54.8022 H         1 UNK         0.0600 
    242 H242        0.6089  -13.7973  -53.7911 H         1 UNK         0.3800 
    243 H243        0.5262  -15.1228  -54.9109 H         1 UNK         0.3800 
    244 H244       -0.2543  -17.7362  -52.0984 H         1 UNK         0.0800 
    245 H245       -0.9567  -18.7591  -53.3231 H         1 UNK         0.0800 
    246 H246        3.1004  -19.2054  -53.1625 H         1 UNK         0.0800 
    247 H247        1.6403  -19.7561  -52.3871 H         1 UNK         0.0800 
@<TRIPOS>BOND
     1    1    2 1    
     2    1  127 1    
     3    1  128 1    
     4    1  129 1    
     5    2    3 2    
     6    2    4 am   BACKBONE|DICT|INTERRES
     7    4    5 1    
     8    4  130 1    
     9    5    6 1    
    10    5   65 1    
    11    5  131 1    
    12    6    7 1    
    13    6  132 1    
    14    6  133 1    
    15    7    8 1    
    16    8    9 1    
    17    8  134 1    
    18    8  135 1    
    19    9   10 ar   
    20    9   14 ar   
    21   10   11 ar   
    22   10  136 1    
    23   11   12 ar   
    24   11  126 1    
    25   12   13 ar   
    26   12  137 1    
    27   13   14 ar   
    28   13   15 1    
    29   14  138 1    
    30   15   16 1    
    31   15  139 1    
    32   15  140 1    
    33   16   17 1    
    34   17   18 1    
    35   17  141 1    
    36   17  142 1    
    37   18   19 1    
    38   18   67 1    
    39   18  143 1    
    40   19   20 am   BACKBONE|DICT|INTERRES
    41   19  144 1    
    42   20   21 2    
    43   20   22 1    
    44   22   23 1    
    45   22   24 1    
    46   22  145 1    
    47   23  146 1    
    48   23  147 1    
    49   23  148 1    
    50   24   25 am   BACKBONE|DICT|INTERRES
    51   24  149 1    
    52   25   26 2    
    53   25   27 1    
    54   27   28 1    
    55   27   29 1    
    56   27  150 1    
    57   28  151 1    
    58   28  152 1    
    59   28  153 1    
    60   29   30 am   BACKBONE|DICT|INTERRES
    61   29  154 1    
    62   30   31 2    
    63   30   32 1    
    64   32   33 1    
    65   32   34 1    
    66   32  155 1    
    67   33  156 1    
    68   33  157 1    
    69   33  158 1    
    70   34   35 am   BACKBONE|DICT|INTERRES
    71   34  159 1    
    72   35   36 2    
    73   35   37 1    
    74   37   38 1    
    75   37   39 1    
    76   37  160 1    
    77   38  161 1    
    78   38  162 1    
    79   38  163 1    
    80   39   40 am   BACKBONE|DICT|INTERRES
    81   39  164 1    
    82   40   41 2    
    83   40   42 1    
    84   42   43 1    
    85   42   44 1    
    86   42  165 1    
    87   43  166 1    
    88   43  167 1    
    89   43  168 1    
    90   44   45 am   BACKBONE|DICT|INTERRES
    91   44  169 1    
    92   45   46 2    
    93   45   47 1    
    94   47   48 1    
    95   47   49 1    
    96   47  170 1    
    97   48  171 1    
    98   48  172 1    
    99   48  173 1    
   100   49   50 am   BACKBONE|DICT|INTERRES
   101   49  174 1    
   102   50   51 2    
   103   50   52 1    
   104   52   53 1    
   105   52   54 1    
   106   52  175 1    
   107   53  176 1    
   108   53  177 1    
   109   53  178 1    
   110   54   55 am   BACKBONE|DICT|INTERRES
   111   54  179 1    
   112   55   56 2    
   113   55   57 1    
   114   57   58 1    
   115   57   59 1    
   116   57  180 1    
   117   58  181 1    
   118   58  182 1    
   119   58  183 1    
   120   59   60 am   BACKBONE|DICT|INTERRES
   121   59  184 1    
   122   60   61 2    
   123   60   62 1    
   124   62   63 1    
   125   62   64 1    
   126   62  185 1    
   127   63  186 1    
   128   63  187 1    
   129   63  188 1    
   130   64   65 am   BACKBONE|DICT|INTERRES
   131   64  189 1    
   132   65   66 2    
   133   67   68 2    
   134   67   69 am   BACKBONE|DICT|INTERRES
   135   69   70 1    
   136   69  190 1    
   137   70   71 1    
   138   70   72 1    
   139   70  191 1    
   140   71  192 1    
   141   71  193 1    
   142   71  194 1    
   143   72   73 2    
   144   72   74 am   BACKBONE|DICT|INTERRES
   145   74   75 1    
   146   74  195 1    
   147   75   76 1    
   148   75   77 1    
   149   75  196 1    
   150   76  197 1    
   151   76  198 1    
   152   76  199 1    
   153   77   78 2    
   154   77   79 am   BACKBONE|DICT|INTERRES
   155   79   80 1    
   156   79  200 1    
   157   80   81 1    
   158   80   82 1    
   159   80  201 1    
   160   81  202 1    
   161   81  203 1    
   162   81  204 1    
   163   82   83 2    
   164   82   84 am   BACKBONE|DICT|INTERRES
   165   84   85 1    
   166   84  205 1    
   167   85   86 1    
   168   85   87 1    
   169   85  206 1    
   170   86  207 1    
   171   86  208 1    
   172   86  209 1    
   173   87   88 2    
   174   87   89 am   BACKBONE|DICT|INTERRES
   175   89   90 1    
   176   89  210 1    
   177   90   91 1    
   178   90   92 1    
   179   90  211 1    
   180   91  212 1    
   181   91  213 1    
   182   91  214 1    
   183   92   93 2    
   184   92   94 am   BACKBONE|DICT|INTERRES
   185   94   95 1    
   186   94  215 1    
   187   95   96 1    
   188   95   97 1    
   189   95  216 1    
   190   96  217 1    
   191   96  218 1    
   192   96  219 1    
   193   97   98 2    
   194   97   99 am   BACKBONE|DICT|INTERRES
   195   99  100 1    
   196   99  220 1    
   197  100  101 1    
   198  100  102 1    
   199  100  221 1    
   200  101  222 1    
   201  101  223 1    
   202  101  224 1    
   203  102  103 2    
   204  102  104 am   BACKBONE|DICT|INTERRES
   205  104  105 1    
   206  104  225 1    
   207  105  106 1    
   208  105  107 1    
   209  105  226 1    
   210  106  227 1    
   211  106  228 1    
   212  106  229 1    
   213  107  108 2    
   214  107  109 am   BACKBONE|DICT|INTERRES
   215  109  110 1    
   216  109  230 1    
   217  110  111 1    
   218  110  112 1    
   219  110  231 1    
   220  111  232 1    
   221  111  233 1    
   222  111  234 1    
   223  112  113 2    
   224  112  114 am   BACKBONE|DICT|INTERRES
   225  114  115 1    
   226  114  235 1    
   227  115  116 1    
   228  115  117 1    
   229  115  236 1    
   230  116  237 1    
   231  116  238 1    
   232  116  239 1    
   233  117  118 2    
   234  117  119 am   BACKBONE|DICT|INTERRES
   235  119  120 1    
   236  119  240 1    
   237  120  121 1    
   238  120  124 1    
   239  120  241 1    
   240  121  122 am   BACKBONE|DICT|INTERRES
   241  121  123 2    
   242  122  242 1    
   243  122  243 1    
   244  124  125 1    
   245  124  244 1    
   246  124  245 1    
   247  125  126 1    
   248  126  246 1    
   249  126  247 1    
@<TRIPOS>SUBSTRUCTURE
     1 UNK         1 GROUP             0       ****    0 ROOT    
