@<TRIPOS>MOLECULE
3R540
247   249    1
SMALL
USER_CHARGES


@<TRIPOS>ATOM
      1 CA         -1.5576  -13.1490  -52.0191 C.3       0 UNK        -0.1800 
      2 C          -0.0796  -13.1634  -51.6542 C.2       0 UNK         0.5000 
      3 O           0.5576  -12.1096  -51.6412 O.2       0 UNK        -0.5000 
      4 N           0.4688  -14.3502  -51.3705 N.am      1 UNK        -0.5000 
      5 CA          1.8547  -14.5659  -50.9480 C.3       1 UNK         0.1400 
      6 C6          2.2012  -16.0729  -50.9769 C.3       23 UNK        -0.0398 
      7 S7          3.9979  -16.4173  -50.9754 S.3       23 UNK        -0.2404 
      8 C8          4.1878  -17.5314  -52.4054 C.3       23 UNK        -0.0205 
      9 C9          3.4569  -18.8499  -52.1966 C.ar      23 UNK        -0.0193 
     10 C10         2.1733  -19.0262  -52.7193 C.ar      23 UNK        -0.1150 
     11 C11         1.4624  -20.2106  -52.4975 C.ar      23 UNK        -0.0193 
     12 C12         2.0724  -21.2322  -51.7634 C.ar      23 UNK        -0.1150 
     13 C13         3.3669  -21.0848  -51.2554 C.ar      23 UNK        -0.0193 
     14 C14         4.0558  -19.8880  -51.4774 C.ar      23 UNK        -0.1150 
     15 C15         4.0154  -22.2394  -50.4983 C.3       23 UNK        -0.0205 
     16 S16         4.7284  -21.7878  -48.8786 S.3       23 UNK        -0.2404 
     17 C17         3.3739  -20.9158  -48.0220 C.3       23 UNK        -0.0398 
     18 CA          2.3417  -21.8494  -47.3396 C.3       11 UNK         0.1400 
     19 N           1.8664  -21.2966  -46.0651 N.am      11 UNK        -0.5000 
     20 C           1.0216  -21.9171  -45.2281 C.2       10 UNK         0.5000 
     21 O           0.5614  -23.0390  -45.4367 O.2       10 UNK        -0.5000 
     22 CA          0.5883  -21.1665  -43.9560 C.3       10 UNK         0.1400 
     23 CB          1.6938  -20.2677  -43.3755 C.3       10 UNK        -0.1800 
     24 N          -0.6631  -20.4115  -44.0979 N.am      10 UNK        -0.5000 
     25 C          -1.0321  -19.5472  -45.0580 C.2       9 UNK         0.5000 
     26 O          -0.3957  -19.3451  -46.0915 O.2       9 UNK        -0.5000 
     27 CA         -2.3423  -18.7620  -44.8269 C.3       9 UNK         0.1400 
     28 CB         -3.4226  -19.1533  -45.8465 C.3       9 UNK        -0.1800 
     29 N          -2.8947  -18.9128  -43.4767 N.am      9 UNK        -0.5000 
     30 C          -2.4293  -18.2732  -42.3974 C.2       8 UNK         0.5000 
     31 O          -1.4393  -17.5393  -42.4146 O.2       8 UNK        -0.5000 
     32 CA         -3.1714  -18.5294  -41.0771 C.3       8 UNK         0.1400 
     33 CB         -2.4288  -19.5676  -40.2239 C.3       8 UNK        -0.1800 
     34 N          -3.3006  -17.2862  -40.3214 N.am      8 UNK        -0.5000 
     35 C          -4.3179  -16.4256  -40.4659 C.2       7 UNK         0.5000 
     36 O          -5.2754  -16.6252  -41.2151 O.2       7 UNK        -0.5000 
     37 CA         -4.2810  -15.1285  -39.6336 C.3       7 UNK         0.1400 
     38 CB         -5.1228  -15.2856  -38.3578 C.3       7 UNK        -0.1800 
     39 N          -2.9299  -14.7131  -39.2595 N.am      7 UNK        -0.5000 
     40 C          -2.0285  -14.1964  -40.1038 C.2       6 UNK         0.5000 
     41 O          -2.2516  -13.9824  -41.2962 O.2       6 UNK        -0.5000 
     42 CA         -0.6357  -13.8663  -39.5307 C.3       6 UNK         0.1400 
     43 CB         -0.5988  -13.7275  -37.9913 C.3       6 UNK        -0.1800 
     44 N           0.3671  -14.8291  -39.9911 N.am      6 UNK        -0.5000 
     45 C           0.3703  -16.1547  -39.7898 C.2       5 UNK         0.5000 
     46 O          -0.4905  -16.7614  -39.1480 O.2       5 UNK        -0.5000 
     47 CA          1.5111  -16.9146  -40.4801 C.3       5 UNK         0.1400 
     48 CB          1.6570  -18.3667  -39.9937 C.3       5 UNK        -0.1800 
     49 N           1.2415  -16.9026  -41.9142 N.am      5 UNK        -0.5000 
     50 C           2.0582  -16.4149  -42.8508 C.2       4 UNK         0.5000 
     51 O           3.1841  -15.9706  -42.6090 O.2       4 UNK        -0.5000 
     52 CA          1.5058  -16.3844  -44.2879 C.3       4 UNK         0.1400 
     53 CB          0.4768  -15.2532  -44.4471 C.3       4 UNK        -0.1800 
     54 N           2.5973  -16.1461  -45.2265 N.am      4 UNK        -0.5000 
     55 C           3.2394  -17.0678  -45.9493 C.2       3 UNK         0.5000 
     56 O           2.8903  -18.2478  -46.0187 O.2       3 UNK        -0.5000 
     57 CA          4.4898  -16.5763  -46.7164 C.3       3 UNK         0.1400 
     58 CB          5.0865  -17.6559  -47.6370 C.3       3 UNK        -0.1800 
     59 N           4.2410  -15.3703  -47.5113 N.am      3 UNK        -0.5000 
     60 C           4.1329  -14.1174  -47.0439 C.2       2 UNK         0.5000 
     61 O           4.2269  -13.8314  -45.8496 O.2       2 UNK        -0.5000 
     62 CA          3.8658  -12.9947  -48.0676 C.3       2 UNK         0.1400 
     63 CB          5.1459  -12.1832  -48.3195 C.3       2 UNK        -0.1800 
     64 N           3.3614  -13.4891  -49.3498 N.am      2 UNK        -0.5000 
     65 C           2.1257  -13.9637  -49.5527 C.2       1 UNK         0.5000 
     66 O           1.2480  -13.9814  -48.6860 O.2       1 UNK        -0.5000 
     67 C           1.1738  -22.1689  -48.2941 C.2       11 UNK         0.5000 
     68 O           1.1343  -23.2509  -48.8803 O.2       11 UNK        -0.5000 
     69 N           0.2097  -21.2432  -48.3867 N.am      12 UNK        -0.5000 
     70 CA         -0.9791  -21.4001  -49.2187 C.3       12 UNK         0.1400 
     71 CB         -1.6078  -20.0272  -49.4751 C.3       12 UNK        -0.1800 
     72 C          -1.9992  -22.3829  -48.6227 C.2       12 UNK         0.5000 
     73 O          -2.7400  -23.0046  -49.3841 O.2       12 UNK        -0.5000 
     74 N          -2.0089  -22.5372  -47.2907 N.am      13 UNK        -0.5000 
     75 CA         -2.8071  -23.5504  -46.5982 C.3       13 UNK         0.1400 
     76 CB         -2.8863  -23.2400  -45.0946 C.3       13 UNK        -0.1800 
     77 C          -2.2471  -24.9622  -46.8431 C.2       13 UNK         0.5000 
     78 O          -3.0132  -25.8697  -47.1648 O.2       13 UNK        -0.5000 
     79 N          -0.9177  -25.1053  -46.7413 N.am      14 UNK        -0.5000 
     80 CA         -0.1767  -26.3374  -47.0192 C.3       14 UNK         0.1400 
     81 CB          1.2924  -26.1500  -46.6107 C.3       14 UNK        -0.1800 
     82 C          -0.2822  -26.7806  -48.4904 C.2       14 UNK         0.5000 
     83 O          -0.4317  -27.9734  -48.7575 O.2       14 UNK        -0.5000 
     84 N          -0.2410  -25.8098  -49.4133 N.am      15 UNK        -0.5000 
     85 CA         -0.4407  -26.0144  -50.8498 C.3       15 UNK         0.1400 
     86 CB          0.0879  -24.7822  -51.6015 C.3       15 UNK        -0.1800 
     87 C          -1.9091  -26.2835  -51.2414 C.2       15 UNK         0.5000 
     88 O          -2.1526  -26.7130  -52.3696 O.2       15 UNK        -0.5000 
     89 N          -2.8523  -26.0021  -50.3273 N.am      16 UNK        -0.5000 
     90 CA         -4.3099  -26.0360  -50.5047 C.3       16 UNK         0.1400 
     91 CB         -4.8073  -27.4794  -50.7243 C.3       16 UNK        -0.1800 
     92 C          -4.7914  -25.0506  -51.5929 C.2       16 UNK         0.5000 
     93 O          -5.7180  -25.3513  -52.3474 O.2       16 UNK        -0.5000 
     94 N          -4.1293  -23.8900  -51.6507 N.am      17 UNK        -0.5000 
     95 CA         -4.3110  -22.8394  -52.6494 C.3       17 UNK         0.1400 
     96 CB         -2.9567  -22.5944  -53.3292 C.3       17 UNK        -0.1800 
     97 C          -4.8578  -21.5402  -52.0303 C.2       17 UNK         0.5000 
     98 O          -5.1340  -20.5908  -52.7647 O.2       17 UNK        -0.5000 
     99 N          -5.0293  -21.5019  -50.7005 N.am      18 UNK        -0.5000 
    100 CA        -5.5981  -20.3723  -49.9577 C.3       18 UNK         0.1400 
    101 CB        -5.5451  -20.6769  -48.4539 C.3       18 UNK        -0.1800 
    102 C         -7.0337  -20.0197  -50.3965 C.2       18 UNK         0.5000 
    103 O         -7.3859  -18.8412  -50.4410 O.2       18 UNK        -0.5000 
    104 N         -7.8068  -21.0432  -50.7874 N.am      19 UNK        -0.5000 
    105 CA        -9.1490  -20.9224  -51.3633 C.3       19 UNK         0.1400 
    106 CB        -9.7841  -22.3197  -51.4314 C.3       19 UNK        -0.1800 
    107 C         -9.1715  -20.2530  -52.7545 C.2       19 UNK         0.5000 
    108 O        -10.2073  -19.7154  -53.1464 O.2       19 UNK        -0.5000 
    109 N         -8.0335  -20.2751  -53.4627 N.am      20 UNK        -0.5000 
    110 CA        -7.8169  -19.6031  -54.7457 C.3       20 UNK         0.1400 
    111 CB        -6.9600  -20.5135  -55.6435 C.3       20 UNK        -0.1800 
    112 C         -7.1682  -18.2127  -54.5682 C.2       20 UNK         0.5000 
    113 O         -6.7532  -17.6124  -55.5602 O.2       20 UNK        -0.5000 
    114 N         -7.0875  -17.7286  -53.3180 N.am      21 UNK        -0.5000 
    115 CA        -6.5185  -16.4488  -52.8843 C.3       21 UNK         0.1400 
    116 CB        -7.2760  -15.2561  -53.5059 C.3       21 UNK        -0.1800 
    117 C         -4.9883  -16.3568  -53.0628 C.2       21 UNK         0.5000 
    118 O         -4.4539  -15.2550  -53.1989 O.2       21 UNK        -0.5000 
    119 N         -4.3021  -17.5079  -53.0259 N.am      22 UNK        -0.5000 
    120 CA        -2.8321  -17.5993  -53.0373 C.3       22 UNK         0.1400 
    121 C         -2.1607  -17.1443  -51.7039 C.2       22 UNK         0.5000 
    122 N         -2.8814  -17.0567  -50.5917 N.am      22 UNK        -0.7600 
    123 O         -0.9764  -16.8256  -51.6794 O.2       22 UNK        -0.5000 
    124 C124       -2.3883  -19.0189  -53.4710 C.3       23 UNK        -0.0398 
    125 S125       -0.6658  -19.1262  -54.0728 S.3       23 UNK        -0.2404 
    126 C126        0.0313  -20.4285  -52.9909 C.3       23 UNK        -0.0205 
    127 H127       -2.1038  -12.4857  -51.3487 H         1 UNK         0.0600 
    128 H128       -1.6901  -12.7897  -53.0395 H         1 UNK         0.0600 
    129 H129       -2.0036  -14.1409  -51.9489 H         1 UNK         0.0600 
    130 H130       -0.1086  -15.1883  -51.4060 H         1 UNK         0.3000 
    131 H131        2.4880  -14.0528  -51.6751 H         1 UNK         0.0600 
    132 H132        1.7728  -16.4981  -51.8816 H         1 UNK         0.0800 
    133 H133        1.7305  -16.6084  -50.1498 H         1 UNK         0.0800 
    134 H134        5.2498  -17.7237  -52.5642 H         1 UNK         0.0800 
    135 H135        3.8311  -17.0312  -53.3073 H         1 UNK         0.0800 
    136 H136        1.7273  -18.2218  -53.2834 H         1 UNK         0.1150 
    137 H137        1.5333  -22.1520  -51.5867 H         1 UNK         0.1150 
    138 H138        5.0535  -19.7604  -51.0814 H         1 UNK         0.1150 
    139 H139        3.3058  -23.0539  -50.3510 H         1 UNK         0.0800 
    140 H140        4.8120  -22.6499  -51.1198 H         1 UNK         0.0800 
    141 H141        2.9069  -20.1805  -48.6800 H         1 UNK         0.0800 
    142 H142        3.8765  -20.3266  -47.2565 H         1 UNK         0.0800 
    143 H143        2.8308  -22.7949  -47.0959 H         1 UNK         0.0600 
    144 H144        2.1390  -20.3412  -45.8600 H         1 UNK         0.3000 
    145 H145        0.3879  -21.9394  -43.2122 H         1 UNK         0.0600 
    146 H146        1.4138  -19.9065  -42.3881 H         1 UNK         0.0600 
    147 H147        2.6327  -20.8121  -43.2673 H         1 UNK         0.0600 
    148 H148        1.8845  -19.3990  -43.9988 H         1 UNK         0.0600 
    149 H149       -1.3047  -20.5134  -43.3258 H         1 UNK         0.3000 
    150 H150       -2.1096  -17.7060  -44.9818 H         1 UNK         0.0600 
    151 H151       -3.1311  -18.8559  -46.8517 H         1 UNK         0.0600 
    152 H152       -4.3675  -18.6523  -45.6352 H         1 UNK         0.0600 
    153 H153       -3.6081  -20.2261  -45.8577 H         1 UNK         0.0600 
    154 H154       -3.7087  -19.5042  -43.3869 H         1 UNK         0.3000 
    155 H155       -4.1634  -18.9288  -41.2993 H         1 UNK         0.0600 
    156 H156       -2.9903  -19.8043  -39.3201 H         1 UNK         0.0600 
    157 H157       -2.2858  -20.5000  -40.7714 H         1 UNK         0.0600 
    158 H158       -1.4471  -19.2098  -39.9179 H         1 UNK         0.0600 
    159 H159       -2.5017  -17.0197  -39.7559 H         1 UNK         0.3000 
    160 H160       -4.7273  -14.3371  -40.2395 H         1 UNK         0.0600 
    161 H161       -4.7170  -16.0556  -37.7004 H         1 UNK         0.0600 
    162 H162       -6.1488  -15.5671  -38.5988 H         1 UNK         0.0600 
    163 H163       -5.1669  -14.3522  -37.7963 H         1 UNK         0.0600 
    164 H164       -2.6501  -14.8831  -38.3044 H         1 UNK         0.3000 
    165 H165       -0.3550  -12.8995  -39.9514 H         1 UNK         0.0600 
    166 H166       -0.8129  -14.6661  -37.4795 H         1 UNK         0.0600 
    167 H167        0.3828  -13.3911  -37.6576 H         1 UNK         0.0600 
    168 H168       -1.3235  -12.9884  -37.6472 H         1 UNK         0.0600 
    169 H169        1.0917  -14.4445  -40.5809 H         1 UNK         0.3000 
    170 H170        2.4382  -16.3879  -40.2448 H         1 UNK         0.0600 
    171 H171        1.7788  -18.4067  -38.9107 H         1 UNK         0.0600 
    172 H172        0.7878  -18.9699  -40.2515 H         1 UNK         0.0600 
    173 H173        2.5339  -18.8389  -40.4365 H         1 UNK         0.0600 
    174 H174        0.2919  -17.1734  -42.1736 H         1 UNK         0.3000 
    175 H175        1.0157  -17.3345  -44.5039 H         1 UNK         0.0600 
    176 H176        0.9119  -14.2781  -44.2242 H         1 UNK         0.0600 
    177 H177        0.0862  -15.2201  -45.4645 H         1 UNK         0.0600 
    178 H178       -0.3737  -15.3937  -43.7788 H         1 UNK         0.0600 
    179 H179        3.0122  -15.2201  -45.1944 H         1 UNK         0.3000 
    180 H180        5.2443  -16.3368  -45.9642 H         1 UNK         0.0600 
    181 H181        4.3631  -17.9998  -48.3770 H         1 UNK         0.0600 
    182 H182        5.4108  -18.5229  -47.0611 H         1 UNK         0.0600 
    183 H183        5.9600  -17.2829  -48.1720 H         1 UNK         0.0600 
    184 H184        4.1259  -15.5138  -48.5043 H         1 UNK         0.3000 
    185 H185        3.1171  -12.3276  -47.6349 H         1 UNK         0.0600 
    186 H186        5.5363  -11.7694  -47.3887 H         1 UNK         0.0600 
    187 H187        5.9319  -12.7975  -48.7606 H         1 UNK         0.0600 
    188 H188        4.9565  -11.3453  -48.9908 H         1 UNK         0.0600 
    189 H189        4.0274  -13.5203  -50.1090 H         1 UNK         0.3000 
    190 H190        0.2608  -20.4125  -47.8054 H         1 UNK         0.3000 
    191 H191       -0.6698  -21.8099  -50.1806 H         1 UNK         0.0600 
    192 H192       -2.4916  -20.1088  -50.1077 H         1 UNK         0.0600 
    193 H193       -0.9047  -19.3643  -49.9797 H         1 UNK         0.0600 
    194 H194       -1.9048  -19.5429  -48.5483 H         1 UNK         0.0600 
    195 H195       -1.3316  -22.0290  -46.7416 H         1 UNK         0.3000 
    196 H196       -3.8229  -23.5195  -46.9989 H         1 UNK         0.0600 
    197 H197       -3.4854  -23.9905  -44.5775 H         1 UNK         0.0600 
    198 H198       -3.3555  -22.2757  -44.9093 H         1 UNK         0.0600 
    199 H199       -1.9044  -23.2309  -44.6233 H         1 UNK         0.0600 
    200 H200       -0.3659  -24.3111  -46.4247 H         1 UNK         0.3000 
    201 H201       -0.6046  -27.1297  -46.4018 H         1 UNK         0.0600 
    202 H202        1.3784  -25.9077  -45.5513 H         1 UNK         0.0600 
    203 H203        1.7687  -25.3477  -47.1752 H         1 UNK         0.0600 
    204 H204        1.8664  -27.0610  -46.7846 H         1 UNK         0.0600 
    205 H205       -0.0222  -24.8640  -49.1152 H         1 UNK         0.3000 
    206 H206        0.1461  -26.8813  -51.1602 H         1 UNK         0.0600 
    207 H207        1.1409  -24.6077  -51.3802 H         1 UNK         0.0600 
    208 H208        0.0005  -24.9117  -52.6809 H         1 UNK         0.0600 
    209 H209       -0.4672  -23.8831  -51.3343 H         1 UNK         0.0600 
    210 H210       -2.5407  -25.6639  -49.4265 H         1 UNK         0.3000 
    211 H211       -4.7362  -25.6808  -49.5655 H         1 UNK         0.0600 
    212 H212       -4.4734  -27.8843  -51.6798 H         1 UNK         0.0600 
    213 H213       -5.8970  -27.5222  -50.7147 H         1 UNK         0.0600 
    214 H214       -4.4504  -28.1418  -49.9356 H         1 UNK         0.0600 
    215 H215       -3.4257  -23.7111  -50.9373 H         1 UNK         0.3000 
    216 H216       -5.0263  -23.1538  -53.4117 H         1 UNK         0.0600 
    217 H217       -3.0359  -21.8398  -54.1121 H         1 UNK         0.0600 
    218 H218       -2.5833  -23.5056  -53.7972 H         1 UNK         0.0600 
    219 H219       -2.2086  -22.2613  -52.6108 H         1 UNK         0.0600 
    220 H220       -4.7317  -22.3013  -50.1574 H         1 UNK         0.3000 
    221 H221       -4.9726  -19.4989  -50.1521 H         1 UNK         0.0600 
    222 H222       -6.1256  -21.5648  -48.2008 H         1 UNK         0.0600 
    223 H223       -4.5209  -20.8416  -48.1224 H         1 UNK         0.0600 
    224 H224       -5.9433  -19.8450  -47.8713 H         1 UNK         0.0600 
    225 H225       -7.4271  -21.9763  -50.7237 H         1 UNK         0.3000 
    226 H226       -9.7496  -20.3040  -50.6930 H         1 UNK         0.0600 
    227 H227       -9.8474  -22.7734  -50.4422 H         1 UNK         0.0600 
    228 H228      -10.7986  -22.2695  -51.8294 H         1 UNK         0.0600 
    229 H229       -9.2122  -22.9907  -52.0738 H         1 UNK         0.0600 
    230 H230       -7.2075  -20.6907  -53.0500 H         1 UNK         0.3000 
    231 H231       -8.7743  -19.4475  -55.2469 H         1 UNK         0.0600 
    232 H232       -7.4081  -21.5019  -55.7456 H         1 UNK         0.0600 
    233 H233       -5.9516  -20.6412  -55.2499 H         1 UNK         0.0600 
    234 H234       -6.8667  -20.0970  -56.6471 H         1 UNK         0.0600 
    235 H235       -7.4402  -18.3085  -52.5666 H         1 UNK         0.3000 
    236 H236       -6.6872  -16.4063  -51.8074 H         1 UNK         0.0600 
    237 H237       -6.9707  -14.3164  -53.0443 H         1 UNK         0.0600 
    238 H238       -7.0883  -15.1671  -54.5761 H         1 UNK         0.0600 
    239 H239       -8.3518  -15.3523  -53.3595 H         1 UNK         0.0600 
    240 H240       -4.8075  -18.3808  -52.9346 H         1 UNK         0.3000 
    241 H241       -2.4804  -16.9038  -53.8020 H         1 UNK         0.0600 
    242 H242       -3.8652  -17.2630  -50.5952 H         1 UNK         0.3800 
    243 H243       -2.4364  -16.7426  -49.7451 H         1 UNK         0.3800 
    244 H244       -3.0186  -19.3606  -54.2934 H         1 UNK         0.0800 
    245 H245       -2.5604  -19.7230  -52.6585 H         1 UNK         0.0800 
    246 H246       -0.5925  -20.5326  -52.1070 H         1 UNK         0.0800 
    247 H247       -0.0229  -21.3787  -53.5240 H         1 UNK         0.0800 
@<TRIPOS>BOND
     1    1    2 1    
     2    1  127 1    
     3    1  128 1    
     4    1  129 1    
     5    2    3 2    
     6    2    4 am   BACKBONE|DICT|INTERRES
     7    4    5 1    
     8    4  130 1    
     9    5    6 1    
    10    5   65 1    
    11    5  131 1    
    12    6    7 1    
    13    6  132 1    
    14    6  133 1    
    15    7    8 1    
    16    8    9 1    
    17    8  134 1    
    18    8  135 1    
    19    9   10 ar   
    20    9   14 ar   
    21   10   11 ar   
    22   10  136 1    
    23   11   12 ar   
    24   11  126 1    
    25   12   13 ar   
    26   12  137 1    
    27   13   14 ar   
    28   13   15 1    
    29   14  138 1    
    30   15   16 1    
    31   15  139 1    
    32   15  140 1    
    33   16   17 1    
    34   17   18 1    
    35   17  141 1    
    36   17  142 1    
    37   18   19 1    
    38   18   67 1    
    39   18  143 1    
    40   19   20 am   BACKBONE|DICT|INTERRES
    41   19  144 1    
    42   20   21 2    
    43   20   22 1    
    44   22   23 1    
    45   22   24 1    
    46   22  145 1    
    47   23  146 1    
    48   23  147 1    
    49   23  148 1    
    50   24   25 am   BACKBONE|DICT|INTERRES
    51   24  149 1    
    52   25   26 2    
    53   25   27 1    
    54   27   28 1    
    55   27   29 1    
    56   27  150 1    
    57   28  151 1    
    58   28  152 1    
    59   28  153 1    
    60   29   30 am   BACKBONE|DICT|INTERRES
    61   29  154 1    
    62   30   31 2    
    63   30   32 1    
    64   32   33 1    
    65   32   34 1    
    66   32  155 1    
    67   33  156 1    
    68   33  157 1    
    69   33  158 1    
    70   34   35 am   BACKBONE|DICT|INTERRES
    71   34  159 1    
    72   35   36 2    
    73   35   37 1    
    74   37   38 1    
    75   37   39 1    
    76   37  160 1    
    77   38  161 1    
    78   38  162 1    
    79   38  163 1    
    80   39   40 am   BACKBONE|DICT|INTERRES
    81   39  164 1    
    82   40   41 2    
    83   40   42 1    
    84   42   43 1    
    85   42   44 1    
    86   42  165 1    
    87   43  166 1    
    88   43  167 1    
    89   43  168 1    
    90   44   45 am   BACKBONE|DICT|INTERRES
    91   44  169 1    
    92   45   46 2    
    93   45   47 1    
    94   47   48 1    
    95   47   49 1    
    96   47  170 1    
    97   48  171 1    
    98   48  172 1    
    99   48  173 1    
   100   49   50 am   BACKBONE|DICT|INTERRES
   101   49  174 1    
   102   50   51 2    
   103   50   52 1    
   104   52   53 1    
   105   52   54 1    
   106   52  175 1    
   107   53  176 1    
   108   53  177 1    
   109   53  178 1    
   110   54   55 am   BACKBONE|DICT|INTERRES
   111   54  179 1    
   112   55   56 2    
   113   55   57 1    
   114   57   58 1    
   115   57   59 1    
   116   57  180 1    
   117   58  181 1    
   118   58  182 1    
   119   58  183 1    
   120   59   60 am   BACKBONE|DICT|INTERRES
   121   59  184 1    
   122   60   61 2    
   123   60   62 1    
   124   62   63 1    
   125   62   64 1    
   126   62  185 1    
   127   63  186 1    
   128   63  187 1    
   129   63  188 1    
   130   64   65 am   BACKBONE|DICT|INTERRES
   131   64  189 1    
   132   65   66 2    
   133   67   68 2    
   134   67   69 am   BACKBONE|DICT|INTERRES
   135   69   70 1    
   136   69  190 1    
   137   70   71 1    
   138   70   72 1    
   139   70  191 1    
   140   71  192 1    
   141   71  193 1    
   142   71  194 1    
   143   72   73 2    
   144   72   74 am   BACKBONE|DICT|INTERRES
   145   74   75 1    
   146   74  195 1    
   147   75   76 1    
   148   75   77 1    
   149   75  196 1    
   150   76  197 1    
   151   76  198 1    
   152   76  199 1    
   153   77   78 2    
   154   77   79 am   BACKBONE|DICT|INTERRES
   155   79   80 1    
   156   79  200 1    
   157   80   81 1    
   158   80   82 1    
   159   80  201 1    
   160   81  202 1    
   161   81  203 1    
   162   81  204 1    
   163   82   83 2    
   164   82   84 am   BACKBONE|DICT|INTERRES
   165   84   85 1    
   166   84  205 1    
   167   85   86 1    
   168   85   87 1    
   169   85  206 1    
   170   86  207 1    
   171   86  208 1    
   172   86  209 1    
   173   87   88 2    
   174   87   89 am   BACKBONE|DICT|INTERRES
   175   89   90 1    
   176   89  210 1    
   177   90   91 1    
   178   90   92 1    
   179   90  211 1    
   180   91  212 1    
   181   91  213 1    
   182   91  214 1    
   183   92   93 2    
   184   92   94 am   BACKBONE|DICT|INTERRES
   185   94   95 1    
   186   94  215 1    
   187   95   96 1    
   188   95   97 1    
   189   95  216 1    
   190   96  217 1    
   191   96  218 1    
   192   96  219 1    
   193   97   98 2    
   194   97   99 am   BACKBONE|DICT|INTERRES
   195   99  100 1    
   196   99  220 1    
   197  100  101 1    
   198  100  102 1    
   199  100  221 1    
   200  101  222 1    
   201  101  223 1    
   202  101  224 1    
   203  102  103 2    
   204  102  104 am   BACKBONE|DICT|INTERRES
   205  104  105 1    
   206  104  225 1    
   207  105  106 1    
   208  105  107 1    
   209  105  226 1    
   210  106  227 1    
   211  106  228 1    
   212  106  229 1    
   213  107  108 2    
   214  107  109 am   BACKBONE|DICT|INTERRES
   215  109  110 1    
   216  109  230 1    
   217  110  111 1    
   218  110  112 1    
   219  110  231 1    
   220  111  232 1    
   221  111  233 1    
   222  111  234 1    
   223  112  113 2    
   224  112  114 am   BACKBONE|DICT|INTERRES
   225  114  115 1    
   226  114  235 1    
   227  115  116 1    
   228  115  117 1    
   229  115  236 1    
   230  116  237 1    
   231  116  238 1    
   232  116  239 1    
   233  117  118 2    
   234  117  119 am   BACKBONE|DICT|INTERRES
   235  119  120 1    
   236  119  240 1    
   237  120  121 1    
   238  120  124 1    
   239  120  241 1    
   240  121  122 am   BACKBONE|DICT|INTERRES
   241  121  123 2    
   242  122  242 1    
   243  122  243 1    
   244  124  125 1    
   245  124  244 1    
   246  124  245 1    
   247  125  126 1    
   248  126  246 1    
   249  126  247 1    
@<TRIPOS>SUBSTRUCTURE
     1 UNK         1 GROUP             0       ****    0 ROOT    
