@<TRIPOS>MOLECULE
3R540
247   249    1
SMALL
USER_CHARGES


@<TRIPOS>ATOM
      1 CA          6.4163  -11.8044  -47.6237 C.3       0 UNK        -0.1800 
      2 C           5.4191  -12.9212  -47.3536 C.2       0 UNK         0.5000 
      3 O           4.7624  -12.9198  -46.3115 O.2       0 UNK        -0.5000 
      4 N           5.2854  -13.8662  -48.2950 N.am      1 UNK        -0.5000 
      5 CA          4.3976  -15.0340  -48.2051 C.3       1 UNK         0.1400 
      6 C6          4.6778  -16.1093  -49.2886 C.3       23 UNK        -0.0398 
      7 S7          5.0630  -15.5178  -50.9801 S.3       23 UNK        -0.2404 
      8 C8          3.5246  -14.7348  -51.5883 C.3       23 UNK        -0.0205 
      9 C9          2.2555  -15.5887  -51.5680 C.ar      23 UNK        -0.0193 
     10 C10         1.0173  -14.9362  -51.5770 C.ar      23 UNK        -0.1150 
     11 C11        -0.1756  -15.6636  -51.5710 C.ar      23 UNK        -0.0193 
     12 C12        -0.1290  -17.0571  -51.5521 C.ar      23 UNK        -0.1150 
     13 C13         1.0954  -17.7259  -51.5383 C.ar      23 UNK        -0.0193 
     14 C14         2.2834  -16.9899  -51.5664 C.ar      23 UNK        -0.1150 
     15 C15         1.1266  -19.2417  -51.4658 C.3       23 UNK        -0.0205 
     16 S16         0.8511  -19.7987  -49.7586 S.3       23 UNK        -0.2404 
     17 C17         0.9713  -21.6036  -49.9843 C.3       23 UNK        -0.0398 
     18 CA          0.9756  -22.4058  -48.6595 C.3       11 UNK         0.1400 
     19 N           1.9689  -21.8853  -47.7193 N.am      11 UNK        -0.5000 
     20 C           2.4232  -22.5196  -46.6343 C.2       10 UNK         0.5000 
     21 O           2.0535  -23.6470  -46.3070 O.2       10 UNK        -0.5000 
     22 CA          3.4221  -21.7586  -45.7353 C.3       10 UNK         0.1400 
     23 CB          3.9161  -20.4198  -46.3334 C.3       10 UNK        -0.1800 
     24 N           2.8776  -21.5401  -44.3907 N.am      10 UNK        -0.5000 
     25 C           1.7238  -20.9282  -44.0913 C.2       9 UNK         0.5000 
     26 O           0.9547  -20.4683  -44.9386 O.2       9 UNK        -0.5000 
     27 CA          1.3855  -20.8129  -42.5971 C.3       9 UNK         0.1400 
     28 CB          2.2238  -19.7188  -41.9173 C.3       9 UNK        -0.1800 
     29 N          -0.0257  -20.4800  -42.4312 N.am      9 UNK        -0.5000 
     30 C          -0.9336  -21.2459  -41.8145 C.2       8 UNK         0.5000 
     31 O          -0.6725  -22.3317  -41.2952 O.2       8 UNK        -0.5000 
     32 CA         -2.3623  -20.6804  -41.7388 C.3       8 UNK         0.1400 
     33 CB         -3.2214  -21.3405  -40.6440 C.3       8 UNK        -0.1800 
     34 N          -2.3066  -19.2366  -41.5199 N.am      8 UNK        -0.5000 
     35 C          -3.1346  -18.3346  -42.0551 C.2       7 UNK         0.5000 
     36 O          -4.0915  -18.6348  -42.7712 O.2       7 UNK        -0.5000 
     37 CA         -2.8605  -16.8515  -41.7323 C.3       7 UNK         0.1400 
     38 CB         -1.5728  -16.6052  -40.9178 C.3       7 UNK        -0.1800 
     39 N          -2.7674  -16.1049  -42.9807 N.am      7 UNK        -0.5000 
     40 C          -3.7443  -15.3688  -43.5245 C.2       6 UNK         0.5000 
     41 O          -4.8346  -15.1718  -42.9852 O.2       6 UNK        -0.5000 
     42 CA         -3.4615  -14.7264  -44.8981 C.3       6 UNK         0.1400 
     43 CB         -3.1793  -13.2245  -44.7373 C.3       6 UNK        -0.1800 
     44 N          -2.3444  -15.3472  -45.6128 N.am      6 UNK        -0.5000 
     45 C          -2.3866  -16.5531  -46.1964 C.2       5 UNK         0.5000 
     46 O          -3.4046  -17.2401  -46.2689 O.2       5 UNK        -0.5000 
     47 CA         -1.0671  -17.0856  -46.7855 C.3       5 UNK         0.1400 
     48 CB         -0.9015  -16.6091  -48.2336 C.3       5 UNK        -0.1800 
     49 N           0.1151  -16.6872  -46.0249 N.am      5 UNK        -0.5000 
     50 C           0.3848  -17.0157  -44.7540 C.2       4 UNK         0.5000 
     51 O          -0.3469  -17.7059  -44.0426 O.2       4 UNK        -0.5000 
     52 CA          1.6699  -16.4090  -44.1651 C.3       4 UNK         0.1400 
     53 CB          2.9188  -17.1612  -44.6532 C.3       4 UNK        -0.1800 
     54 N           1.7964  -14.9912  -44.5002 N.am      4 UNK        -0.5000 
     55 C           1.0385  -14.0164  -43.9789 C.2       3 UNK         0.5000 
     56 O           0.1856  -14.2014  -43.1112 O.2       3 UNK        -0.5000 
     57 CA          1.2536  -12.6004  -44.5438 C.3       3 UNK         0.1400 
     58 CB          2.3929  -11.8867  -43.8012 C.3       3 UNK        -0.1800 
     59 N           1.5415  -12.6116  -45.9790 N.am      3 UNK        -0.5000 
     60 C           0.6342  -12.9026  -46.9235 C.2       2 UNK         0.5000 
     61 O          -0.5438  -13.1580  -46.6795 O.2       2 UNK        -0.5000 
     62 CA          1.1335  -12.9675  -48.3798 C.3       2 UNK         0.1400 
     63 CB          1.0419  -11.5901  -49.0511 C.3       2 UNK        -0.1800 
     64 N           2.5024  -13.4704  -48.4937 N.am      2 UNK        -0.5000 
     65 C           2.8961  -14.6937  -48.1120 C.2       1 UNK         0.5000 
     66 O           2.1279  -15.5333  -47.6469 O.2       1 UNK        -0.5000 
     67 C          -0.4410  -22.5429  -48.0552 C.2       11 UNK         0.5000 
     68 O          -1.2304  -23.3387  -48.5683 O.2       11 UNK        -0.5000 
     69 N          -0.7571  -21.8056  -46.9796 N.am      12 UNK        -0.5000 
     70 CA         -2.0331  -21.9364  -46.2715 C.3       12 UNK         0.1400 
     71 CB         -2.3952  -20.6205  -45.5722 C.3       12 UNK        -0.1800 
     72 C          -2.0494  -23.1193  -45.2874 C.2       12 UNK         0.5000 
     73 O          -3.1296  -23.6248  -44.9829 O.2       12 UNK        -0.5000 
     74 N          -0.8690  -23.5826  -44.8457 N.am      13 UNK        -0.5000 
     75 CA         -0.7146  -24.7302  -43.9413 C.3       13 UNK         0.1400 
     76 CB          0.7312  -24.7989  -43.4284 C.3       13 UNK        -0.1800 
     77 C          -1.1162  -26.0726  -44.5846 C.2       13 UNK         0.5000 
     78 O          -1.4391  -27.0185  -43.8660 O.2       13 UNK        -0.5000 
     79 N          -1.1197  -26.1215  -45.9244 N.am      14 UNK        -0.5000 
     80 CA         -1.6045  -27.2428  -46.7307 C.3       14 UNK         0.1400 
     81 CB         -1.1180  -27.0445  -48.1759 C.3       14 UNK        -0.1800 
     82 C          -3.1401  -27.4079  -46.6999 C.2       14 UNK         0.5000 
     83 O          -3.6345  -28.4527  -47.1235 O.2       14 UNK        -0.5000 
     84 N          -3.8556  -26.3764  -46.2226 N.am      15 UNK        -0.5000 
     85 CA         -5.3129  -26.2400  -46.1585 C.3       15 UNK         0.1400 
     86 CB         -5.8718  -27.1597  -45.0525 C.3       15 UNK        -0.1800 
     87 C          -6.0214  -26.4404  -47.5240 C.2       15 UNK         0.5000 
     88 O          -6.8701  -27.3252  -47.6374 O.2       15 UNK        -0.5000 
     89 N          -5.7086  -25.6656  -48.5730 N.am      16 UNK        -0.5000 
     90 CA         -4.7520  -24.5680  -48.6773 C.3       16 UNK         0.1400 
     91 CB         -5.3579  -23.2664  -48.1204 C.3       16 UNK        -0.1800 
     92 C          -4.4008  -24.4005  -50.1589 C.2       16 UNK         0.5000 
     93 O          -5.3063  -24.3637  -50.9941 O.2       16 UNK        -0.5000 
     94 N          -3.1054  -24.2494  -50.4535 N.am      17 UNK        -0.5000 
     95 CA         -2.6048  -23.8441  -51.7676 C.3       17 UNK         0.1400 
     96 CB         -1.1718  -24.3648  -51.9520 C.3       17 UNK        -0.1800 
     97 C          -2.6777  -22.3152  -51.9417 C.2       17 UNK         0.5000 
     98 O          -2.7546  -21.8356  -53.0719 O.2       17 UNK        -0.5000 
     99 N          -2.7226  -21.5767  -50.8207 N.am      18 UNK        -0.5000 
    100 CA        -2.9508  -20.1304  -50.7584 C.3       18 UNK         0.1400 
    101 CB        -2.9407  -19.6812  -49.2898 C.3       18 UNK        -0.1800 
    102 C         -4.2651  -19.6920  -51.4321 C.2       18 UNK         0.5000 
    103 O         -4.2987  -18.6512  -52.0887 O.2       18 UNK        -0.5000 
    104 N         -5.3056  -20.5252  -51.2893 N.am      19 UNK        -0.5000 
    105 CA        -6.6227  -20.3407  -51.8973 C.3       19 UNK         0.1400 
    106 CB        -7.6088  -21.3264  -51.2525 C.3       19 UNK        -0.1800 
    107 C         -6.6159  -20.5063  -53.4291 C.2       19 UNK         0.5000 
    108 O         -7.4505  -19.9015  -54.1015 O.2       19 UNK        -0.5000 
    109 N         -5.6756  -21.3004  -53.9585 N.am      20 UNK        -0.5000 
    110 CA        -5.4495  -21.4509  -55.3952 C.3       20 UNK         0.1400 
    111 CB        -4.8297  -22.8286  -55.6785 C.3       20 UNK        -0.1800 
    112 C         -4.5560  -20.3215  -55.9369 C.2       20 UNK         0.5000 
    113 O         -4.8142  -19.8155  -57.0291 O.2       20 UNK        -0.5000 
    114 N         -3.5297  -19.9453  -55.1609 N.am      21 UNK        -0.5000 
    115 CA        -2.5566  -18.9074  -55.4979 C.3       21 UNK         0.1400 
    116 CB        -1.3884  -18.9675  -54.5020 C.3       21 UNK        -0.1800 
    117 C         -3.1609  -17.4919  -55.5446 C.2       21 UNK         0.5000 
    118 O         -2.9234  -16.7703  -56.5146 O.2       21 UNK        -0.5000 
    119 N         -3.9217  -17.1264  -54.5052 N.am      22 UNK        -0.5000 
    120 CA        -4.5187  -15.7897  -54.3235 C.3       22 UNK         0.1400 
    121 C         -6.0735  -15.8070  -54.2719 C.2       22 UNK         0.5000 
    122 N         -6.7389  -16.9298  -54.5051 N.am      22 UNK        -0.7600 
    123 O         -6.6969  -14.7746  -54.0397 O.2       22 UNK        -0.5000 
    124 C124       -3.9168  -15.0535  -53.0960 C.3       23 UNK        -0.0398 
    125 S125       -2.1250  -14.7455  -53.2782 S.3       23 UNK        -0.2404 
    126 C126       -1.5201  -14.9580  -51.5758 C.3       23 UNK        -0.0205 
    127 H127        6.9117  -11.9276  -48.5871 H         1 UNK         0.0600 
    128 H128        7.1807  -11.7895  -46.8470 H         1 UNK         0.0600 
    129 H129        5.9084  -10.8400  -47.6225 H         1 UNK         0.0600 
    130 H130        5.8392  -13.8126  -49.1391 H         1 UNK         0.3000 
    131 H131        4.6262  -15.5042  -47.2459 H         1 UNK         0.0600 
    132 H132        5.5535  -16.6780  -48.9734 H         1 UNK         0.0800 
    133 H133        3.8781  -16.8506  -49.3292 H         1 UNK         0.0800 
    134 H134        3.6972  -14.4265  -52.6200 H         1 UNK         0.0800 
    135 H135        3.3637  -13.8132  -51.0302 H         1 UNK         0.0800 
    136 H136        0.9799  -13.8560  -51.5921 H         1 UNK         0.1150 
    137 H137       -1.0503  -17.6190  -51.5287 H         1 UNK         0.1150 
    138 H138        3.2265  -17.5161  -51.5720 H         1 UNK         0.1150 
    139 H139        0.3590  -19.6623  -52.1167 H         1 UNK         0.0800 
    140 H140        2.0843  -19.6209  -51.8255 H         1 UNK         0.0800 
    141 H141        1.8960  -21.8116  -50.5243 H         1 UNK         0.0800 
    142 H142        0.1667  -21.9257  -50.6446 H         1 UNK         0.0800 
    143 H143        1.2814  -23.4241  -48.9093 H         1 UNK         0.0600 
    144 H144        2.2818  -20.9412  -47.8965 H         1 UNK         0.3000 
    145 H145        4.2886  -22.4115  -45.6213 H         1 UNK         0.0600 
    146 H146        4.4028  -20.5738  -47.2973 H         1 UNK         0.0600 
    147 H147        3.1047  -19.7056  -46.4795 H         1 UNK         0.0600 
    148 H148        4.6498  -19.9500  -45.6784 H         1 UNK         0.0600 
    149 H149        3.4343  -21.9151  -43.6356 H         1 UNK         0.3000 
    150 H150        1.6221  -21.7678  -42.1254 H         1 UNK         0.0600 
    151 H151        3.2905  -19.8593  -42.0958 H         1 UNK         0.0600 
    152 H152        2.0726  -19.7304  -40.8378 H         1 UNK         0.0600 
    153 H153        1.9543  -18.7261  -42.2737 H         1 UNK         0.0600 
    154 H154       -0.3284  -19.6425  -42.9184 H         1 UNK         0.3000 
    155 H155       -2.8248  -20.8911  -42.7035 H         1 UNK         0.0600 
    156 H156       -2.7899  -21.1933  -39.6534 H         1 UNK         0.0600 
    157 H157       -3.3121  -22.4147  -40.8101 H         1 UNK         0.0600 
    158 H158       -4.2311  -20.9298  -40.6345 H         1 UNK         0.0600 
    159 H159       -1.5339  -18.9096  -40.9564 H         1 UNK         0.3000 
    160 H160       -3.7032  -16.4939  -41.1375 H         1 UNK         0.0600 
    161 H161       -0.6829  -16.9645  -41.4361 H         1 UNK         0.0600 
    162 H162       -1.6184  -17.0916  -39.9427 H         1 UNK         0.0600 
    163 H163       -1.4310  -15.5399  -40.7337 H         1 UNK         0.0600 
    164 H164       -1.9272  -16.2651  -43.5222 H         1 UNK         0.3000 
    165 H165       -4.3632  -14.8400  -45.5033 H         1 UNK         0.0600 
    166 H166       -3.0799  -12.7366  -45.7070 H         1 UNK         0.0600 
    167 H167       -3.9914  -12.7257  -44.2070 H         1 UNK         0.0600 
    168 H168       -2.2611  -13.0469  -44.1761 H         1 UNK         0.0600 
    169 H169       -1.4886  -14.8078  -45.6704 H         1 UNK         0.3000 
    170 H170       -1.1022  -18.1751  -46.7854 H         1 UNK         0.0600 
    171 H171       -1.7445  -16.9121  -48.8520 H         1 UNK         0.0600 
    172 H172       -0.8305  -15.5236  -48.2927 H         1 UNK         0.0600 
    173 H173       -0.0000  -17.0266  -48.6817 H         1 UNK         0.0600 
    174 H174        0.8102  -16.1519  -46.5411 H         1 UNK         0.3000 
    175 H175        1.6173  -16.4996  -43.0783 H         1 UNK         0.0600 
    176 H176        3.0409  -17.0943  -45.7339 H         1 UNK         0.0600 
    177 H177        3.8229  -16.7674  -44.1890 H         1 UNK         0.0600 
    178 H178        2.8623  -18.2195  -44.4045 H         1 UNK         0.0600 
    179 H179        2.4472  -14.7526  -45.2338 H         1 UNK         0.3000 
    180 H180        0.3343  -12.0334  -44.3817 H         1 UNK         0.0600 
    181 H181        2.5149  -10.8633  -44.1564 H         1 UNK         0.0600 
    182 H182        3.3450  -12.4025  -43.9316 H         1 UNK         0.0600 
    183 H183        2.1897  -11.8375  -42.7307 H         1 UNK         0.0600 
    184 H184        2.5039  -12.4566  -46.2526 H         1 UNK         0.3000 
    185 H185        0.4808  -13.6533  -48.9226 H         1 UNK         0.0600 
    186 H186        1.3176  -11.6455  -50.1044 H         1 UNK         0.0600 
    187 H187        0.0243  -11.2002  -49.0028 H         1 UNK         0.0600 
    188 H188        1.6963  -10.8626  -48.5692 H         1 UNK         0.0600 
    189 H189        3.2003  -12.8273  -48.8360 H         1 UNK         0.3000 
    190 H190       -0.0656  -21.1868  -46.5660 H         1 UNK         0.3000 
    191 H191       -2.8208  -22.1287  -47.0008 H         1 UNK         0.0600 
    192 H192       -3.3249  -20.7172  -45.0106 H         1 UNK         0.0600 
    193 H193       -2.5564  -19.8308  -46.3022 H         1 UNK         0.0600 
    194 H194       -1.6227  -20.2888  -44.8805 H         1 UNK         0.0600 
    195 H195       -0.0184  -23.1535  -45.1838 H         1 UNK         0.3000 
    196 H196       -1.3704  -24.5674  -43.0833 H         1 UNK         0.0600 
    197 H197        1.4342  -25.0413  -44.2247 H         1 UNK         0.0600 
    198 H198        1.0393  -23.8572  -42.9791 H         1 UNK         0.0600 
    199 H199        0.8327  -25.5689  -42.6626 H         1 UNK         0.0600 
    200 H200       -0.8129  -25.3023  -46.4287 H         1 UNK         0.3000 
    201 H201       -1.1659  -28.1636  -46.3408 H         1 UNK         0.0600 
    202 H202       -0.0306  -26.9826  -48.2218 H         1 UNK         0.0600 
    203 H203       -1.5239  -26.1339  -48.6170 H         1 UNK         0.0600 
    204 H204       -1.4213  -27.8786  -48.8099 H         1 UNK         0.0600 
    205 H205       -3.3460  -25.5730  -45.8750 H         1 UNK         0.3000 
    206 H206       -5.5155  -25.2164  -45.8459 H         1 UNK         0.0600 
    207 H207       -5.3974  -26.9526  -44.0931 H         1 UNK         0.0600 
    208 H208       -6.9441  -27.0086  -44.9223 H         1 UNK         0.0600 
    209 H209       -5.7140  -28.2140  -45.2820 H         1 UNK         0.0600 
    210 H210       -6.1779  -25.8482  -49.4505 H         1 UNK         0.3000 
    211 H211       -3.8284  -24.7895  -48.1469 H         1 UNK         0.0600 
    212 H212       -4.7310  -22.4075  -48.3581 H         1 UNK         0.0600 
    213 H213       -5.4588  -23.2944  -47.0367 H         1 UNK         0.0600 
    214 H214       -6.3443  -23.0714  -48.5431 H         1 UNK         0.0600 
    215 H215       -2.4202  -24.2348  -49.7018 H         1 UNK         0.3000 
    216 H216       -3.2255  -24.2892  -52.5484 H         1 UNK         0.0600 
    217 H217       -0.5162  -24.0592  -51.1382 H         1 UNK         0.0600 
    218 H218       -0.7373  -24.0021  -52.8846 H         1 UNK         0.0600 
    219 H219       -1.1583  -25.4541  -51.9905 H         1 UNK         0.0600 
    220 H220       -2.6146  -22.0554  -49.9385 H         1 UNK         0.3000 
    221 H221       -2.1275  -19.6414  -51.2788 H         1 UNK         0.0600 
    222 H222       -1.9604  -19.8198  -48.8363 H         1 UNK         0.0600 
    223 H223       -3.6673  -20.2315  -48.6923 H         1 UNK         0.0600 
    224 H224       -3.1929  -18.6246  -49.2025 H         1 UNK         0.0600 
    225 H225       -5.1770  -21.3663  -50.7482 H         1 UNK         0.3000 
    226 H226       -6.9582  -19.3248  -51.6779 H         1 UNK         0.0600 
    227 H227       -7.3128  -22.3623  -51.4240 H         1 UNK         0.0600 
    228 H228       -7.6761  -21.1705  -50.1756 H         1 UNK         0.0600 
    229 H229       -8.6119  -21.1994  -51.6617 H         1 UNK         0.0600 
    230 H230       -5.0006  -21.7356  -53.3457 H         1 UNK         0.3000 
    231 H231       -6.4071  -21.4044  -55.9187 H         1 UNK         0.0600 
    232 H232       -3.8518  -22.9422  -55.2107 H         1 UNK         0.0600 
    233 H233       -4.6975  -22.9806  -56.7504 H         1 UNK         0.0600 
    234 H234       -5.4707  -23.6311  -55.3131 H         1 UNK         0.0600 
    235 H235       -3.3565  -20.4649  -54.3062 H         1 UNK         0.3000 
    236 H236       -2.1619  -19.1318  -56.4910 H         1 UNK         0.0600 
    237 H237       -1.7292  -18.7986  -53.4817 H         1 UNK         0.0600 
    238 H238       -0.8920  -19.9376  -54.5323 H         1 UNK         0.0600 
    239 H239       -0.6387  -18.2078  -54.7270 H         1 UNK         0.0600 
    240 H240       -4.0581  -17.7741  -53.7326 H         1 UNK         0.3000 
    241 H241       -4.2972  -15.1758  -55.1980 H         1 UNK         0.0600 
    242 H242       -7.7460  -16.9258  -54.4733 H         1 UNK         0.3800 
    243 H243       -6.2550  -17.7892  -54.7101 H         1 UNK         0.3800 
    244 H244       -4.3951  -14.0839  -52.9479 H         1 UNK         0.0800 
    245 H245       -4.1125  -15.6330  -52.1928 H         1 UNK         0.0800 
    246 H246       -2.2286  -15.5344  -50.9802 H         1 UNK         0.0800 
    247 H247       -1.4415  -13.9814  -51.0958 H         1 UNK         0.0800 
@<TRIPOS>BOND
     1    1    2 1    
     2    1  127 1    
     3    1  128 1    
     4    1  129 1    
     5    2    3 2    
     6    2    4 am   BACKBONE|DICT|INTERRES
     7    4    5 1    
     8    4  130 1    
     9    5    6 1    
    10    5   65 1    
    11    5  131 1    
    12    6    7 1    
    13    6  132 1    
    14    6  133 1    
    15    7    8 1    
    16    8    9 1    
    17    8  134 1    
    18    8  135 1    
    19    9   10 ar   
    20    9   14 ar   
    21   10   11 ar   
    22   10  136 1    
    23   11   12 ar   
    24   11  126 1    
    25   12   13 ar   
    26   12  137 1    
    27   13   14 ar   
    28   13   15 1    
    29   14  138 1    
    30   15   16 1    
    31   15  139 1    
    32   15  140 1    
    33   16   17 1    
    34   17   18 1    
    35   17  141 1    
    36   17  142 1    
    37   18   19 1    
    38   18   67 1    
    39   18  143 1    
    40   19   20 am   BACKBONE|DICT|INTERRES
    41   19  144 1    
    42   20   21 2    
    43   20   22 1    
    44   22   23 1    
    45   22   24 1    
    46   22  145 1    
    47   23  146 1    
    48   23  147 1    
    49   23  148 1    
    50   24   25 am   BACKBONE|DICT|INTERRES
    51   24  149 1    
    52   25   26 2    
    53   25   27 1    
    54   27   28 1    
    55   27   29 1    
    56   27  150 1    
    57   28  151 1    
    58   28  152 1    
    59   28  153 1    
    60   29   30 am   BACKBONE|DICT|INTERRES
    61   29  154 1    
    62   30   31 2    
    63   30   32 1    
    64   32   33 1    
    65   32   34 1    
    66   32  155 1    
    67   33  156 1    
    68   33  157 1    
    69   33  158 1    
    70   34   35 am   BACKBONE|DICT|INTERRES
    71   34  159 1    
    72   35   36 2    
    73   35   37 1    
    74   37   38 1    
    75   37   39 1    
    76   37  160 1    
    77   38  161 1    
    78   38  162 1    
    79   38  163 1    
    80   39   40 am   BACKBONE|DICT|INTERRES
    81   39  164 1    
    82   40   41 2    
    83   40   42 1    
    84   42   43 1    
    85   42   44 1    
    86   42  165 1    
    87   43  166 1    
    88   43  167 1    
    89   43  168 1    
    90   44   45 am   BACKBONE|DICT|INTERRES
    91   44  169 1    
    92   45   46 2    
    93   45   47 1    
    94   47   48 1    
    95   47   49 1    
    96   47  170 1    
    97   48  171 1    
    98   48  172 1    
    99   48  173 1    
   100   49   50 am   BACKBONE|DICT|INTERRES
   101   49  174 1    
   102   50   51 2    
   103   50   52 1    
   104   52   53 1    
   105   52   54 1    
   106   52  175 1    
   107   53  176 1    
   108   53  177 1    
   109   53  178 1    
   110   54   55 am   BACKBONE|DICT|INTERRES
   111   54  179 1    
   112   55   56 2    
   113   55   57 1    
   114   57   58 1    
   115   57   59 1    
   116   57  180 1    
   117   58  181 1    
   118   58  182 1    
   119   58  183 1    
   120   59   60 am   BACKBONE|DICT|INTERRES
   121   59  184 1    
   122   60   61 2    
   123   60   62 1    
   124   62   63 1    
   125   62   64 1    
   126   62  185 1    
   127   63  186 1    
   128   63  187 1    
   129   63  188 1    
   130   64   65 am   BACKBONE|DICT|INTERRES
   131   64  189 1    
   132   65   66 2    
   133   67   68 2    
   134   67   69 am   BACKBONE|DICT|INTERRES
   135   69   70 1    
   136   69  190 1    
   137   70   71 1    
   138   70   72 1    
   139   70  191 1    
   140   71  192 1    
   141   71  193 1    
   142   71  194 1    
   143   72   73 2    
   144   72   74 am   BACKBONE|DICT|INTERRES
   145   74   75 1    
   146   74  195 1    
   147   75   76 1    
   148   75   77 1    
   149   75  196 1    
   150   76  197 1    
   151   76  198 1    
   152   76  199 1    
   153   77   78 2    
   154   77   79 am   BACKBONE|DICT|INTERRES
   155   79   80 1    
   156   79  200 1    
   157   80   81 1    
   158   80   82 1    
   159   80  201 1    
   160   81  202 1    
   161   81  203 1    
   162   81  204 1    
   163   82   83 2    
   164   82   84 am   BACKBONE|DICT|INTERRES
   165   84   85 1    
   166   84  205 1    
   167   85   86 1    
   168   85   87 1    
   169   85  206 1    
   170   86  207 1    
   171   86  208 1    
   172   86  209 1    
   173   87   88 2    
   174   87   89 am   BACKBONE|DICT|INTERRES
   175   89   90 1    
   176   89  210 1    
   177   90   91 1    
   178   90   92 1    
   179   90  211 1    
   180   91  212 1    
   181   91  213 1    
   182   91  214 1    
   183   92   93 2    
   184   92   94 am   BACKBONE|DICT|INTERRES
   185   94   95 1    
   186   94  215 1    
   187   95   96 1    
   188   95   97 1    
   189   95  216 1    
   190   96  217 1    
   191   96  218 1    
   192   96  219 1    
   193   97   98 2    
   194   97   99 am   BACKBONE|DICT|INTERRES
   195   99  100 1    
   196   99  220 1    
   197  100  101 1    
   198  100  102 1    
   199  100  221 1    
   200  101  222 1    
   201  101  223 1    
   202  101  224 1    
   203  102  103 2    
   204  102  104 am   BACKBONE|DICT|INTERRES
   205  104  105 1    
   206  104  225 1    
   207  105  106 1    
   208  105  107 1    
   209  105  226 1    
   210  106  227 1    
   211  106  228 1    
   212  106  229 1    
   213  107  108 2    
   214  107  109 am   BACKBONE|DICT|INTERRES
   215  109  110 1    
   216  109  230 1    
   217  110  111 1    
   218  110  112 1    
   219  110  231 1    
   220  111  232 1    
   221  111  233 1    
   222  111  234 1    
   223  112  113 2    
   224  112  114 am   BACKBONE|DICT|INTERRES
   225  114  115 1    
   226  114  235 1    
   227  115  116 1    
   228  115  117 1    
   229  115  236 1    
   230  116  237 1    
   231  116  238 1    
   232  116  239 1    
   233  117  118 2    
   234  117  119 am   BACKBONE|DICT|INTERRES
   235  119  120 1    
   236  119  240 1    
   237  120  121 1    
   238  120  124 1    
   239  120  241 1    
   240  121  122 am   BACKBONE|DICT|INTERRES
   241  121  123 2    
   242  122  242 1    
   243  122  243 1    
   244  124  125 1    
   245  124  244 1    
   246  124  245 1    
   247  125  126 1    
   248  126  246 1    
   249  126  247 1    
@<TRIPOS>SUBSTRUCTURE
     1 UNK         1 GROUP             0       ****    0 ROOT    
