@<TRIPOS>MOLECULE
3R540
247   249    1
SMALL
USER_CHARGES


@<TRIPOS>ATOM
      1 CA          6.1621  -11.5551  -48.9222 C.3       0 UNK        -0.1800 
      2 C           4.9615  -11.9241  -48.0625 C.2       0 UNK         0.5000 
      3 O           4.6567  -11.2193  -47.1005 O.2       0 UNK        -0.5000 
      4 N           4.2802  -13.0245  -48.4072 N.am      1 UNK        -0.5000 
      5 CA          3.1032  -13.5398  -47.6925 C.3       1 UNK         0.1400 
      6 C6          2.8176  -15.0265  -48.0204 C.3       23 UNK        -0.0398 
      7 S7          4.2346  -16.1222  -47.6605 S.3       23 UNK        -0.2404 
      8 C8          4.9243  -16.4443  -49.3172 C.3       23 UNK        -0.0205 
      9 C9          4.1019  -17.4530  -50.1070 C.ar      23 UNK        -0.0193 
     10 C10         3.1359  -17.0189  -51.0184 C.ar      23 UNK        -0.1150 
     11 C11         2.3816  -17.9387  -51.7521 C.ar      23 UNK        -0.0193 
     12 C12         2.6152  -19.3076  -51.5837 C.ar      23 UNK        -0.1150 
     13 C13         3.6049  -19.7563  -50.7018 C.ar      23 UNK        -0.0193 
     14 C14         4.3363  -18.8233  -49.9592 C.ar      23 UNK        -0.1150 
     15 C15         3.9266  -21.2426  -50.5934 C.3       23 UNK        -0.0205 
     16 S16         3.5748  -21.9259  -48.9428 S.3       23 UNK        -0.2404 
     17 C17         1.7585  -21.8057  -48.8901 C.3       23 UNK        -0.0398 
     18 CA          1.0882  -23.0149  -48.2019 C.3       11 UNK         0.1400 
     19 N           1.5587  -23.2158  -46.8287 N.am      11 UNK        -0.5000 
     20 C           1.3376  -24.3293  -46.1166 C.2       10 UNK         0.5000 
     21 O           0.7328  -25.3073  -46.5549 O.2       10 UNK        -0.5000 
     22 CA          1.8253  -24.3391  -44.6557 C.3       10 UNK         0.1400 
     23 CB          3.2621  -24.8745  -44.5736 C.3       10 UNK        -0.1800 
     24 N           1.7621  -23.0291  -44.0061 N.am      10 UNK        -0.5000 
     25 C           0.6553  -22.2889  -43.8542 C.2       9 UNK         0.5000 
     26 O          -0.4577  -22.6442  -44.2432 O.2       9 UNK        -0.5000 
     27 CA          0.8184  -20.9107  -43.1851 C.3       9 UNK         0.1400 
     28 CB          2.0648  -20.8041  -42.2804 C.3       9 UNK        -0.1800 
     29 N           0.8100  -19.8035  -44.1443 N.am      9 UNK        -0.5000 
     30 C           1.5835  -19.6371  -45.2287 C.2       8 UNK         0.5000 
     31 O           2.3369  -20.5013  -45.6786 O.2       8 UNK        -0.5000 
     32 CA          1.5331  -18.2556  -45.9114 C.3       8 UNK         0.1400 
     33 CB          0.4895  -18.2185  -47.0324 C.3       8 UNK        -0.1800 
     34 N           1.2576  -17.1606  -44.9828 N.am      8 UNK        -0.5000 
     35 C           2.1109  -16.7165  -44.0495 C.2       7 UNK         0.5000 
     36 O           3.2306  -17.1901  -43.8553 O.2       7 UNK        -0.5000 
     37 CA          1.6206  -15.5474  -43.1814 C.3       7 UNK         0.1400 
     38 CB          1.7674  -14.2159  -43.9340 C.3       7 UNK        -0.1800 
     39 N           0.2256  -15.7343  -42.7838 N.am      7 UNK        -0.5000 
     40 C          -0.1644  -16.4670  -41.7311 C.2       6 UNK         0.5000 
     41 O           0.6161  -17.0146  -40.9521 O.2       6 UNK        -0.5000 
     42 CA         -1.6821  -16.6216  -41.5084 C.3       6 UNK         0.1400 
     43 CB         -2.2049  -15.5126  -40.5827 C.3       6 UNK        -0.1800 
     44 N          -2.4542  -16.6088  -42.7518 N.am      6 UNK        -0.5000 
     45 C          -2.4132  -17.5734  -43.6810 C.2       5 UNK         0.5000 
     46 O          -1.7389  -18.5961  -43.5741 O.2       5 UNK        -0.5000 
     47 CA         -3.2195  -17.3296  -44.9703 C.3       5 UNK         0.1400 
     48 CB         -4.6385  -17.9039  -44.8465 C.3       5 UNK        -0.1800 
     49 N          -3.2941  -15.9208  -45.3652 N.am      5 UNK        -0.5000 
     50 C          -2.2327  -15.1654  -45.6734 C.2       4 UNK         0.5000 
     51 O          -1.0663  -15.5580  -45.5924 O.2       4 UNK        -0.5000 
     52 CA         -2.5175  -13.7313  -46.1370 C.3       4 UNK         0.1400 
     53 CB         -1.8824  -12.7059  -45.1849 C.3       4 UNK        -0.1800 
     54 N          -1.9860  -13.5492  -47.4830 N.am      4 UNK        -0.5000 
     55 C          -2.6141  -13.9493  -48.5986 C.2       3 UNK         0.5000 
     56 O          -3.7361  -14.4583  -48.5863 O.2       3 UNK        -0.5000 
     57 CA         -1.8780  -13.7828  -49.9479 C.3       3 UNK         0.1400 
     58 CB         -2.8248  -13.3353  -51.0813 C.3       3 UNK        -0.1800 
     59 N          -0.6886  -12.9239  -49.8891 N.am      3 UNK        -0.5000 
     60 C          -0.6365  -11.6109  -49.6156 C.2       2 UNK         0.5000 
     61 O          -1.6322  -10.9058  -49.4457 O.2       2 UNK        -0.5000 
     62 CA          0.7758  -10.9936  -49.4890 C.3       2 UNK         0.1400 
     63 CB          0.7940   -9.7553  -48.5687 C.3       2 UNK        -0.1800 
     64 N           1.8181  -11.9441  -49.0699 N.am      2 UNK        -0.5000 
     65 C           1.8414  -12.6862  -47.9492 C.2       1 UNK         0.5000 
     66 O           0.9115  -12.7318  -47.1453 O.2       1 UNK        -0.5000 
     67 C          -0.4463  -22.8732  -48.2543 C.2       11 UNK         0.5000 
     68 O          -1.0695  -23.3857  -49.1825 O.2       11 UNK        -0.5000 
     69 N          -1.0338  -22.2086  -47.2478 N.am      12 UNK        -0.5000 
     70 CA         -2.4822  -22.0694  -47.0988 C.3       12 UNK         0.1400 
     71 CB         -2.8051  -20.9314  -46.1243 C.3       12 UNK        -0.1800 
     72 C          -3.1371  -23.3865  -46.6601 C.2       12 UNK         0.5000 
     73 O          -4.2029  -23.7281  -47.1693 O.2       12 UNK        -0.5000 
     74 N          -2.4675  -24.1331  -45.7706 N.am      13 UNK        -0.5000 
     75 CA         -2.8689  -25.4771  -45.3512 C.3       13 UNK         0.1400 
     76 CB         -1.9545  -25.9643  -44.2180 C.3       13 UNK        -0.1800 
     77 C          -2.8815  -26.4754  -46.5248 C.2       13 UNK         0.5000 
     78 O          -3.8581  -27.2078  -46.6863 O.2       13 UNK        -0.5000 
     79 N          -1.8345  -26.4369  -47.3630 N.am      14 UNK        -0.5000 
     80 CA         -1.7247  -27.2117  -48.6031 C.3       14 UNK         0.1400 
     81 CB         -0.3160  -27.0377  -49.1897 C.3       14 UNK        -0.1800 
     82 C          -2.7958  -26.8431  -49.6496 C.2       14 UNK         0.5000 
     83 O          -3.2450  -27.7163  -50.3921 O.2       14 UNK        -0.5000 
     84 N          -3.2144  -25.5707  -49.6604 N.am      15 UNK        -0.5000 
     85 CA         -4.2996  -25.0390  -50.4868 C.3       15 UNK         0.1400 
     86 CB         -4.0305  -23.5495  -50.7605 C.3       15 UNK        -0.1800 
     87 C          -5.7016  -25.2558  -49.8726 C.2       15 UNK         0.5000 
     88 O          -6.6718  -24.7149  -50.4023 O.2       15 UNK        -0.5000 
     89 N          -5.7968  -26.0265  -48.7776 N.am      16 UNK        -0.5000 
     90 CA         -7.0172  -26.3956  -48.0518 C.3       16 UNK         0.1400 
     91 CB         -7.9418  -27.2641  -48.9310 C.3       16 UNK        -0.1800 
     92 C          -7.7345  -25.1849  -47.4186 C.2       16 UNK         0.5000 
     93 O          -8.9597  -25.0777  -47.4933 O.2       16 UNK        -0.5000 
     94 N          -6.9399  -24.3001  -46.8012 N.am      17 UNK        -0.5000 
     95 CA         -7.3230  -23.0739  -46.0919 C.3       17 UNK         0.1400 
     96 CB         -8.3346  -23.3528  -44.9601 C.3       17 UNK        -0.1800 
     97 C          -7.7551  -21.9188  -47.0178 C.2       17 UNK         0.5000 
     98 O          -8.3040  -20.9266  -46.5346 O.2       17 UNK        -0.5000 
     99 N          -7.4622  -22.0352  -48.3195 N.am      18 UNK        -0.5000 
    100 CA        -7.5293  -20.9372  -49.2828 C.3       18 UNK         0.1400 
    101 CB        -7.6333  -21.5259  -50.6987 C.3       18 UNK        -0.1800 
    102 C         -6.2944  -20.0222  -49.1523 C.2       18 UNK         0.5000 
    103 O         -5.3612  -20.3351  -48.4076 O.2       18 UNK        -0.5000 
    104 N         -6.2834  -18.9202  -49.9131 N.am      19 UNK        -0.5000 
    105 CA        -5.2310  -17.8953  -49.9519 C.3       19 UNK         0.1400 
    106 CB        -5.8133  -16.6306  -50.6079 C.3       19 UNK        -0.1800 
    107 C         -3.9144  -18.3559  -50.6263 C.2       19 UNK         0.5000 
    108 O         -3.3490  -17.6271  -51.4434 O.2       19 UNK        -0.5000 
    109 N         -3.4631  -19.5715  -50.2848 N.am      20 UNK        -0.5000 
    110 CA        -2.1870  -20.2121  -50.6283 C.3       20 UNK         0.1400 
    111 CB        -1.0541  -19.5313  -49.8428 C.3       20 UNK        -0.1800 
    112 C         -1.8809  -20.3489  -52.1352 C.2       20 UNK         0.5000 
    113 O         -0.7280  -20.5719  -52.5067 O.2       20 UNK        -0.5000 
    114 N         -2.9211  -20.2161  -52.9718 N.am      21 UNK        -0.5000 
    115 CA        -2.8838  -20.1585  -54.4370 C.3       21 UNK         0.1400 
    116 CB        -2.4548  -21.5179  -55.0281 C.3       21 UNK        -0.1800 
    117 C         -2.0538  -18.9731  -54.9846 C.2       21 UNK         0.5000 
    118 O         -1.5534  -19.0453  -56.1089 O.2       21 UNK        -0.5000 
    119 N         -1.9190  -17.9050  -54.1865 N.am      22 UNK        -0.5000 
    120 CA        -1.1999  -16.6755  -54.5427 C.3       22 UNK         0.1400 
    121 C         -1.9305  -15.8516  -55.6404 C.2       22 UNK         0.5000 
    122 N         -1.1925  -15.1549  -56.4942 N.am      22 UNK        -0.7600 
    123 O         -3.1574  -15.8030  -55.7020 O.2       22 UNK        -0.5000 
    124 C124       -0.9348  -15.7918  -53.2967 C.3       23 UNK        -0.0398 
    125 S125       -0.0279  -16.5885  -51.9229 S.3       23 UNK        -0.2404 
    126 C126        1.3477  -17.4420  -52.7531 C.3       23 UNK        -0.0205 
    127 H127        6.0194  -10.5681  -49.3619 H         1 UNK         0.0600 
    128 H128        6.3169  -12.2690  -49.7315 H         1 UNK         0.0600 
    129 H129        7.0658  -11.5309  -48.3134 H         1 UNK         0.0600 
    130 H130        4.5928  -13.5710  -49.1954 H         1 UNK         0.3000 
    131 H131        3.3112  -13.4744  -46.6224 H         1 UNK         0.0600 
    132 H132        1.9789  -15.3824  -47.4193 H         1 UNK         0.0800 
    133 H133        2.5095  -15.1426  -49.0585 H         1 UNK         0.0800 
    134 H134        5.9409  -16.8225  -49.1996 H         1 UNK         0.0800 
    135 H135        5.0169  -15.5100  -49.8716 H         1 UNK         0.0800 
    136 H136        2.9665  -15.9618  -51.1642 H         1 UNK         0.1150 
    137 H137        2.0436  -20.0219  -52.1602 H         1 UNK         0.1150 
    138 H138        5.0992  -19.1660  -49.2741 H         1 UNK         0.1150 
    139 H139        3.3832  -21.8168  -51.3455 H         1 UNK         0.0800 
    140 H140        4.9858  -21.3872  -50.8106 H         1 UNK         0.0800 
    141 H141        1.3858  -21.7099  -49.9115 H         1 UNK         0.0800 
    142 H142        1.5050  -20.8808  -48.3762 H         1 UNK         0.0800 
    143 H143        1.3480  -23.9078  -48.7749 H         1 UNK         0.0600 
    144 H144        2.0443  -22.4361  -46.3961 H         1 UNK         0.3000 
    145 H145        1.1769  -25.0145  -44.0952 H         1 UNK         0.0600 
    146 H146        3.5898  -24.9699  -43.5382 H         1 UNK         0.0600 
    147 H147        3.3371  -25.8627  -45.0294 H         1 UNK         0.0600 
    148 H148        3.9650  -24.2199  -45.0907 H         1 UNK         0.0600 
    149 H149        2.6392  -22.6388  -43.6941 H         1 UNK         0.3000 
    150 H150       -0.0600  -20.7750  -42.5524 H         1 UNK         0.0600 
    151 H151        2.0929  -21.6125  -41.5485 H         1 UNK         0.0600 
    152 H152        2.0558  -19.8670  -41.7229 H         1 UNK         0.0600 
    153 H153        2.9941  -20.8338  -42.8504 H         1 UNK         0.0600 
    154 H154        0.1338  -19.0767  -43.9313 H         1 UNK         0.3000 
    155 H155        2.5130  -18.0782  -46.3566 H         1 UNK         0.0600 
    156 H156       -0.4913  -18.5389  -46.6823 H         1 UNK         0.0600 
    157 H157        0.3830  -17.2175  -47.4505 H         1 UNK         0.0600 
    158 H158        0.7918  -18.8672  -47.8501 H         1 UNK         0.0600 
    159 H159        0.3741  -16.6728  -45.1063 H         1 UNK         0.3000 
    160 H160        2.2476  -15.4986  -42.2884 H         1 UNK         0.0600 
    161 H161        1.2003  -14.2134  -44.8648 H         1 UNK         0.0600 
    162 H162        2.8111  -14.0270  -44.1874 H         1 UNK         0.0600 
    163 H163        1.4221  -13.3779  -43.3287 H         1 UNK         0.0600 
    164 H164       -0.4759  -15.3667  -43.4115 H         1 UNK         0.3000 
    165 H165       -1.8471  -17.5829  -41.0170 H         1 UNK         0.0600 
    166 H166       -3.2613  -15.6547  -40.3539 H         1 UNK         0.0600 
    167 H167       -1.6660  -15.5096  -39.6342 H         1 UNK         0.0600 
    168 H168       -2.0870  -14.5250  -41.0303 H         1 UNK         0.0600 
    169 H169       -3.0344  -15.8008  -42.9222 H         1 UNK         0.3000 
    170 H170       -2.7077  -17.8581  -45.7748 H         1 UNK         0.0600 
    171 H171       -4.6133  -18.9480  -44.5323 H         1 UNK         0.0600 
    172 H172       -5.2321  -17.3565  -44.1134 H         1 UNK         0.0600 
    173 H173       -5.1631  -17.8676  -45.8017 H         1 UNK         0.0600 
    174 H174       -4.2196  -15.5295  -45.4660 H         1 UNK         0.3000 
    175 H175       -3.5955  -13.5562  -46.1472 H         1 UNK         0.0600 
    176 H176       -0.8031  -12.8352  -45.1068 H         1 UNK         0.0600 
    177 H177       -2.0708  -11.6868  -45.5228 H         1 UNK         0.0600 
    178 H178       -2.2959  -12.7988  -44.1800 H         1 UNK         0.0600 
    179 H179       -1.0373  -13.1937  -47.5424 H         1 UNK         0.3000 
    180 H180       -1.5140  -14.7780  -50.2009 H         1 UNK         0.0600 
    181 H181       -3.3507  -12.4139  -50.8305 H         1 UNK         0.0600 
    182 H182       -3.5792  -14.0959  -51.2823 H         1 UNK         0.0600 
    183 H183       -2.2805  -13.1673  -52.0104 H         1 UNK         0.0600 
    184 H184        0.1927  -13.4019  -50.0073 H         1 UNK         0.3000 
    185 H185        1.0488  -10.6631  -50.4920 H         1 UNK         0.0600 
    186 H186        0.1342   -8.9733  -48.9460 H         1 UNK         0.0600 
    187 H187        0.4674  -10.0006  -47.5575 H         1 UNK         0.0600 
    188 H188        1.7948   -9.3283  -48.5025 H         1 UNK         0.0600 
    189 H189        2.6292  -11.9895  -49.6703 H         1 UNK         0.3000 
    190 H190       -0.4676  -21.8923  -46.4730 H         1 UNK         0.3000 
    191 H191       -2.9072  -21.8008  -48.0667 H         1 UNK         0.0600 
    192 H192       -2.3977  -21.1075  -45.1289 H         1 UNK         0.0600 
    193 H193       -3.8836  -20.8055  -46.0221 H         1 UNK         0.0600 
    194 H194       -2.4026  -19.9903  -46.4922 H         1 UNK         0.0600 
    195 H195       -1.6272  -23.7475  -45.3499 H         1 UNK         0.3000 
    196 H196       -3.8861  -25.4096  -44.9598 H         1 UNK         0.0600 
    197 H197       -2.2940  -26.9263  -43.8322 H         1 UNK         0.0600 
    198 H198       -1.9488  -25.2617  -43.3844 H         1 UNK         0.0600 
    199 H199       -0.9266  -26.0932  -44.5548 H         1 UNK         0.0600 
    200 H200       -1.0417  -25.8455  -47.1294 H         1 UNK         0.3000 
    201 H201       -1.8608  -28.2650  -48.3498 H         1 UNK         0.0600 
    202 H202        0.4476  -27.3734  -48.4879 H         1 UNK         0.0600 
    203 H203       -0.1092  -25.9958  -49.4359 H         1 UNK         0.0600 
    204 H204       -0.1972  -27.6216  -50.1033 H         1 UNK         0.0600 
    205 H205       -2.7624  -24.9105  -49.0406 H         1 UNK         0.3000 
    206 H206       -4.2915  -25.5571  -51.4478 H         1 UNK         0.0600 
    207 H207       -3.0280  -23.3992  -51.1611 H         1 UNK         0.0600 
    208 H208       -4.7281  -23.1545  -51.4987 H         1 UNK         0.0600 
    209 H209       -4.1293  -22.9493  -49.8559 H         1 UNK         0.0600 
    210 H210       -4.9392  -26.3916  -48.3813 H         1 UNK         0.3000 
    211 H211       -6.6906  -27.0169  -47.2167 H         1 UNK         0.0600 
    212 H212       -8.3611  -26.6992  -49.7640 H         1 UNK         0.0600 
    213 H213       -8.7775  -27.6553  -48.3497 H         1 UNK         0.0600 
    214 H214       -7.4052  -28.1194  -49.3416 H         1 UNK         0.0600 
    215 H215       -5.9336  -24.4238  -46.8907 H         1 UNK         0.3000 
    216 H216       -6.4051  -22.7260  -45.6160 H         1 UNK         0.0600 
    217 H217       -8.4545  -22.4775  -44.3209 H         1 UNK         0.0600 
    218 H218       -8.0006  -24.1728  -44.3244 H         1 UNK         0.0600 
    219 H219       -9.3214  -23.6059  -45.3479 H         1 UNK         0.0600 
    220 H220       -6.9969  -22.8771  -48.6283 H         1 UNK         0.3000 
    221 H221       -8.4225  -20.3409  -49.0860 H         1 UNK         0.0600 
    222 H222       -6.7201  -22.0455  -50.9855 H         1 UNK         0.0600 
    223 H223       -8.4570  -22.2365  -50.7714 H         1 UNK         0.0600 
    224 H224       -7.8135  -20.7477  -51.4408 H         1 UNK         0.0600 
    225 H225       -7.0712  -18.7540  -50.5225 H         1 UNK         0.3000 
    226 H226       -4.9736  -17.6405  -48.9216 H         1 UNK         0.0600 
    227 H227       -6.7028  -16.2852  -50.0809 H         1 UNK         0.0600 
    228 H228       -5.0940  -15.8121  -50.5880 H         1 UNK         0.0600 
    229 H229       -6.0838  -16.8058  -51.6498 H         1 UNK         0.0600 
    230 H230       -4.0325  -20.0683  -49.6024 H         1 UNK         0.3000 
    231 H231       -2.2566  -21.2374  -50.2699 H         1 UNK         0.0600 
    232 H232       -0.0730  -19.9142  -50.1176 H         1 UNK         0.0600 
    233 H233       -1.1870  -19.7034  -48.7766 H         1 UNK         0.0600 
    234 H234       -1.0373  -18.4547  -50.0027 H         1 UNK         0.0600 
    235 H235       -3.8178  -20.0182  -52.5522 H         1 UNK         0.3000 
    236 H236       -3.9104  -19.9732  -54.7557 H         1 UNK         0.0600 
    237 H237       -2.5823  -21.5316  -56.1110 H         1 UNK         0.0600 
    238 H238       -1.4073  -21.7379  -54.8208 H         1 UNK         0.0600 
    239 H239       -3.0555  -22.3318  -54.6219 H         1 UNK         0.0600 
    240 H240       -2.3647  -17.9085  -53.2750 H         1 UNK         0.3000 
    241 H241       -0.2379  -16.9749  -54.9612 H         1 UNK         0.0600 
    242 H242       -1.6540  -14.6048  -57.2024 H         1 UNK         0.3800 
    243 H243       -0.1846  -15.1723  -56.4646 H         1 UNK         0.3800 
    244 H244       -0.3769  -14.8973  -53.5788 H         1 UNK         0.0800 
    245 H245       -1.8845  -15.4401  -52.8912 H         1 UNK         0.0800 
    246 H246        1.8303  -16.7619  -53.4563 H         1 UNK         0.0800 
    247 H247        0.9520  -18.2757  -53.3353 H         1 UNK         0.0800 
@<TRIPOS>BOND
     1    1    2 1    
     2    1  127 1    
     3    1  128 1    
     4    1  129 1    
     5    2    3 2    
     6    2    4 am   BACKBONE|DICT|INTERRES
     7    4    5 1    
     8    4  130 1    
     9    5    6 1    
    10    5   65 1    
    11    5  131 1    
    12    6    7 1    
    13    6  132 1    
    14    6  133 1    
    15    7    8 1    
    16    8    9 1    
    17    8  134 1    
    18    8  135 1    
    19    9   10 ar   
    20    9   14 ar   
    21   10   11 ar   
    22   10  136 1    
    23   11   12 ar   
    24   11  126 1    
    25   12   13 ar   
    26   12  137 1    
    27   13   14 ar   
    28   13   15 1    
    29   14  138 1    
    30   15   16 1    
    31   15  139 1    
    32   15  140 1    
    33   16   17 1    
    34   17   18 1    
    35   17  141 1    
    36   17  142 1    
    37   18   19 1    
    38   18   67 1    
    39   18  143 1    
    40   19   20 am   BACKBONE|DICT|INTERRES
    41   19  144 1    
    42   20   21 2    
    43   20   22 1    
    44   22   23 1    
    45   22   24 1    
    46   22  145 1    
    47   23  146 1    
    48   23  147 1    
    49   23  148 1    
    50   24   25 am   BACKBONE|DICT|INTERRES
    51   24  149 1    
    52   25   26 2    
    53   25   27 1    
    54   27   28 1    
    55   27   29 1    
    56   27  150 1    
    57   28  151 1    
    58   28  152 1    
    59   28  153 1    
    60   29   30 am   BACKBONE|DICT|INTERRES
    61   29  154 1    
    62   30   31 2    
    63   30   32 1    
    64   32   33 1    
    65   32   34 1    
    66   32  155 1    
    67   33  156 1    
    68   33  157 1    
    69   33  158 1    
    70   34   35 am   BACKBONE|DICT|INTERRES
    71   34  159 1    
    72   35   36 2    
    73   35   37 1    
    74   37   38 1    
    75   37   39 1    
    76   37  160 1    
    77   38  161 1    
    78   38  162 1    
    79   38  163 1    
    80   39   40 am   BACKBONE|DICT|INTERRES
    81   39  164 1    
    82   40   41 2    
    83   40   42 1    
    84   42   43 1    
    85   42   44 1    
    86   42  165 1    
    87   43  166 1    
    88   43  167 1    
    89   43  168 1    
    90   44   45 am   BACKBONE|DICT|INTERRES
    91   44  169 1    
    92   45   46 2    
    93   45   47 1    
    94   47   48 1    
    95   47   49 1    
    96   47  170 1    
    97   48  171 1    
    98   48  172 1    
    99   48  173 1    
   100   49   50 am   BACKBONE|DICT|INTERRES
   101   49  174 1    
   102   50   51 2    
   103   50   52 1    
   104   52   53 1    
   105   52   54 1    
   106   52  175 1    
   107   53  176 1    
   108   53  177 1    
   109   53  178 1    
   110   54   55 am   BACKBONE|DICT|INTERRES
   111   54  179 1    
   112   55   56 2    
   113   55   57 1    
   114   57   58 1    
   115   57   59 1    
   116   57  180 1    
   117   58  181 1    
   118   58  182 1    
   119   58  183 1    
   120   59   60 am   BACKBONE|DICT|INTERRES
   121   59  184 1    
   122   60   61 2    
   123   60   62 1    
   124   62   63 1    
   125   62   64 1    
   126   62  185 1    
   127   63  186 1    
   128   63  187 1    
   129   63  188 1    
   130   64   65 am   BACKBONE|DICT|INTERRES
   131   64  189 1    
   132   65   66 2    
   133   67   68 2    
   134   67   69 am   BACKBONE|DICT|INTERRES
   135   69   70 1    
   136   69  190 1    
   137   70   71 1    
   138   70   72 1    
   139   70  191 1    
   140   71  192 1    
   141   71  193 1    
   142   71  194 1    
   143   72   73 2    
   144   72   74 am   BACKBONE|DICT|INTERRES
   145   74   75 1    
   146   74  195 1    
   147   75   76 1    
   148   75   77 1    
   149   75  196 1    
   150   76  197 1    
   151   76  198 1    
   152   76  199 1    
   153   77   78 2    
   154   77   79 am   BACKBONE|DICT|INTERRES
   155   79   80 1    
   156   79  200 1    
   157   80   81 1    
   158   80   82 1    
   159   80  201 1    
   160   81  202 1    
   161   81  203 1    
   162   81  204 1    
   163   82   83 2    
   164   82   84 am   BACKBONE|DICT|INTERRES
   165   84   85 1    
   166   84  205 1    
   167   85   86 1    
   168   85   87 1    
   169   85  206 1    
   170   86  207 1    
   171   86  208 1    
   172   86  209 1    
   173   87   88 2    
   174   87   89 am   BACKBONE|DICT|INTERRES
   175   89   90 1    
   176   89  210 1    
   177   90   91 1    
   178   90   92 1    
   179   90  211 1    
   180   91  212 1    
   181   91  213 1    
   182   91  214 1    
   183   92   93 2    
   184   92   94 am   BACKBONE|DICT|INTERRES
   185   94   95 1    
   186   94  215 1    
   187   95   96 1    
   188   95   97 1    
   189   95  216 1    
   190   96  217 1    
   191   96  218 1    
   192   96  219 1    
   193   97   98 2    
   194   97   99 am   BACKBONE|DICT|INTERRES
   195   99  100 1    
   196   99  220 1    
   197  100  101 1    
   198  100  102 1    
   199  100  221 1    
   200  101  222 1    
   201  101  223 1    
   202  101  224 1    
   203  102  103 2    
   204  102  104 am   BACKBONE|DICT|INTERRES
   205  104  105 1    
   206  104  225 1    
   207  105  106 1    
   208  105  107 1    
   209  105  226 1    
   210  106  227 1    
   211  106  228 1    
   212  106  229 1    
   213  107  108 2    
   214  107  109 am   BACKBONE|DICT|INTERRES
   215  109  110 1    
   216  109  230 1    
   217  110  111 1    
   218  110  112 1    
   219  110  231 1    
   220  111  232 1    
   221  111  233 1    
   222  111  234 1    
   223  112  113 2    
   224  112  114 am   BACKBONE|DICT|INTERRES
   225  114  115 1    
   226  114  235 1    
   227  115  116 1    
   228  115  117 1    
   229  115  236 1    
   230  116  237 1    
   231  116  238 1    
   232  116  239 1    
   233  117  118 2    
   234  117  119 am   BACKBONE|DICT|INTERRES
   235  119  120 1    
   236  119  240 1    
   237  120  121 1    
   238  120  124 1    
   239  120  241 1    
   240  121  122 am   BACKBONE|DICT|INTERRES
   241  121  123 2    
   242  122  242 1    
   243  122  243 1    
   244  124  125 1    
   245  124  244 1    
   246  124  245 1    
   247  125  126 1    
   248  126  246 1    
   249  126  247 1    
@<TRIPOS>SUBSTRUCTURE
     1 UNK         1 GROUP             0       ****    0 ROOT    
