@<TRIPOS>MOLECULE
3R540
247   249    1
SMALL
USER_CHARGES


@<TRIPOS>ATOM
      1 CA         -0.4104  -14.2648  -42.2455 C.3       0 UNK        -0.1800 
      2 C          -1.6052  -13.5081  -42.8031 C.2       0 UNK         0.5000 
      3 O          -2.0271  -12.5054  -42.2246 O.2       0 UNK        -0.5000 
      4 N          -2.1486  -13.9784  -43.9318 N.am      1 UNK        -0.5000 
      5 CA         -3.2831  -13.3774  -44.6441 C.3       1 UNK         0.1400 
      6 C6         -4.0506  -14.4148  -45.5055 C.3       23 UNK        -0.0398 
      7 S7         -5.1270  -15.4849  -44.4925 S.3       23 UNK        -0.2404 
      8 C8         -4.1664  -17.0230  -44.3593 C.3       23 UNK        -0.0205 
      9 C9         -4.1727  -17.8326  -45.6490 C.ar      23 UNK        -0.0193 
     10 C10        -3.0552  -17.8215  -46.4856 C.ar      23 UNK        -0.1150 
     11 C11        -3.0292  -18.5794  -47.6563 C.ar      23 UNK        -0.0193 
     12 C12        -4.1547  -19.3252  -48.0117 C.ar      23 UNK        -0.1150 
     13 C13        -5.2611  -19.3945  -47.1594 C.ar      23 UNK        -0.0193 
     14 C14        -5.2689  -18.6350  -45.9834 C.ar      23 UNK        -0.1150 
     15 C15        -6.4243  -20.3237  -47.4903 C.3       23 UNK        -0.0205 
     16 S16        -5.9097  -22.0718  -47.6646 S.3       23 UNK        -0.2404 
     17 C17        -5.1494  -22.4237  -46.0408 C.3       23 UNK        -0.0398 
     18 CA         -3.6144  -22.1947  -46.0527 C.3       11 UNK         0.1400 
     19 N          -3.1452  -21.5114  -44.8431 N.am      11 UNK        -0.5000 
     20 C          -1.9751  -20.8673  -44.7335 C.2       10 UNK         0.5000 
     21 O          -1.1167  -20.8787  -45.6150 O.2       10 UNK        -0.5000 
     22 CA         -1.7061  -20.0943  -43.4279 C.3       10 UNK         0.1400 
     23 CB         -2.9126  -20.0425  -42.4621 C.3       10 UNK        -0.1800 
     24 N          -0.5241  -20.5952  -42.7245 N.am      10 UNK        -0.5000 
     25 C          -0.3062  -21.8415  -42.2789 C.2       9 UNK         0.5000 
     26 O          -1.0805  -22.7830  -42.4639 O.2       9 UNK        -0.5000 
     27 CA          0.9807  -22.0395  -41.4485 C.3       9 UNK         0.1400 
     28 CB          1.3976  -23.5174  -41.2876 C.3       9 UNK        -0.1800 
     29 N           2.0988  -21.2055  -41.9090 N.am      9 UNK        -0.5000 
     30 C           2.7560  -21.3062  -43.0740 C.2       8 UNK         0.5000 
     31 O           2.5302  -22.1680  -43.9251 O.2       8 UNK        -0.5000 
     32 CA          3.8356  -20.2277  -43.3127 C.3       8 UNK         0.1400 
     33 CB          4.5832  -20.4016  -44.6514 C.3       8 UNK        -0.1800 
     34 N           3.3182  -18.8557  -43.1937 N.am      8 UNK        -0.5000 
     35 C           2.3025  -18.3155  -43.8863 C.2       7 UNK         0.5000 
     36 O           1.6000  -18.9538  -44.6691 O.2       7 UNK        -0.5000 
     37 CA          2.0111  -16.8140  -43.6839 C.3       7 UNK         0.1400 
     38 CB          3.1228  -16.0471  -42.9414 C.3       7 UNK        -0.1800 
     39 N           1.8046  -16.2068  -44.9961 N.am      7 UNK        -0.5000 
     40 C           0.6127  -16.0062  -45.5743 C.2       6 UNK         0.5000 
     41 O          -0.4586  -16.0982  -44.9724 O.2       6 UNK        -0.5000 
     42 CA          0.6164  -15.6420  -47.0734 C.3       6 UNK         0.1400 
     43 CB         -0.5224  -14.6810  -47.4468 C.3       6 UNK        -0.1800 
     44 N           1.8838  -15.0362  -47.4668 N.am      6 UNK        -0.5000 
     45 C           2.8194  -15.5997  -48.2421 C.2       5 UNK         0.5000 
     46 O           2.7053  -16.7124  -48.7548 O.2       5 UNK        -0.5000 
     47 CA          4.1093  -14.7858  -48.4789 C.3       5 UNK         0.1400 
     48 CB          4.1112  -14.1887  -49.8946 C.3       5 UNK        -0.1800 
     49 N           4.2909  -13.7007  -47.5107 N.am      5 UNK        -0.5000 
     50 C           4.5750  -13.8686  -46.2110 C.2       4 UNK         0.5000 
     51 O           4.8122  -14.9638  -45.7034 O.2       4 UNK        -0.5000 
     52 CA          4.5180  -12.6077  -45.3261 C.3       4 UNK         0.1400 
     53 CB          5.9056  -11.9583  -45.2201 C.3       4 UNK        -0.1800 
     54 N           3.5535  -11.6168  -45.8190 N.am      4 UNK        -0.5000 
     55 C           2.2250  -11.7880  -45.8148 C.2       3 UNK         0.5000 
     56 O           1.6618  -12.7808  -45.3489 O.2       3 UNK        -0.5000 
     57 CA          1.3918  -10.7078  -46.5107 C.3       3 UNK         0.1400 
     58 CB          1.2699  -11.0145  -48.0156 C.3       3 UNK        -0.1800 
     59 N           0.0695  -10.6623  -45.8959 N.am      3 UNK        -0.5000 
     60 C          -0.7818   -9.6337  -45.9732 C.2       2 UNK         0.5000 
     61 O          -0.5388   -8.6084  -46.6128 O.2       2 UNK        -0.5000 
     62 CA         -2.1022   -9.7316  -45.1784 C.3       2 UNK         0.1400 
     63 CB         -3.2859   -9.0763  -45.9213 C.3       2 UNK        -0.1800 
     64 N          -2.4577  -11.0798  -44.7180 N.am      2 UNK        -0.5000 
     65 C          -2.8243  -12.1409  -45.4506 C.2       1 UNK         0.5000 
     66 O          -2.8100  -12.1664  -46.6816 O.2       1 UNK        -0.5000 
     67 C          -2.8022  -23.4493  -46.4377 C.2       11 UNK         0.5000 
     68 O          -2.9488  -23.9376  -47.5592 O.2       11 UNK        -0.5000 
     69 N          -1.8912  -23.8992  -45.5619 N.am      12 UNK        -0.5000 
     70 CA         -0.8387  -24.8627  -45.8882 C.3       12 UNK         0.1400 
     71 CB         -0.0501  -25.2043  -44.6176 C.3       12 UNK        -0.1800 
     72 C           0.1148  -24.3503  -46.9885 C.2       12 UNK         0.5000 
     73 O           0.5559  -25.1454  -47.8180 O.2       12 UNK        -0.5000 
     74 N           0.3575  -23.0299  -47.0298 N.am      13 UNK        -0.5000 
     75 CA          1.1603  -22.3598  -48.0577 C.3       13 UNK         0.1400 
     76 CB          1.5189  -20.9454  -47.5798 C.3       13 UNK        -0.1800 
     77 C           0.4657  -22.2978  -49.4323 C.2       13 UNK         0.5000 
     78 O           1.1347  -22.0382  -50.4323 O.2       13 UNK        -0.5000 
     79 N          -0.8506  -22.5376  -49.4646 N.am      14 UNK        -0.5000 
     80 CA         -1.6552  -22.6631  -50.6780 C.3       14 UNK         0.1400 
     81 CB         -2.8999  -21.7752  -50.5364 C.3       14 UNK        -0.1800 
     82 C          -2.0628  -24.1221  -50.9500 C.2       14 UNK         0.5000 
     83 O          -2.8634  -24.3544  -51.8560 O.2       14 UNK        -0.5000 
     84 N          -1.5505  -25.0742  -50.1537 N.am      15 UNK        -0.5000 
     85 CA         -1.8677  -26.5057  -50.1799 C.3       15 UNK         0.1400 
     86 CB         -1.2364  -27.1685  -51.4212 C.3       15 UNK        -0.1800 
     87 C          -3.3813  -26.7830  -50.0376 C.2       15 UNK         0.5000 
     88 O          -3.9445  -27.5616  -50.8079 O.2       15 UNK        -0.5000 
     89 N          -4.0096  -26.1010  -49.0674 N.am      16 UNK        -0.5000 
     90 CA         -5.4462  -26.0962  -48.7712 C.3       16 UNK         0.1400 
     91 CB         -5.9345  -27.4907  -48.3254 C.3       16 UNK        -0.1800 
     92 C          -6.2739  -25.4900  -49.9234 C.2       16 UNK         0.5000 
     93 O          -7.2797  -26.0649  -50.3430 O.2       16 UNK        -0.5000 
     94 N          -5.8125  -24.3276  -50.4067 N.am      17 UNK        -0.5000 
     95 CA         -6.4018  -23.4955  -51.4628 C.3       17 UNK         0.1400 
     96 CB         -7.8081  -22.9989  -51.0671 C.3       17 UNK        -0.1800 
     97 C          -6.3659  -24.1274  -52.8707 C.2       17 UNK         0.5000 
     98 O          -7.1072  -23.6895  -53.7518 O.2       17 UNK        -0.5000 
     99 N          -5.4813  -25.1109  -53.0828 N.am      18 UNK        -0.5000 
    100 CA        -5.1832  -25.6798  -54.3987 C.3       18 UNK         0.1400 
    101 CB        -4.4708  -27.0278  -54.2208 C.3       18 UNK        -0.1800 
    102 C         -4.3313  -24.7174  -55.2487 C.2       18 UNK         0.5000 
    103 O         -4.5327  -24.6259  -56.4599 O.2       18 UNK        -0.5000 
    104 N         -3.4250  -23.9933  -54.5832 N.am      19 UNK        -0.5000 
    105 CA        -2.6047  -22.9169  -55.1222 C.3       19 UNK         0.1400 
    106 CB        -1.1212  -23.3078  -54.9939 C.3       19 UNK        -0.1800 
    107 C         -2.9531  -21.6409  -54.3404 C.2       19 UNK         0.5000 
    108 O         -2.1174  -21.1087  -53.6095 O.2       19 UNK        -0.5000 
    109 N         -4.2097  -21.1940  -54.4805 N.am      20 UNK        -0.5000 
    110 CA        -4.8550  -20.1092  -53.7251 C.3       20 UNK         0.1400 
    111 CB        -6.3113  -19.9851  -54.1997 C.3       20 UNK        -0.1800 
    112 C         -4.1554  -18.7315  -53.7585 C.2       20 UNK         0.5000 
    113 O         -4.4852  -17.8725  -52.9409 O.2       20 UNK        -0.5000 
    114 N         -3.1998  -18.5436  -54.6780 N.am      21 UNK        -0.5000 
    115 CA        -2.2992  -17.3907  -54.7343 C.3       21 UNK         0.1400 
    116 CB        -1.5863  -17.3940  -56.0959 C.3       21 UNK        -0.1800 
    117 C         -1.2659  -17.3499  -53.5845 C.2       21 UNK         0.5000 
    118 O         -0.7044  -16.2816  -53.3389 O.2       21 UNK        -0.5000 
    119 N         -1.0471  -18.4930  -52.9151 N.am      22 UNK        -0.5000 
    120 CA        -0.0848  -18.7461  -51.8288 C.3       22 UNK         0.1400 
    121 C          1.3726  -18.8603  -52.3564 C.2       22 UNK         0.5000 
    122 N          2.0733  -19.9415  -52.0452 N.am      22 UNK        -0.7600 
    123 O          1.8943  -17.9683  -53.0205 O.2       22 UNK        -0.5000 
    124 C124       -0.1689  -17.7516  -50.6350 C.3       23 UNK        -0.0398 
    125 S125       -1.8492  -17.5598  -49.9414 S.3       23 UNK        -0.2404 
    126 C126       -1.7606  -18.6462  -48.4905 C.3       23 UNK        -0.0205 
    127 H127       -0.6243  -15.3322  -42.1971 H         1 UNK         0.0600 
    128 H128        0.4618  -14.1108  -42.8812 H         1 UNK         0.0600 
    129 H129       -0.1673  -13.9215  -41.2400 H         1 UNK         0.0600 
    130 H130       -1.7130  -14.7834  -44.3758 H         1 UNK         0.3000 
    131 H131       -3.9890  -12.9972  -43.9019 H         1 UNK         0.0600 
    132 H132       -4.7098  -13.9151  -46.2176 H         1 UNK         0.0800 
    133 H133       -3.3685  -15.0164  -46.1027 H         1 UNK         0.0800 
    134 H134       -4.6033  -17.6185  -43.5582 H         1 UNK         0.0800 
    135 H135       -3.1462  -16.7941  -44.0469 H         1 UNK         0.0800 
    136 H136       -2.1900  -17.2412  -46.2145 H         1 UNK         0.1150 
    137 H137       -4.1480  -19.9065  -48.9201 H         1 UNK         0.1150 
    138 H138       -6.1217  -18.6743  -45.3205 H         1 UNK         0.1150 
    139 H139       -6.8818  -19.9971  -48.4250 H         1 UNK         0.0800 
    140 H140       -7.2020  -20.2588  -46.7279 H         1 UNK         0.0800 
    141 H141       -5.6338  -21.7800  -45.3052 H         1 UNK         0.0800 
    142 H142       -5.3997  -23.4435  -45.7433 H         1 UNK         0.0800 
    143 H143       -3.3855  -21.5051  -46.8623 H         1 UNK         0.0600 
    144 H144       -3.7794  -21.4926  -44.0582 H         1 UNK         0.3000 
    145 H145       -1.4786  -19.0709  -43.7315 H         1 UNK         0.0600 
    146 H146       -2.7108  -19.3712  -41.6274 H         1 UNK         0.0600 
    147 H147       -3.8084  -19.6723  -42.9590 H         1 UNK         0.0600 
    148 H148       -3.1504  -21.0216  -42.0451 H         1 UNK         0.0600 
    149 H149        0.2202  -19.9249  -42.6037 H         1 UNK         0.3000 
    150 H150        0.7332  -21.6743  -40.4507 H         1 UNK         0.0600 
    151 H151        0.5947  -24.1043  -40.8401 H         1 UNK         0.0600 
    152 H152        2.2659  -23.6103  -40.6355 H         1 UNK         0.0600 
    153 H153        1.6466  -23.9821  -42.2404 H         1 UNK         0.0600 
    154 H154        2.3649  -20.4561  -41.2854 H         1 UNK         0.3000 
    155 H155        4.5697  -20.3538  -42.5154 H         1 UNK         0.0600 
    156 H156        5.0180  -21.3985  -44.7319 H         1 UNK         0.0600 
    157 H157        5.3990  -19.6844  -44.7407 H         1 UNK         0.0600 
    158 H158        3.9235  -20.2612  -45.5070 H         1 UNK         0.0600 
    159 H159        3.8280  -18.2540  -42.5621 H         1 UNK         0.3000 
    160 H160        1.1001  -16.7460  -43.0880 H         1 UNK         0.0600 
    161 H161        4.0937  -16.1669  -43.4232 H         1 UNK         0.0600 
    162 H162        2.9030  -14.9796  -42.9085 H         1 UNK         0.0600 
    163 H163        3.2154  -16.3847  -41.9087 H         1 UNK         0.0600 
    164 H164        2.6328  -16.1000  -45.5650 H         1 UNK         0.3000 
    165 H165        0.4635  -16.5707  -47.6227 H         1 UNK         0.0600 
    166 H166       -0.4514  -14.3690  -48.4888 H         1 UNK         0.0600 
    167 H167       -1.4906  -15.1635  -47.3285 H         1 UNK         0.0600 
    168 H168       -0.5137  -13.7850  -46.8259 H         1 UNK         0.0600 
    169 H169        2.0831  -14.1448  -47.0319 H         1 UNK         0.3000 
    170 H170        4.9539  -15.4724  -48.3914 H         1 UNK         0.0600 
    171 H171        4.0066  -14.9702  -50.6486 H         1 UNK         0.0600 
    172 H172        3.2895  -13.4852  -50.0357 H         1 UNK         0.0600 
    173 H173        5.0439  -13.6634  -50.1007 H         1 UNK         0.0600 
    174 H174        4.1242  -12.7641  -47.8468 H         1 UNK         0.3000 
    175 H175        4.2075  -12.9199  -44.3265 H         1 UNK         0.0600 
    176 H176        6.2640  -11.6103  -46.1897 H         1 UNK         0.0600 
    177 H177        5.8911  -11.1057  -44.5409 H         1 UNK         0.0600 
    178 H178        6.6393  -12.6672  -44.8339 H         1 UNK         0.0600 
    179 H179        3.9403  -10.7732  -46.2183 H         1 UNK         0.3000 
    180 H180        1.8862   -9.7442  -46.3700 H         1 UNK         0.0600 
    181 H181        2.2512  -11.0753  -48.4873 H         1 UNK         0.0600 
    182 H182        0.7603  -11.9625  -48.1920 H         1 UNK         0.0600 
    183 H183        0.7119  -10.2365  -48.5365 H         1 UNK         0.0600 
    184 H184       -0.1681  -11.4726  -45.3384 H         1 UNK         0.3000 
    185 H185       -1.9341   -9.1517  -44.2700 H         1 UNK         0.0600 
    186 H186       -3.0937   -8.0201  -46.1134 H         1 UNK         0.0600 
    187 H187       -3.4736   -9.5525  -46.8840 H         1 UNK         0.0600 
    188 H188       -4.2020   -9.1338  -45.3333 H         1 UNK         0.0600 
    189 H189       -2.4315  -11.2167  -43.7114 H         1 UNK         0.3000 
    190 H190       -1.8165  -23.4380  -44.6637 H         1 UNK         0.3000 
    191 H191       -1.3180  -25.7732  -46.2539 H         1 UNK         0.0600 
    192 H192        0.6949  -25.9760  -44.8149 H         1 UNK         0.0600 
    193 H193       -0.7050  -25.5747  -43.8287 H         1 UNK         0.0600 
    194 H194        0.4769  -24.3301  -44.2351 H         1 UNK         0.0600 
    195 H195       -0.0719  -22.4201  -46.3390 H         1 UNK         0.3000 
    196 H196        2.0880  -22.9218  -48.1823 H         1 UNK         0.0600 
    197 H197        2.2215  -20.4648  -48.2617 H         1 UNK         0.0600 
    198 H198        1.9827  -20.9714  -46.5944 H         1 UNK         0.0600 
    199 H199        0.6397  -20.3052  -47.5125 H         1 UNK         0.0600 
    200 H200       -1.3229  -22.7550  -48.5972 H         1 UNK         0.3000 
    201 H201       -1.0910  -22.3302  -51.5501 H         1 UNK         0.0600 
    202 H202       -2.6271  -20.7216  -50.5272 H         1 UNK         0.0600 
    203 H203       -3.4554  -22.0032  -49.6268 H         1 UNK         0.0600 
    204 H204       -3.5770  -21.9076  -51.3775 H         1 UNK         0.0600 
    205 H205       -0.8915  -24.7947  -49.4386 H         1 UNK         0.3000 
    206 H206       -1.3967  -26.9429  -49.2983 H         1 UNK         0.0600 
    207 H207       -0.1559  -27.0258  -51.4324 H         1 UNK         0.0600 
    208 H208       -1.4205  -28.2433  -51.4314 H         1 UNK         0.0600 
    209 H209       -1.6340  -26.7567  -52.3481 H         1 UNK         0.0600 
    210 H210       -3.4642  -25.4338  -48.5252 H         1 UNK         0.3000 
    211 H211       -5.5752  -25.4227  -47.9224 H         1 UNK         0.0600 
    212 H212       -5.8964  -28.2170  -49.1375 H         1 UNK         0.0600 
    213 H213       -6.9672  -27.4469  -47.9777 H         1 UNK         0.0600 
    214 H214       -5.3314  -27.8744  -47.5027 H         1 UNK         0.0600 
    215 H215       -4.9630  -23.9660  -49.9978 H         1 UNK         0.3000 
    216 H216       -5.7667  -22.6129  -51.5287 H         1 UNK         0.0600 
    217 H217       -7.8023  -22.5411  -50.0782 H         1 UNK         0.0600 
    218 H218       -8.1684  -22.2446  -51.7676 H         1 UNK         0.0600 
    219 H219       -8.5375  -23.8090  -51.0584 H         1 UNK         0.0600 
    220 H220       -4.8753  -25.3850  -52.3200 H         1 UNK         0.3000 
    221 H221       -6.1225  -25.8578  -54.9264 H         1 UNK         0.0600 
    222 H222       -3.5215  -26.9133  -53.6984 H         1 UNK         0.0600 
    223 H223       -5.0834  -27.7248  -53.6486 H         1 UNK         0.0600 
    224 H224       -4.2625  -27.4907  -55.1860 H         1 UNK         0.0600 
    225 H225       -3.3334  -24.1426  -53.5788 H         1 UNK         0.3000 
    226 H226       -2.8292  -22.7367  -56.1752 H         1 UNK         0.0600 
    227 H227       -0.9020  -24.2061  -55.5710 H         1 UNK         0.0600 
    228 H228       -0.4735  -22.5137  -55.3671 H         1 UNK         0.0600 
    229 H229       -0.8422  -23.5021  -53.9575 H         1 UNK         0.0600 
    230 H230       -4.8160  -21.7043  -55.1069 H         1 UNK         0.3000 
    231 H231       -4.8721  -20.4157  -52.6783 H         1 UNK         0.0600 
    232 H232       -6.3666  -19.7196  -55.2561 H         1 UNK         0.0600 
    233 H233       -6.8550  -20.9192  -54.0583 H         1 UNK         0.0600 
    234 H234       -6.8447  -19.2161  -53.6393 H         1 UNK         0.0600 
    235 H235       -2.9953  -19.3065  -55.3057 H         1 UNK         0.3000 
    236 H236       -2.9020  -16.4829  -54.6652 H         1 UNK         0.0600 
    237 H237       -0.9745  -18.2875  -56.2263 H         1 UNK         0.0600 
    238 H238       -2.3019  -17.3519  -56.9172 H         1 UNK         0.0600 
    239 H239       -0.9288  -16.5293  -56.1948 H         1 UNK         0.0600 
    240 H240       -1.5447  -19.3228  -53.2259 H         1 UNK         0.3000 
    241 H241       -0.3660  -19.7264  -51.4412 H         1 UNK         0.0600 
    242 H242        3.0221  -20.0166  -52.3747 H         1 UNK         0.3800 
    243 H243        1.6828  -20.7007  -51.4876 H         1 UNK         0.3800 
    244 H244        0.1834  -16.7628  -50.9320 H         1 UNK         0.0800 
    245 H245        0.5071  -18.0709  -49.8401 H         1 UNK         0.0800 
    246 H246       -1.5809  -19.6735  -48.8055 H         1 UNK         0.0800 
    247 H247       -0.9029  -18.3730  -47.8763 H         1 UNK         0.0800 
@<TRIPOS>BOND
     1    1    2 1    
     2    1  127 1    
     3    1  128 1    
     4    1  129 1    
     5    2    3 2    
     6    2    4 am   BACKBONE|DICT|INTERRES
     7    4    5 1    
     8    4  130 1    
     9    5    6 1    
    10    5   65 1    
    11    5  131 1    
    12    6    7 1    
    13    6  132 1    
    14    6  133 1    
    15    7    8 1    
    16    8    9 1    
    17    8  134 1    
    18    8  135 1    
    19    9   10 ar   
    20    9   14 ar   
    21   10   11 ar   
    22   10  136 1    
    23   11   12 ar   
    24   11  126 1    
    25   12   13 ar   
    26   12  137 1    
    27   13   14 ar   
    28   13   15 1    
    29   14  138 1    
    30   15   16 1    
    31   15  139 1    
    32   15  140 1    
    33   16   17 1    
    34   17   18 1    
    35   17  141 1    
    36   17  142 1    
    37   18   19 1    
    38   18   67 1    
    39   18  143 1    
    40   19   20 am   BACKBONE|DICT|INTERRES
    41   19  144 1    
    42   20   21 2    
    43   20   22 1    
    44   22   23 1    
    45   22   24 1    
    46   22  145 1    
    47   23  146 1    
    48   23  147 1    
    49   23  148 1    
    50   24   25 am   BACKBONE|DICT|INTERRES
    51   24  149 1    
    52   25   26 2    
    53   25   27 1    
    54   27   28 1    
    55   27   29 1    
    56   27  150 1    
    57   28  151 1    
    58   28  152 1    
    59   28  153 1    
    60   29   30 am   BACKBONE|DICT|INTERRES
    61   29  154 1    
    62   30   31 2    
    63   30   32 1    
    64   32   33 1    
    65   32   34 1    
    66   32  155 1    
    67   33  156 1    
    68   33  157 1    
    69   33  158 1    
    70   34   35 am   BACKBONE|DICT|INTERRES
    71   34  159 1    
    72   35   36 2    
    73   35   37 1    
    74   37   38 1    
    75   37   39 1    
    76   37  160 1    
    77   38  161 1    
    78   38  162 1    
    79   38  163 1    
    80   39   40 am   BACKBONE|DICT|INTERRES
    81   39  164 1    
    82   40   41 2    
    83   40   42 1    
    84   42   43 1    
    85   42   44 1    
    86   42  165 1    
    87   43  166 1    
    88   43  167 1    
    89   43  168 1    
    90   44   45 am   BACKBONE|DICT|INTERRES
    91   44  169 1    
    92   45   46 2    
    93   45   47 1    
    94   47   48 1    
    95   47   49 1    
    96   47  170 1    
    97   48  171 1    
    98   48  172 1    
    99   48  173 1    
   100   49   50 am   BACKBONE|DICT|INTERRES
   101   49  174 1    
   102   50   51 2    
   103   50   52 1    
   104   52   53 1    
   105   52   54 1    
   106   52  175 1    
   107   53  176 1    
   108   53  177 1    
   109   53  178 1    
   110   54   55 am   BACKBONE|DICT|INTERRES
   111   54  179 1    
   112   55   56 2    
   113   55   57 1    
   114   57   58 1    
   115   57   59 1    
   116   57  180 1    
   117   58  181 1    
   118   58  182 1    
   119   58  183 1    
   120   59   60 am   BACKBONE|DICT|INTERRES
   121   59  184 1    
   122   60   61 2    
   123   60   62 1    
   124   62   63 1    
   125   62   64 1    
   126   62  185 1    
   127   63  186 1    
   128   63  187 1    
   129   63  188 1    
   130   64   65 am   BACKBONE|DICT|INTERRES
   131   64  189 1    
   132   65   66 2    
   133   67   68 2    
   134   67   69 am   BACKBONE|DICT|INTERRES
   135   69   70 1    
   136   69  190 1    
   137   70   71 1    
   138   70   72 1    
   139   70  191 1    
   140   71  192 1    
   141   71  193 1    
   142   71  194 1    
   143   72   73 2    
   144   72   74 am   BACKBONE|DICT|INTERRES
   145   74   75 1    
   146   74  195 1    
   147   75   76 1    
   148   75   77 1    
   149   75  196 1    
   150   76  197 1    
   151   76  198 1    
   152   76  199 1    
   153   77   78 2    
   154   77   79 am   BACKBONE|DICT|INTERRES
   155   79   80 1    
   156   79  200 1    
   157   80   81 1    
   158   80   82 1    
   159   80  201 1    
   160   81  202 1    
   161   81  203 1    
   162   81  204 1    
   163   82   83 2    
   164   82   84 am   BACKBONE|DICT|INTERRES
   165   84   85 1    
   166   84  205 1    
   167   85   86 1    
   168   85   87 1    
   169   85  206 1    
   170   86  207 1    
   171   86  208 1    
   172   86  209 1    
   173   87   88 2    
   174   87   89 am   BACKBONE|DICT|INTERRES
   175   89   90 1    
   176   89  210 1    
   177   90   91 1    
   178   90   92 1    
   179   90  211 1    
   180   91  212 1    
   181   91  213 1    
   182   91  214 1    
   183   92   93 2    
   184   92   94 am   BACKBONE|DICT|INTERRES
   185   94   95 1    
   186   94  215 1    
   187   95   96 1    
   188   95   97 1    
   189   95  216 1    
   190   96  217 1    
   191   96  218 1    
   192   96  219 1    
   193   97   98 2    
   194   97   99 am   BACKBONE|DICT|INTERRES
   195   99  100 1    
   196   99  220 1    
   197  100  101 1    
   198  100  102 1    
   199  100  221 1    
   200  101  222 1    
   201  101  223 1    
   202  101  224 1    
   203  102  103 2    
   204  102  104 am   BACKBONE|DICT|INTERRES
   205  104  105 1    
   206  104  225 1    
   207  105  106 1    
   208  105  107 1    
   209  105  226 1    
   210  106  227 1    
   211  106  228 1    
   212  106  229 1    
   213  107  108 2    
   214  107  109 am   BACKBONE|DICT|INTERRES
   215  109  110 1    
   216  109  230 1    
   217  110  111 1    
   218  110  112 1    
   219  110  231 1    
   220  111  232 1    
   221  111  233 1    
   222  111  234 1    
   223  112  113 2    
   224  112  114 am   BACKBONE|DICT|INTERRES
   225  114  115 1    
   226  114  235 1    
   227  115  116 1    
   228  115  117 1    
   229  115  236 1    
   230  116  237 1    
   231  116  238 1    
   232  116  239 1    
   233  117  118 2    
   234  117  119 am   BACKBONE|DICT|INTERRES
   235  119  120 1    
   236  119  240 1    
   237  120  121 1    
   238  120  124 1    
   239  120  241 1    
   240  121  122 am   BACKBONE|DICT|INTERRES
   241  121  123 2    
   242  122  242 1    
   243  122  243 1    
   244  124  125 1    
   245  124  244 1    
   246  124  245 1    
   247  125  126 1    
   248  126  246 1    
   249  126  247 1    
@<TRIPOS>SUBSTRUCTURE
     1 UNK         1 GROUP             0       ****    0 ROOT    
