@<TRIPOS>MOLECULE
3R540
247   249    1
SMALL
USER_CHARGES


@<TRIPOS>ATOM
      1 CA         -2.5458  -15.3813  -43.6868 C.3       0 UNK        -0.1800 
      2 C          -2.8038  -14.1288  -44.5119 C.2       0 UNK         0.5000 
      3 O          -2.9859  -13.0513  -43.9455 O.2       0 UNK        -0.5000 
      4 N          -2.8048  -14.2580  -45.8468 N.am      1 UNK        -0.5000 
      5 CA         -3.0641  -13.1675  -46.7996 C.3       1 UNK         0.1400 
      6 C6         -3.2611  -13.6949  -48.2448 C.3       23 UNK        -0.0398 
      7 S7         -1.7554  -14.3956  -49.0131 S.3       23 UNK        -0.2404 
      8 C8         -2.1690  -16.1561  -49.1786 C.3       23 UNK        -0.0205 
      9 C9         -1.0591  -16.8776  -49.9244 C.ar      23 UNK        -0.0193 
     10 C10        -1.0693  -16.9123  -51.3214 C.ar      23 UNK        -0.1150 
     11 C11        -0.0273  -17.5213  -52.0242 C.ar      23 UNK        -0.0193 
     12 C12         1.0234  -18.1134  -51.3193 C.ar      23 UNK        -0.1150 
     13 C13         1.0441  -18.0900  -49.9218 C.ar      23 UNK        -0.0193 
     14 C14         0.0012  -17.4675  -49.2291 C.ar      23 UNK        -0.1150 
     15 C15         2.2143  -18.7060  -49.1678 C.3       23 UNK        -0.0205 
     16 S16         1.7305  -20.1324  -48.1466 S.3       23 UNK        -0.2404 
     17 C17         1.0689  -21.3056  -49.3877 C.3       23 UNK        -0.0398 
     18 CA         -0.0579  -22.2136  -48.8364 C.3       11 UNK         0.1400 
     19 N           0.3921  -22.9831  -47.6730 N.am      11 UNK        -0.5000 
     20 C          -0.3199  -23.8993  -47.0053 C.2       10 UNK         0.5000 
     21 O          -1.4527  -24.2590  -47.3266 O.2       10 UNK        -0.5000 
     22 CA          0.3134  -24.4636  -45.7200 C.3       10 UNK         0.1400 
     23 CB          1.0504  -25.7760  -46.0211 C.3       10 UNK        -0.1800 
     24 N           1.2240  -23.5425  -45.0255 N.am      10 UNK        -0.5000 
     25 C           0.9015  -22.3179  -44.5865 C.2       9 UNK         0.5000 
     26 O          -0.1770  -21.7681  -44.8234 O.2       9 UNK        -0.5000 
     27 CA          1.9564  -21.5736  -43.7561 C.3       9 UNK         0.1400 
     28 CB          2.6543  -20.4960  -44.5986 C.3       9 UNK        -0.1800 
     29 N           1.2975  -20.9511  -42.6103 N.am      9 UNK        -0.5000 
     30 C           1.0272  -21.5941  -41.4649 C.2       8 UNK         0.5000 
     31 O           1.4203  -22.7390  -41.2331 O.2       8 UNK        -0.5000 
     32 CA          0.1453  -20.8834  -40.4127 C.3       8 UNK         0.1400 
     33 CB          0.6944  -21.0518  -38.9801 C.3       8 UNK        -0.1800 
     34 N          -0.1534  -19.4760  -40.7034 N.am      8 UNK        -0.5000 
     35 C           0.7003  -18.4438  -40.7222 C.2       7 UNK         0.5000 
     36 O           1.9041  -18.5253  -40.4702 O.2       7 UNK        -0.5000 
     37 CA          0.0930  -17.0861  -41.1205 C.3       7 UNK         0.1400 
     38 CB          0.1885  -16.0841  -39.9600 C.3       7 UNK        -0.1800 
     39 N           0.7331  -16.5175  -42.3061 N.am      7 UNK        -0.5000 
     40 C           0.8288  -17.1146  -43.5023 C.2       6 UNK         0.5000 
     41 O           0.3612  -18.2284  -43.7376 O.2       6 UNK        -0.5000 
     42 CA          1.5447  -16.3510  -44.6314 C.3       6 UNK         0.1400 
     43 CB          0.5221  -15.7305  -45.5950 C.3       6 UNK        -0.1800 
     44 N           2.4165  -15.2855  -44.1283 N.am      6 UNK        -0.5000 
     45 C           3.7505  -15.2642  -44.2582 C.2       5 UNK         0.5000 
     46 O           4.3969  -16.1535  -44.8131 O.2       5 UNK        -0.5000 
     47 CA          4.5046  -14.0453  -43.6862 C.3       5 UNK         0.1400 
     48 CB          4.8419  -13.0460  -44.8029 C.3       5 UNK        -0.1800 
     49 N           3.7714  -13.3471  -42.6298 N.am      5 UNK        -0.5000 
     50 C           3.6277  -13.8075  -41.3792 C.2       4 UNK         0.5000 
     51 O           4.1496  -14.8462  -40.9743 O.2       4 UNK        -0.5000 
     52 CA          2.7425  -12.9878  -40.4161 C.3       4 UNK         0.1400 
     53 CB          3.6165  -12.1240  -39.4940 C.3       4 UNK        -0.1800 
     54 N           1.7427  -12.1274  -41.0583 N.am      4 UNK        -0.5000 
     55 C           0.7939  -12.5226  -41.9174 C.2       3 UNK         0.5000 
     56 O           0.6955  -13.6783  -42.3339 O.2       3 UNK        -0.5000 
     57 CA         -0.1956  -11.4593  -42.4339 C.3       3 UNK         0.1400 
     58 CB          0.0842  -10.0224  -41.9378 C.3       3 UNK        -0.1800 
     59 N          -0.2828  -11.4998  -43.8945 N.am      3 UNK        -0.5000 
     60 C           0.7168  -11.3090  -44.7702 C.2       2 UNK         0.5000 
     61 O           1.8625  -11.0011  -44.4365 O.2       2 UNK        -0.5000 
     62 CA          0.3915  -11.5296  -46.2618 C.3       2 UNK         0.1400 
     63 CB          1.5823  -12.1406  -47.0220 C.3       2 UNK        -0.1800 
     64 N          -0.7623  -12.4117  -46.4304 N.am      2 UNK        -0.5000 
     65 C          -2.0107  -12.0353  -46.7343 C.2       1 UNK         0.5000 
     66 O          -2.3502  -10.8680  -46.9304 O.2       1 UNK        -0.5000 
     67 C          -1.3604  -21.4190  -48.5789 C.2       11 UNK         0.5000 
     68 O          -2.1880  -21.3107  -49.4840 O.2       11 UNK        -0.5000 
     69 N          -1.5307  -20.9199  -47.3473 N.am      12 UNK        -0.5000 
     70 CA         -2.7090  -20.1894  -46.8932 C.3       12 UNK         0.1400 
     71 CB         -2.2524  -18.9365  -46.1299 C.3       12 UNK        -0.1800 
     72 C          -3.5857  -21.0645  -45.9847 C.2       12 UNK         0.5000 
     73 O          -4.8083  -21.0412  -46.1187 O.2       12 UNK        -0.5000 
     74 N          -2.9527  -21.8057  -45.0661 N.am      13 UNK        -0.5000 
     75 CA         -3.6198  -22.5454  -43.9957 C.3       13 UNK         0.1400 
     76 CB         -2.5904  -22.8840  -42.9061 C.3       13 UNK        -0.1800 
     77 C          -4.3478  -23.8175  -44.4624 C.2       13 UNK         0.5000 
     78 O          -5.3309  -24.2016  -43.8269 O.2       13 UNK        -0.5000 
     79 N          -3.8586  -24.4527  -45.5354 N.am      14 UNK        -0.5000 
     80 CA         -4.4091  -25.6972  -46.0722 C.3       14 UNK         0.1400 
     81 CB         -3.3687  -26.8222  -45.9339 C.3       14 UNK        -0.1800 
     82 C          -4.8465  -25.5233  -47.5320 C.2       14 UNK         0.5000 
     83 O          -5.9809  -25.8642  -47.8690 O.2       14 UNK        -0.5000 
     84 N          -3.9449  -25.0033  -48.3749 N.am      15 UNK        -0.5000 
     85 CA         -4.1573  -24.8674  -49.8163 C.3       15 UNK         0.1400 
     86 CB         -2.7919  -24.8051  -50.5127 C.3       15 UNK        -0.1800 
     87 C          -5.0197  -23.6521  -50.2046 C.2       15 UNK         0.5000 
     88 O          -5.5981  -23.6521  -51.2939 O.2       15 UNK        -0.5000 
     89 N          -5.0760  -22.6464  -49.3168 N.am      16 UNK        -0.5000 
     90 CA         -5.8570  -21.4067  -49.4141 C.3       16 UNK         0.1400 
     91 CB         -7.3493  -21.7139  -49.1752 C.3       16 UNK        -0.1800 
     92 C          -5.6121  -20.6153  -50.7167 C.2       16 UNK         0.5000 
     93 O          -6.5583  -20.0789  -51.2957 O.2       16 UNK        -0.5000 
     94 N          -4.3543  -20.6063  -51.1838 N.am      17 UNK        -0.5000 
     95 CA         -3.8317  -20.0602  -52.4458 C.3       17 UNK         0.1400 
     96 CB         -4.0528  -18.5394  -52.5233 C.3       17 UNK        -0.1800 
     97 C          -4.3536  -20.7574  -53.7233 C.2       17 UNK         0.5000 
     98 O          -3.6060  -20.8822  -54.6942 O.2       17 UNK        -0.5000 
     99 N          -5.6141  -21.2048  -53.7119 N.am      18 UNK        -0.5000 
    100 CA        -6.3177  -21.8597  -54.8106 C.3       18 UNK         0.1400 
    101 CB        -7.7915  -22.0535  -54.4224 C.3       18 UNK        -0.1800 
    102 C         -5.6778  -23.1939  -55.2234 C.2       18 UNK         0.5000 
    103 O         -5.3603  -23.3720  -56.3995 O.2       18 UNK        -0.5000 
    104 N         -5.4553  -24.0923  -54.2525 N.am      19 UNK        -0.5000 
    105 CA        -4.8325  -25.3994  -54.4945 C.3       19 UNK         0.1400 
    106 CB        -5.1946  -26.3662  -53.3595 C.3       19 UNK        -0.1800 
    107 C         -3.3056  -25.3052  -54.6823 C.2       19 UNK         0.5000 
    108 O         -2.7060  -26.2214  -55.2449 O.2       19 UNK        -0.5000 
    109 N         -2.7118  -24.1858  -54.2446 N.am      20 UNK        -0.5000 
    110 CA        -1.3196  -23.8162  -54.5069 C.3       20 UNK         0.1400 
    111 CB        -0.8509  -22.8355  -53.4192 C.3       20 UNK        -0.1800 
    112 C         -1.1254  -23.2162  -55.9172 C.2       20 UNK         0.5000 
    113 O          0.0176  -23.0263  -56.3343 O.2       20 UNK        -0.5000 
    114 N         -2.2363  -22.9395  -56.6200 N.am      21 UNK        -0.5000 
    115 CA        -2.3372  -22.3626  -57.9617 C.3       21 UNK         0.1400 
    116 CB        -1.7514  -23.3228  -59.0183 C.3       21 UNK        -0.1800 
    117 C         -1.7622  -20.9347  -58.0455 C.2       21 UNK         0.5000 
    118 O         -1.1330  -20.5826  -59.0458 O.2       21 UNK        -0.5000 
    119 N         -1.9920  -20.1372  -56.9954 N.am      22 UNK        -0.5000 
    120 CA        -1.5072  -18.7544  -56.8730 C.3       22 UNK         0.1400 
    121 C         -2.5906  -17.7321  -56.4231 C.2       22 UNK         0.5000 
    122 N         -3.8431  -18.1288  -56.2329 N.am      22 UNK        -0.7600 
    123 O         -2.2993  -16.5479  -56.2789 O.2       22 UNK        -0.5000 
    124 C124       -0.1964  -18.6821  -56.0485 C.3       23 UNK        -0.0398 
    125 S125       -0.3878  -19.1015  -54.2788 S.3       23 UNK        -0.2404 
    126 C126       -0.0020  -17.4850  -53.5426 C.3       23 UNK        -0.0205 
    127 H127       -2.2804  -16.2352  -44.3101 H         1 UNK         0.0600 
    128 H128       -1.7292  -15.2017  -42.9880 H         1 UNK         0.0600 
    129 H129       -3.4344  -15.6412  -43.1119 H         1 UNK         0.0600 
    130 H130       -2.6489  -15.1662  -46.2575 H         1 UNK         0.3000 
    131 H131       -4.0118  -12.7166  -46.4967 H         1 UNK         0.0600 
    132 H132       -3.6123  -12.8847  -48.8861 H         1 UNK         0.0800 
    133 H133       -4.0589  -14.4386  -48.2597 H         1 UNK         0.0800 
    134 H134       -3.1118  -16.2648  -49.7172 H         1 UNK         0.0800 
    135 H135       -2.3184  -16.5950  -48.1926 H         1 UNK         0.0800 
    136 H136       -1.8746  -16.4353  -51.8620 H         1 UNK         0.1150 
    137 H137        1.8330  -18.5784  -51.8644 H         1 UNK         0.1150 
    138 H138        0.0284  -17.4307  -48.1502 H         1 UNK         0.1150 
    139 H139        3.0017  -19.0166  -49.8563 H         1 UNK         0.0800 
    140 H140        2.6562  -17.9469  -48.5208 H         1 UNK         0.0800 
    141 H141        0.7150  -20.7694  -50.2690 H         1 UNK         0.0800 
    142 H142        1.8973  -21.9231  -49.7368 H         1 UNK         0.0800 
    143 H143       -0.2852  -22.9423  -49.6152 H         1 UNK         0.0600 
    144 H144        1.2986  -22.7315  -47.3070 H         1 UNK         0.3000 
    145 H145       -0.5063  -24.6874  -45.0346 H         1 UNK         0.0600 
    146 H146        1.4068  -26.2482  -45.1053 H         1 UNK         0.0600 
    147 H147        0.3911  -26.4903  -46.5166 H         1 UNK         0.0600 
    148 H148        1.9095  -25.6144  -46.6734 H         1 UNK         0.0600 
    149 H149        2.1360  -23.9119  -44.7981 H         1 UNK         0.3000 
    150 H150        2.7141  -22.2777  -43.4060 H         1 UNK         0.0600 
    151 H151        3.2449  -20.9491  -45.3954 H         1 UNK         0.0600 
    152 H152        3.3309  -19.8934  -43.9923 H         1 UNK         0.0600 
    153 H153        1.9381  -19.8230  -45.0701 H         1 UNK         0.0600 
    154 H154        0.8918  -20.0364  -42.7759 H         1 UNK         0.3000 
    155 H155       -0.8164  -21.3967  -40.4473 H         1 UNK         0.0600 
    156 H156        0.0529  -20.5580  -38.2503 H         1 UNK         0.0600 
    157 H157        1.6990  -20.6410  -38.8779 H         1 UNK         0.0600 
    158 H158        0.7463  -22.1051  -38.7022 H         1 UNK         0.0600 
    159 H159       -1.1134  -19.2940  -40.9610 H         1 UNK         0.3000 
    160 H160       -0.9634  -17.2246  -41.3595 H         1 UNK         0.0600 
    161 H161        1.2263  -15.8765  -39.6978 H         1 UNK         0.0600 
    162 H162       -0.3035  -16.4729  -39.0676 H         1 UNK         0.0600 
    163 H163       -0.2937  -15.1391  -40.2101 H         1 UNK         0.0600 
    164 H164        1.0624  -15.5637  -42.2149 H         1 UNK         0.3000 
    165 H165        2.1194  -17.0940  -45.1883 H         1 UNK         0.0600 
    166 H166        0.0039  -14.8943  -45.1284 H         1 UNK         0.0600 
    167 H167        1.0079  -15.3657  -46.5000 H         1 UNK         0.0600 
    168 H168       -0.2273  -16.4597  -45.9030 H         1 UNK         0.0600 
    169 H169        1.9625  -14.5319  -43.6233 H         1 UNK         0.3000 
    170 H170        5.4452  -14.4112  -43.2689 H         1 UNK         0.0600 
    171 H171        5.4096  -13.5263  -45.6009 H         1 UNK         0.0600 
    172 H172        3.9422  -12.6234  -45.2490 H         1 UNK         0.0600 
    173 H173        5.4467  -12.2216  -44.4251 H         1 UNK         0.0600 
    174 H174        3.3012  -12.4902  -42.8901 H         1 UNK         0.3000 
    175 H175        2.1999  -13.7015  -39.7945 H         1 UNK         0.0600 
    176 H176        4.1576  -11.3604  -40.0542 H         1 UNK         0.0600 
    177 H177        3.0159  -11.6228  -38.7347 H         1 UNK         0.0600 
    178 H178        4.3553  -12.7325  -38.9705 H         1 UNK         0.0600 
    179 H179        1.7679  -11.1517  -40.8004 H         1 UNK         0.3000 
    180 H180       -1.1769  -11.7543  -42.0600 H         1 UNK         0.0600 
    181 H181        0.0251   -9.9613  -40.8504 H         1 UNK         0.0600 
    182 H182        1.0681   -9.6628  -42.2407 H         1 UNK         0.0600 
    183 H183       -0.6549   -9.3261  -42.3341 H         1 UNK         0.0600 
    184 H184       -1.1784  -11.8038  -44.2562 H         1 UNK         0.3000 
    185 H185        0.1815  -10.5490  -46.6932 H         1 UNK         0.0600 
    186 H186        1.8964  -13.0883  -46.5840 H         1 UNK         0.0600 
    187 H187        1.3309  -12.3223  -48.0672 H         1 UNK         0.0600 
    188 H188        2.4426  -11.4704  -47.0098 H         1 UNK         0.0600 
    189 H189       -0.5942  -13.3960  -46.2872 H         1 UNK         0.3000 
    190 H190       -0.8144  -21.0936  -46.6506 H         1 UNK         0.3000 
    191 H191       -3.3101  -19.8666  -47.7457 H         1 UNK         0.0600 
    192 H192       -3.1053  -18.3281  -45.8272 H         1 UNK         0.0600 
    193 H193       -1.6073  -18.3160  -46.7477 H         1 UNK         0.0600 
    194 H194       -1.6936  -19.1935  -45.2290 H         1 UNK         0.0600 
    195 H195       -1.9365  -21.7605  -45.0109 H         1 UNK         0.3000 
    196 H196       -4.3696  -21.8867  -43.5520 H         1 UNK         0.0600 
    197 H197       -3.0655  -23.3776  -42.0575 H         1 UNK         0.0600 
    198 H198       -2.1071  -21.9824  -42.5301 H         1 UNK         0.0600 
    199 H199       -1.8118  -23.5495  -43.2792 H         1 UNK         0.0600 
    200 H200       -3.0556  -24.0663  -46.0167 H         1 UNK         0.3000 
    201 H201       -5.2957  -26.0024  -45.5126 H         1 UNK         0.0600 
    202 H202       -3.1110  -26.9898  -44.8881 H         1 UNK         0.0600 
    203 H203       -2.4471  -26.5984  -46.4712 H         1 UNK         0.0600 
    204 H204       -3.7571  -27.7623  -46.3275 H         1 UNK         0.0600 
    205 H205       -3.0191  -24.7606  -48.0261 H         1 UNK         0.3000 
    206 H206       -4.6757  -25.7619  -50.1656 H         1 UNK         0.0600 
    207 H207       -2.1806  -25.6742  -50.2691 H         1 UNK         0.0600 
    208 H208       -2.9039  -24.7795  -51.5947 H         1 UNK         0.0600 
    209 H209       -2.2406  -23.9139  -50.2224 H         1 UNK         0.0600 
    210 H210       -4.5366  -22.7540  -48.4708 H         1 UNK         0.3000 
    211 H211       -5.5199  -20.7569  -48.6079 H         1 UNK         0.0600 
    212 H212       -7.7654  -22.3313  -49.9722 H         1 UNK         0.0600 
    213 H213       -7.9379  -20.7971  -49.1267 H         1 UNK         0.0600 
    214 H214       -7.4950  -22.2408  -48.2321 H         1 UNK         0.0600 
    215 H215       -3.6470  -21.0523  -50.6018 H         1 UNK         0.3000 
    216 H216       -2.7550  -20.2296  -52.4090 H         1 UNK         0.0600 
    217 H217       -5.1001  -18.2867  -52.6906 H         1 UNK         0.0600 
    218 H218       -3.4761  -18.1071  -53.3415 H         1 UNK         0.0600 
    219 H219       -3.7338  -18.0491  -51.6044 H         1 UNK         0.0600 
    220 H220       -6.1554  -21.0149  -52.8737 H         1 UNK         0.3000 
    221 H221       -6.2780  -21.1916  -55.6732 H         1 UNK         0.0600 
    222 H222       -7.8955  -22.6657  -53.5254 H         1 UNK         0.0600 
    223 H223       -8.2756  -21.0960  -54.2294 H         1 UNK         0.0600 
    224 H224       -8.3470  -22.5433  -55.2233 H         1 UNK         0.0600 
    225 H225       -5.6978  -23.8666  -53.2912 H         1 UNK         0.3000 
    226 H226       -5.2456  -25.8112  -55.4180 H         1 UNK         0.0600 
    227 H227       -6.2745  -26.4393  -53.2300 H         1 UNK         0.0600 
    228 H228       -4.8222  -27.3697  -53.5691 H         1 UNK         0.0600 
    229 H229       -4.7632  -26.0513  -52.4135 H         1 UNK         0.0600 
    230 H230       -3.2910  -23.4817  -53.8118 H         1 UNK         0.3000 
    231 H231       -0.6977  -24.7116  -54.4447 H         1 UNK         0.0600 
    232 H232       -1.4235  -21.9098  -53.4395 H         1 UNK         0.0600 
    233 H233       -0.9456  -23.2687  -52.4238 H         1 UNK         0.0600 
    234 H234        0.1977  -22.5696  -53.5581 H         1 UNK         0.0600 
    235 H235       -3.1265  -23.1130  -56.1722 H         1 UNK         0.3000 
    236 H236       -3.4042  -22.2661  -58.1666 H         1 UNK         0.0600 
    237 H237       -2.1914  -24.3165  -58.9337 H         1 UNK         0.0600 
    238 H238       -1.9552  -22.9641  -60.0278 H         1 UNK         0.0600 
    239 H239       -0.6703  -23.4247  -58.9203 H         1 UNK         0.0600 
    240 H240       -2.4952  -20.5011  -56.1893 H         1 UNK         0.3000 
    241 H241       -1.2530  -18.3997  -57.8731 H         1 UNK         0.0600 
    242 H242       -4.0949  -19.0990  -56.3326 H         1 UNK         0.3800 
    243 H243       -4.5390  -17.4521  -55.9645 H         1 UNK         0.3800 
    244 H244        0.2487  -17.6912  -56.1502 H         1 UNK         0.0800 
    245 H245        0.5368  -19.3688  -56.4736 H         1 UNK         0.0800 
    246 H246       -0.7091  -16.7433  -53.9178 H         1 UNK         0.0800 
    247 H247        0.9868  -17.1633  -53.8731 H         1 UNK         0.0800 
@<TRIPOS>BOND
     1    1    2 1    
     2    1  127 1    
     3    1  128 1    
     4    1  129 1    
     5    2    3 2    
     6    2    4 am   BACKBONE|DICT|INTERRES
     7    4    5 1    
     8    4  130 1    
     9    5    6 1    
    10    5   65 1    
    11    5  131 1    
    12    6    7 1    
    13    6  132 1    
    14    6  133 1    
    15    7    8 1    
    16    8    9 1    
    17    8  134 1    
    18    8  135 1    
    19    9   10 ar   
    20    9   14 ar   
    21   10   11 ar   
    22   10  136 1    
    23   11   12 ar   
    24   11  126 1    
    25   12   13 ar   
    26   12  137 1    
    27   13   14 ar   
    28   13   15 1    
    29   14  138 1    
    30   15   16 1    
    31   15  139 1    
    32   15  140 1    
    33   16   17 1    
    34   17   18 1    
    35   17  141 1    
    36   17  142 1    
    37   18   19 1    
    38   18   67 1    
    39   18  143 1    
    40   19   20 am   BACKBONE|DICT|INTERRES
    41   19  144 1    
    42   20   21 2    
    43   20   22 1    
    44   22   23 1    
    45   22   24 1    
    46   22  145 1    
    47   23  146 1    
    48   23  147 1    
    49   23  148 1    
    50   24   25 am   BACKBONE|DICT|INTERRES
    51   24  149 1    
    52   25   26 2    
    53   25   27 1    
    54   27   28 1    
    55   27   29 1    
    56   27  150 1    
    57   28  151 1    
    58   28  152 1    
    59   28  153 1    
    60   29   30 am   BACKBONE|DICT|INTERRES
    61   29  154 1    
    62   30   31 2    
    63   30   32 1    
    64   32   33 1    
    65   32   34 1    
    66   32  155 1    
    67   33  156 1    
    68   33  157 1    
    69   33  158 1    
    70   34   35 am   BACKBONE|DICT|INTERRES
    71   34  159 1    
    72   35   36 2    
    73   35   37 1    
    74   37   38 1    
    75   37   39 1    
    76   37  160 1    
    77   38  161 1    
    78   38  162 1    
    79   38  163 1    
    80   39   40 am   BACKBONE|DICT|INTERRES
    81   39  164 1    
    82   40   41 2    
    83   40   42 1    
    84   42   43 1    
    85   42   44 1    
    86   42  165 1    
    87   43  166 1    
    88   43  167 1    
    89   43  168 1    
    90   44   45 am   BACKBONE|DICT|INTERRES
    91   44  169 1    
    92   45   46 2    
    93   45   47 1    
    94   47   48 1    
    95   47   49 1    
    96   47  170 1    
    97   48  171 1    
    98   48  172 1    
    99   48  173 1    
   100   49   50 am   BACKBONE|DICT|INTERRES
   101   49  174 1    
   102   50   51 2    
   103   50   52 1    
   104   52   53 1    
   105   52   54 1    
   106   52  175 1    
   107   53  176 1    
   108   53  177 1    
   109   53  178 1    
   110   54   55 am   BACKBONE|DICT|INTERRES
   111   54  179 1    
   112   55   56 2    
   113   55   57 1    
   114   57   58 1    
   115   57   59 1    
   116   57  180 1    
   117   58  181 1    
   118   58  182 1    
   119   58  183 1    
   120   59   60 am   BACKBONE|DICT|INTERRES
   121   59  184 1    
   122   60   61 2    
   123   60   62 1    
   124   62   63 1    
   125   62   64 1    
   126   62  185 1    
   127   63  186 1    
   128   63  187 1    
   129   63  188 1    
   130   64   65 am   BACKBONE|DICT|INTERRES
   131   64  189 1    
   132   65   66 2    
   133   67   68 2    
   134   67   69 am   BACKBONE|DICT|INTERRES
   135   69   70 1    
   136   69  190 1    
   137   70   71 1    
   138   70   72 1    
   139   70  191 1    
   140   71  192 1    
   141   71  193 1    
   142   71  194 1    
   143   72   73 2    
   144   72   74 am   BACKBONE|DICT|INTERRES
   145   74   75 1    
   146   74  195 1    
   147   75   76 1    
   148   75   77 1    
   149   75  196 1    
   150   76  197 1    
   151   76  198 1    
   152   76  199 1    
   153   77   78 2    
   154   77   79 am   BACKBONE|DICT|INTERRES
   155   79   80 1    
   156   79  200 1    
   157   80   81 1    
   158   80   82 1    
   159   80  201 1    
   160   81  202 1    
   161   81  203 1    
   162   81  204 1    
   163   82   83 2    
   164   82   84 am   BACKBONE|DICT|INTERRES
   165   84   85 1    
   166   84  205 1    
   167   85   86 1    
   168   85   87 1    
   169   85  206 1    
   170   86  207 1    
   171   86  208 1    
   172   86  209 1    
   173   87   88 2    
   174   87   89 am   BACKBONE|DICT|INTERRES
   175   89   90 1    
   176   89  210 1    
   177   90   91 1    
   178   90   92 1    
   179   90  211 1    
   180   91  212 1    
   181   91  213 1    
   182   91  214 1    
   183   92   93 2    
   184   92   94 am   BACKBONE|DICT|INTERRES
   185   94   95 1    
   186   94  215 1    
   187   95   96 1    
   188   95   97 1    
   189   95  216 1    
   190   96  217 1    
   191   96  218 1    
   192   96  219 1    
   193   97   98 2    
   194   97   99 am   BACKBONE|DICT|INTERRES
   195   99  100 1    
   196   99  220 1    
   197  100  101 1    
   198  100  102 1    
   199  100  221 1    
   200  101  222 1    
   201  101  223 1    
   202  101  224 1    
   203  102  103 2    
   204  102  104 am   BACKBONE|DICT|INTERRES
   205  104  105 1    
   206  104  225 1    
   207  105  106 1    
   208  105  107 1    
   209  105  226 1    
   210  106  227 1    
   211  106  228 1    
   212  106  229 1    
   213  107  108 2    
   214  107  109 am   BACKBONE|DICT|INTERRES
   215  109  110 1    
   216  109  230 1    
   217  110  111 1    
   218  110  112 1    
   219  110  231 1    
   220  111  232 1    
   221  111  233 1    
   222  111  234 1    
   223  112  113 2    
   224  112  114 am   BACKBONE|DICT|INTERRES
   225  114  115 1    
   226  114  235 1    
   227  115  116 1    
   228  115  117 1    
   229  115  236 1    
   230  116  237 1    
   231  116  238 1    
   232  116  239 1    
   233  117  118 2    
   234  117  119 am   BACKBONE|DICT|INTERRES
   235  119  120 1    
   236  119  240 1    
   237  120  121 1    
   238  120  124 1    
   239  120  241 1    
   240  121  122 am   BACKBONE|DICT|INTERRES
   241  121  123 2    
   242  122  242 1    
   243  122  243 1    
   244  124  125 1    
   245  124  244 1    
   246  124  245 1    
   247  125  126 1    
   248  126  246 1    
   249  126  247 1    
@<TRIPOS>SUBSTRUCTURE
     1 UNK         1 GROUP             0       ****    0 ROOT    
