@<TRIPOS>MOLECULE
3R540
247   249    1
SMALL
USER_CHARGES


@<TRIPOS>ATOM
      1 CA          1.2633  -15.1700  -50.0960 C.3       0 UNK        -0.1800 
      2 C           0.8933  -14.9192  -48.6419 C.2       0 UNK         0.5000 
      3 O           1.7767  -14.8150  -47.7929 O.2       0 UNK        -0.5000 
      4 N          -0.4064  -14.7707  -48.3519 N.am      1 UNK        -0.5000 
      5 CA         -0.9500  -14.4595  -47.0195 C.3       1 UNK         0.1400 
      6 C6         -2.4727  -14.7545  -46.9330 C.3       23 UNK        -0.0398 
      7 S7         -2.7954  -16.4708  -46.4047 S.3       23 UNK        -0.2404 
      8 C8         -3.5365  -17.2290  -47.8843 C.3       23 UNK        -0.0205 
      9 C9         -2.5533  -17.4581  -49.0261 C.ar      23 UNK        -0.0193 
     10 C10        -2.9347  -17.1548  -50.3362 C.ar      23 UNK        -0.1150 
     11 C11        -2.0690  -17.4046  -51.4043 C.ar      23 UNK        -0.0193 
     12 C12        -0.8068  -17.9489  -51.1545 C.ar      23 UNK        -0.1150 
     13 C13        -0.4019  -18.2384  -49.8484 C.ar      23 UNK        -0.0193 
     14 C14        -1.2860  -18.0042  -48.7906 C.ar      23 UNK        -0.1150 
     15 C15         1.0082  -18.7509  -49.5885 C.3       23 UNK        -0.0205 
     16 S16         1.0584  -20.5429  -49.2904 S.3       23 UNK        -0.2404 
     17 C17         1.0696  -20.5777  -47.4671 C.3       23 UNK        -0.0398 
     18 CA          0.6542  -21.9420  -46.8749 C.3       11 UNK         0.1400 
     19 N           0.9856  -22.0228  -45.4510 N.am      11 UNK        -0.5000 
     20 C           0.8824  -23.1262  -44.6989 C.2       10 UNK         0.5000 
     21 O           0.5109  -24.2162  -45.1309 O.2       10 UNK        -0.5000 
     22 CA          1.1909  -22.9735  -43.2003 C.3       10 UNK         0.1400 
     23 CB          2.7062  -22.9287  -42.9549 C.3       10 UNK        -0.1800 
     24 N           0.5520  -21.7912  -42.6208 N.am      10 UNK        -0.5000 
     25 C          -0.7761  -21.6170  -42.5443 C.2       9 UNK         0.5000 
     26 O          -1.5973  -22.4584  -42.9073 O.2       9 UNK        -0.5000 
     27 CA         -1.2776  -20.2686  -42.0010 C.3       9 UNK         0.1400 
     28 CB         -1.2572  -20.2661  -40.4654 C.3       9 UNK        -0.1800 
     29 N          -0.5198  -19.1247  -42.5094 N.am      9 UNK        -0.5000 
     30 C          -0.4564  -18.7636  -43.8002 C.2       8 UNK         0.5000 
     31 O          -1.0307  -19.3618  -44.7104 O.2       8 UNK        -0.5000 
     32 CA          0.4555  -17.5698  -44.1369 C.3       8 UNK         0.1400 
     33 CB         -0.1535  -16.2455  -43.6500 C.3       8 UNK        -0.1800 
     34 N           1.7908  -17.7166  -43.5633 N.am      8 UNK        -0.5000 
     35 C           2.6385  -18.7237  -43.8105 C.2       7 UNK         0.5000 
     36 O           2.4124  -19.6392  -44.6016 O.2       7 UNK        -0.5000 
     37 CA          3.9385  -18.7313  -42.9907 C.3       7 UNK         0.1400 
     38 CB          4.9671  -17.7535  -43.5809 C.3       7 UNK        -0.1800 
     39 N           3.6965  -18.4042  -41.5850 N.am      7 UNK        -0.5000 
     40 C           3.0428  -19.1961  -40.7232 C.2       6 UNK         0.5000 
     41 O           2.5872  -20.3008  -41.0175 O.2       6 UNK        -0.5000 
     42 CA          2.8335  -18.6433  -39.3018 C.3       6 UNK         0.1400 
     43 CB          4.1066  -18.8115  -38.4587 C.3       6 UNK        -0.1800 
     44 N           2.4287  -17.2371  -39.2979 N.am      6 UNK        -0.5000 
     45 C           1.2563  -16.7915  -39.7692 C.2       5 UNK         0.5000 
     46 O           0.3865  -17.5214  -40.2426 O.2       5 UNK        -0.5000 
     47 CA          1.0316  -15.2687  -39.7476 C.3       5 UNK         0.1400 
     48 CB          0.5119  -14.8217  -38.3729 C.3       5 UNK        -0.1800 
     49 N           2.2085  -14.4694  -40.1050 N.am      5 UNK        -0.5000 
     50 C           2.9158  -14.5935  -41.2361 C.2       4 UNK         0.5000 
     51 O           2.7558  -15.5032  -42.0526 O.2       4 UNK        -0.5000 
     52 CA          4.0035  -13.5311  -41.4861 C.3       4 UNK         0.1400 
     53 CB          5.3411  -13.9961  -40.8904 C.3       4 UNK        -0.1800 
     54 N           4.1930  -13.2530  -42.9126 N.am      4 UNK        -0.5000 
     55 C           3.2393  -12.8200  -43.7499 C.2       3 UNK         0.5000 
     56 O           2.1045  -12.5082  -43.3789 O.2       3 UNK        -0.5000 
     57 CA          3.6343  -12.7408  -45.2427 C.3       3 UNK         0.1400 
     58 CB          4.1785  -14.0924  -45.7430 C.3       3 UNK        -0.1800 
     59 N           2.5171  -12.3471  -46.1044 N.am      3 UNK        -0.5000 
     60 C           1.9648  -11.1246  -46.1587 C.2       2 UNK         0.5000 
     61 O           2.4292  -10.1445  -45.5737 O.2       2 UNK        -0.5000 
     62 CA          0.6857  -10.9522  -47.0109 C.3       2 UNK         0.1400 
     63 CB          0.9976  -10.1787  -48.3019 C.3       2 UNK        -0.1800 
     64 N           0.0503  -12.2216  -47.3701 N.am      2 UNK        -0.5000 
     65 C          -0.6021  -13.0321  -46.5239 C.2       1 UNK         0.5000 
     66 O          -0.8967  -12.7048  -45.3744 O.2       1 UNK        -0.5000 
     67 C          -0.8315  -22.2644  -47.1390 C.2       11 UNK         0.5000 
     68 O          -1.1238  -23.0848  -48.0074 O.2       11 UNK        -0.5000 
     69 N          -1.7323  -21.6667  -46.3459 N.am      12 UNK        -0.5000 
     70 CA         -3.1787  -21.8862  -46.4171 C.3       12 UNK         0.1400 
     71 CB         -3.8821  -20.8457  -45.5323 C.3       12 UNK        -0.1800 
     72 C          -3.6229  -23.3137  -46.0325 C.2       12 UNK         0.5000 
     73 O          -4.7212  -23.7217  -46.4121 O.2       12 UNK        -0.5000 
     74 N          -2.7860  -24.0409  -45.2808 N.am      13 UNK        -0.5000 
     75 CA         -2.9914  -25.4464  -44.9420 C.3       13 UNK         0.1400 
     76 CB         -2.3568  -25.7404  -43.5733 C.3       13 UNK        -0.1800 
     77 C          -2.4153  -26.3770  -46.0238 C.2       13 UNK         0.5000 
     78 O          -3.0780  -27.3412  -46.4088 O.2       13 UNK        -0.5000 
     79 N          -1.1872  -26.0899  -46.4774 N.am      14 UNK        -0.5000 
     80 CA         -0.4370  -26.9103  -47.4294 C.3       14 UNK         0.1400 
     81 CB          1.0442  -26.5039  -47.3830 C.3       14 UNK        -0.1800 
     82 C          -0.9622  -26.8332  -48.8741 C.2       14 UNK         0.5000 
     83 O          -0.8796  -27.8281  -49.5965 O.2       14 UNK        -0.5000 
     84 N          -1.4697  -25.6645  -49.2755 N.am      15 UNK        -0.5000 
     85 CA         -1.9714  -25.3713  -50.6142 C.3       15 UNK         0.1400 
     86 CB         -0.9151  -24.5326  -51.3578 C.3       15 UNK        -0.1800 
     87 C          -3.3133  -24.6277  -50.5243 C.2       15 UNK         0.5000 
     88 O          -3.7779  -24.3028  -49.4298 O.2       15 UNK        -0.5000 
     89 N          -3.9207  -24.3715  -51.6893 N.am      16 UNK        -0.5000 
     90 CA         -5.1065  -23.5265  -51.8294 C.3       16 UNK         0.1400 
     91 CB         -5.6459  -23.6633  -53.2602 C.3       16 UNK        -0.1800 
     92 C          -4.7870  -22.0521  -51.5162 C.2       16 UNK         0.5000 
     93 O          -3.6702  -21.6011  -51.7782 O.2       16 UNK        -0.5000 
     94 N          -5.7813  -21.3351  -50.9851 N.am      17 UNK        -0.5000 
     95 CA         -5.7065  -19.9147  -50.6648 C.3       17 UNK         0.1400 
     96 CB         -5.9536  -19.7238  -49.1601 C.3       17 UNK        -0.1800 
     97 C          -6.7676  -19.1713  -51.4855 C.2       17 UNK         0.5000 
     98 O          -7.9271  -19.5905  -51.4994 O.2       17 UNK        -0.5000 
     99 N          -6.3444  -18.0842  -52.1438 N.am      18 UNK        -0.5000 
    100 CA        -7.1352  -17.1692  -52.9779 C.3       18 UNK         0.1400 
    101 CB        -8.1759  -16.4190  -52.1209 C.3       18 UNK        -0.1800 
    102 C         -7.7603  -17.8184  -54.2346 C.2       18 UNK         0.5000 
    103 O         -8.6937  -17.2559  -54.8099 O.2       18 UNK        -0.5000 
    104 N         -7.2311  -18.9721  -54.6558 N.am      19 UNK        -0.5000 
    105 CA        -7.6804  -19.7641  -55.7954 C.3       19 UNK         0.1400 
    106 CB        -9.0020  -20.4790  -55.4493 C.3       19 UNK        -0.1800 
    107 C         -6.5896  -20.7851  -56.1487 C.2       19 UNK         0.5000 
    108 O         -5.6569  -20.9732  -55.3621 O.2       19 UNK        -0.5000 
    109 N         -6.7492  -21.4346  -57.3117 N.am      20 UNK        -0.5000 
    110 CA        -5.9549  -22.5484  -57.8452 C.3       20 UNK         0.1400 
    111 CB        -6.3138  -23.8559  -57.1078 C.3       20 UNK        -0.1800 
    112 C         -4.4417  -22.2560  -57.8711 C.2       20 UNK         0.5000 
    113 O         -3.9667  -21.6194  -58.8130 O.2       20 UNK        -0.5000 
    114 N         -3.7257  -22.6866  -56.8225 N.am      21 UNK        -0.5000 
    115 CA        -2.2984  -22.4522  -56.5854 C.3       21 UNK         0.1400 
    116 CB        -1.9027  -23.1223  -55.2594 C.3       21 UNK        -0.1800 
    117 C         -1.8979  -20.9624  -56.5714 C.2       21 UNK         0.5000 
    118 O         -0.7640  -20.6396  -56.9282 O.2       21 UNK        -0.5000 
    119 N         -2.8370  -20.0874  -56.1913 N.am      22 UNK        -0.5000 
    120 CA        -2.6927  -18.6241  -56.2496 C.3       22 UNK         0.1400 
    121 C         -2.8297  -18.0203  -57.6799 C.2       22 UNK         0.5000 
    122 N         -3.2008  -18.7787  -58.7054 N.am      22 UNK        -0.7600 
    123 O         -2.5853  -16.8315  -57.8663 O.2       22 UNK        -0.5000 
    124 C124       -3.6498  -17.9130  -55.2611 C.3       23 UNK        -0.0398 
    125 S125       -3.4167  -18.4795  -53.5444 S.3       23 UNK        -0.2404 
    126 C126       -2.4948  -17.0887  -52.8282 C.3       23 UNK        -0.0205 
    127 H127        1.8072  -14.3139  -50.4944 H         1 UNK         0.0600 
    128 H128        0.3815  -15.3308  -50.7162 H         1 UNK         0.0600 
    129 H129        1.9057  -16.0456  -50.1775 H         1 UNK         0.0600 
    130 H130       -1.0891  -14.8842  -49.0875 H         1 UNK         0.3000 
    131 H131       -0.4367  -15.1162  -46.3148 H         1 UNK         0.0600 
    132 H132       -2.9672  -14.1204  -46.1947 H         1 UNK         0.0800 
    133 H133       -2.9727  -14.5426  -47.8792 H         1 UNK         0.0800 
    134 H134       -4.3814  -16.6195  -48.2085 H         1 UNK         0.0800 
    135 H135       -3.9465  -18.1962  -47.5955 H         1 UNK         0.0800 
    136 H136       -3.9126  -16.7368  -50.5285 H         1 UNK         0.1150 
    137 H137       -0.1332  -18.1349  -51.9791 H         1 UNK         0.1150 
    138 H138       -0.9859  -18.2295  -47.7783 H         1 UNK         0.1150 
    139 H139        1.6465  -18.5336  -50.4461 H         1 UNK         0.0800 
    140 H140        1.4490  -18.2139  -48.7471 H         1 UNK         0.0800 
    141 H141        0.4433  -19.7814  -47.0656 H         1 UNK         0.0800 
    142 H142        2.0880  -20.3397  -47.1578 H         1 UNK         0.0800 
    143 H143        1.2450  -22.7142  -47.3726 H         1 UNK         0.0600 
    144 H144        1.3222  -21.1663  -45.0186 H         1 UNK         0.3000 
    145 H145        0.7922  -23.8525  -42.6895 H         1 UNK         0.0600 
    146 H146        2.9313  -22.9240  -41.8884 H         1 UNK         0.0600 
    147 H147        3.1981  -23.8012  -43.3866 H         1 UNK         0.0600 
    148 H148        3.1614  -22.0418  -43.3965 H         1 UNK         0.0600 
    149 H149        1.1687  -21.0720  -42.2569 H         1 UNK         0.3000 
    150 H150       -2.3129  -20.1477  -42.3260 H         1 UNK         0.0600 
    151 H151       -1.8178  -21.1114  -40.0645 H         1 UNK         0.0600 
    152 H152       -1.7105  -19.3581  -40.0675 H         1 UNK         0.0600 
    153 H153       -0.2399  -20.3306  -40.0771 H         1 UNK         0.0600 
    154 H154       -0.0293  -18.5674  -41.8152 H         1 UNK         0.3000 
    155 H155        0.5590  -17.5222  -45.2230 H         1 UNK         0.0600 
    156 H156       -0.2253  -16.2111  -42.5638 H         1 UNK         0.0600 
    157 H157       -1.1591  -16.1025  -44.0426 H         1 UNK         0.0600 
    158 H158        0.4481  -15.3934  -43.9684 H         1 UNK         0.0600 
    159 H159        2.0883  -16.9882  -42.9170 H         1 UNK         0.3000 
    160 H160        4.3593  -19.7379  -43.0389 H         1 UNK         0.0600 
    161 H161        5.9088  -17.7941  -43.0335 H         1 UNK         0.0600 
    162 H162        4.6107  -16.7232  -43.5581 H         1 UNK         0.0600 
    163 H163        5.1847  -18.0001  -44.6209 H         1 UNK         0.0600 
    164 H164        3.9633  -17.4782  -41.2842 H         1 UNK         0.3000 
    165 H165        2.0370  -19.2260  -38.8340 H         1 UNK         0.0600 
    166 H166        3.9399  -18.5000  -37.4274 H         1 UNK         0.0600 
    167 H167        4.4230  -19.8552  -38.4348 H         1 UNK         0.0600 
    168 H168        4.9361  -18.2258  -38.8568 H         1 UNK         0.0600 
    169 H169        3.0907  -16.5664  -38.9367 H         1 UNK         0.3000 
    170 H170        0.2592  -15.0461  -40.4860 H         1 UNK         0.0600 
    171 H171       -0.3762  -15.3876  -38.0878 H         1 UNK         0.0600 
    172 H172        1.2594  -14.9683  -37.5923 H         1 UNK         0.0600 
    173 H173        0.2342  -13.7675  -38.3790 H         1 UNK         0.0600 
    174 H174        2.4279  -13.7059  -39.4817 H         1 UNK         0.3000 
    175 H175        3.7030  -12.6001  -41.0014 H         1 UNK         0.0600 
    176 H176        5.6913  -14.9168  -41.3593 H         1 UNK         0.0600 
    177 H177        6.1150  -13.2388  -41.0176 H         1 UNK         0.0600 
    178 H178        5.2494  -14.1872  -39.8204 H         1 UNK         0.0600 
    179 H179        5.0917  -13.5051  -43.2953 H         1 UNK         0.3000 
    180 H180        4.4216  -11.9907  -45.3403 H         1 UNK         0.0600 
    181 H181        3.4614  -14.8980  -45.5766 H         1 UNK         0.0600 
    182 H182        5.1035  -14.3676  -45.2360 H         1 UNK         0.0600 
    183 H183        4.3997  -14.0588  -46.8101 H         1 UNK         0.0600 
    184 H184        2.0810  -13.0994  -46.6251 H         1 UNK         0.3000 
    185 H185       -0.0232  -10.3664  -46.4220 H         1 UNK         0.0600 
    186 H186        1.4404   -9.2071  -48.0787 H         1 UNK         0.0600 
    187 H187        1.6997  -10.7215  -48.9360 H         1 UNK         0.0600 
    188 H188        0.0924   -9.9956  -48.8812 H         1 UNK         0.0600 
    189 H189        0.2434  -12.5722  -48.2965 H         1 UNK         0.3000 
    190 H190       -1.4140  -20.9841  -45.6621 H         1 UNK         0.3000 
    191 H191       -3.4860  -21.7208  -47.4519 H         1 UNK         0.0600 
    192 H192       -3.6110  -20.9667  -44.4829 H         1 UNK         0.0600 
    193 H193       -4.9664  -20.9362  -45.6067 H         1 UNK         0.0600 
    194 H194       -3.6186  -19.8306  -45.8289 H         1 UNK         0.0600 
    195 H195       -1.9287  -23.6118  -44.9579 H         1 UNK         0.3000 
    196 H196       -4.0613  -25.6489  -44.8594 H         1 UNK         0.0600 
    197 H197       -2.5039  -26.7835  -43.2908 H         1 UNK         0.0600 
    198 H198       -2.8055  -25.1251  -42.7932 H         1 UNK         0.0600 
    199 H199       -1.2838  -25.5474  -43.5716 H         1 UNK         0.0600 
    200 H200       -0.6882  -25.2979  -46.0800 H         1 UNK         0.3000 
    201 H201       -0.5099  -27.9515  -47.1085 H         1 UNK         0.0600 
    202 H202        1.4586  -26.6373  -46.3835 H         1 UNK         0.0600 
    203 H203        1.1812  -25.4590  -47.6652 H         1 UNK         0.0600 
    204 H204        1.6398  -27.1109  -48.0660 H         1 UNK         0.0600 
    205 H205       -1.5251  -24.8865  -48.6215 H         1 UNK         0.3000 
    206 H206       -2.1491  -26.2963  -51.1662 H         1 UNK         0.0600 
    207 H207       -1.2176  -24.3255  -52.3846 H         1 UNK         0.0600 
    208 H208       -0.7491  -23.5733  -50.8648 H         1 UNK         0.0600 
    209 H209        0.0412  -25.0539  -51.4030 H         1 UNK         0.0600 
    210 H210       -3.4678  -24.6497  -52.5463 H         1 UNK         0.3000 
    211 H211       -5.8674  -23.8816  -51.1309 H         1 UNK         0.0600 
    212 H212       -4.9119  -23.3267  -53.9924 H         1 UNK         0.0600 
    213 H213       -6.5449  -23.0614  -53.4004 H         1 UNK         0.0600 
    214 H214       -5.9059  -24.6966  -53.4907 H         1 UNK         0.0600 
    215 H215       -6.6921  -21.7564  -50.8653 H         1 UNK         0.3000 
    216 H216       -4.7206  -19.5101  -50.9034 H         1 UNK         0.0600 
    217 H217       -5.9707  -18.6653  -48.8995 H         1 UNK         0.0600 
    218 H218       -5.1673  -20.1961  -48.5713 H         1 UNK         0.0600 
    219 H219       -6.9073  -20.1518  -48.8489 H         1 UNK         0.0600 
    220 H220       -5.3542  -17.8808  -52.1182 H         1 UNK         0.3000 
    221 H221       -6.4285  -16.4280  -53.3537 H         1 UNK         0.0600 
    222 H222       -8.9616  -17.0852  -51.7637 H         1 UNK         0.0600 
    223 H223       -7.7099  -15.9534  -51.2525 H         1 UNK         0.0600 
    224 H224       -8.6571  -15.6245  -52.6924 H         1 UNK         0.0600 
    225 H225       -6.4404  -19.3720  -54.1651 H         1 UNK         0.3000 
    226 H226       -7.8259  -19.1052  -56.6537 H         1 UNK         0.0600 
    227 H227       -9.3513  -21.0947  -56.2787 H         1 UNK         0.0600 
    228 H228       -8.8862  -21.1304  -54.5819 H         1 UNK         0.0600 
    229 H229       -9.7959  -19.7666  -55.2258 H         1 UNK         0.0600 
    230 H230       -7.5307  -21.1640  -57.8921 H         1 UNK         0.3000 
    231 H231       -6.2554  -22.6722  -58.8868 H         1 UNK         0.0600 
    232 H232       -7.3581  -24.1195  -57.2754 H         1 UNK         0.0600 
    233 H233       -6.1684  -23.7769  -56.0318 H         1 UNK         0.0600 
    234 H234       -5.7105  -24.6909  -57.4666 H         1 UNK         0.0600 
    235 H235       -4.2281  -23.1463  -56.0784 H         1 UNK         0.3000 
    236 H236       -1.7476  -22.9333  -57.3958 H         1 UNK         0.0600 
    237 H237       -2.1148  -24.1914  -55.2758 H         1 UNK         0.0600 
    238 H238       -0.8354  -23.0066  -55.0666 H         1 UNK         0.0600 
    239 H239       -2.4363  -22.6845  -54.4141 H         1 UNK         0.0600 
    240 H240       -3.7384  -20.4407  -55.8879 H         1 UNK         0.3000 
    241 H241       -1.6757  -18.3858  -55.9323 H         1 UNK         0.0600 
    242 H242       -3.3990  -19.7681  -58.5930 H         1 UNK         0.3800 
    243 H243       -3.2753  -18.3631  -59.6202 H         1 UNK         0.3800 
    244 H244       -3.5151  -16.8305  -55.2992 H         1 UNK         0.0800 
    245 H245       -4.6861  -18.0976  -55.5452 H         1 UNK         0.0800 
    246 H246       -1.6195  -16.8765  -53.4443 H         1 UNK         0.0800 
    247 H247       -3.1129  -16.1897  -52.8447 H         1 UNK         0.0800 
@<TRIPOS>BOND
     1    1    2 1    
     2    1  127 1    
     3    1  128 1    
     4    1  129 1    
     5    2    3 2    
     6    2    4 am   BACKBONE|DICT|INTERRES
     7    4    5 1    
     8    4  130 1    
     9    5    6 1    
    10    5   65 1    
    11    5  131 1    
    12    6    7 1    
    13    6  132 1    
    14    6  133 1    
    15    7    8 1    
    16    8    9 1    
    17    8  134 1    
    18    8  135 1    
    19    9   10 ar   
    20    9   14 ar   
    21   10   11 ar   
    22   10  136 1    
    23   11   12 ar   
    24   11  126 1    
    25   12   13 ar   
    26   12  137 1    
    27   13   14 ar   
    28   13   15 1    
    29   14  138 1    
    30   15   16 1    
    31   15  139 1    
    32   15  140 1    
    33   16   17 1    
    34   17   18 1    
    35   17  141 1    
    36   17  142 1    
    37   18   19 1    
    38   18   67 1    
    39   18  143 1    
    40   19   20 am   BACKBONE|DICT|INTERRES
    41   19  144 1    
    42   20   21 2    
    43   20   22 1    
    44   22   23 1    
    45   22   24 1    
    46   22  145 1    
    47   23  146 1    
    48   23  147 1    
    49   23  148 1    
    50   24   25 am   BACKBONE|DICT|INTERRES
    51   24  149 1    
    52   25   26 2    
    53   25   27 1    
    54   27   28 1    
    55   27   29 1    
    56   27  150 1    
    57   28  151 1    
    58   28  152 1    
    59   28  153 1    
    60   29   30 am   BACKBONE|DICT|INTERRES
    61   29  154 1    
    62   30   31 2    
    63   30   32 1    
    64   32   33 1    
    65   32   34 1    
    66   32  155 1    
    67   33  156 1    
    68   33  157 1    
    69   33  158 1    
    70   34   35 am   BACKBONE|DICT|INTERRES
    71   34  159 1    
    72   35   36 2    
    73   35   37 1    
    74   37   38 1    
    75   37   39 1    
    76   37  160 1    
    77   38  161 1    
    78   38  162 1    
    79   38  163 1    
    80   39   40 am   BACKBONE|DICT|INTERRES
    81   39  164 1    
    82   40   41 2    
    83   40   42 1    
    84   42   43 1    
    85   42   44 1    
    86   42  165 1    
    87   43  166 1    
    88   43  167 1    
    89   43  168 1    
    90   44   45 am   BACKBONE|DICT|INTERRES
    91   44  169 1    
    92   45   46 2    
    93   45   47 1    
    94   47   48 1    
    95   47   49 1    
    96   47  170 1    
    97   48  171 1    
    98   48  172 1    
    99   48  173 1    
   100   49   50 am   BACKBONE|DICT|INTERRES
   101   49  174 1    
   102   50   51 2    
   103   50   52 1    
   104   52   53 1    
   105   52   54 1    
   106   52  175 1    
   107   53  176 1    
   108   53  177 1    
   109   53  178 1    
   110   54   55 am   BACKBONE|DICT|INTERRES
   111   54  179 1    
   112   55   56 2    
   113   55   57 1    
   114   57   58 1    
   115   57   59 1    
   116   57  180 1    
   117   58  181 1    
   118   58  182 1    
   119   58  183 1    
   120   59   60 am   BACKBONE|DICT|INTERRES
   121   59  184 1    
   122   60   61 2    
   123   60   62 1    
   124   62   63 1    
   125   62   64 1    
   126   62  185 1    
   127   63  186 1    
   128   63  187 1    
   129   63  188 1    
   130   64   65 am   BACKBONE|DICT|INTERRES
   131   64  189 1    
   132   65   66 2    
   133   67   68 2    
   134   67   69 am   BACKBONE|DICT|INTERRES
   135   69   70 1    
   136   69  190 1    
   137   70   71 1    
   138   70   72 1    
   139   70  191 1    
   140   71  192 1    
   141   71  193 1    
   142   71  194 1    
   143   72   73 2    
   144   72   74 am   BACKBONE|DICT|INTERRES
   145   74   75 1    
   146   74  195 1    
   147   75   76 1    
   148   75   77 1    
   149   75  196 1    
   150   76  197 1    
   151   76  198 1    
   152   76  199 1    
   153   77   78 2    
   154   77   79 am   BACKBONE|DICT|INTERRES
   155   79   80 1    
   156   79  200 1    
   157   80   81 1    
   158   80   82 1    
   159   80  201 1    
   160   81  202 1    
   161   81  203 1    
   162   81  204 1    
   163   82   83 2    
   164   82   84 am   BACKBONE|DICT|INTERRES
   165   84   85 1    
   166   84  205 1    
   167   85   86 1    
   168   85   87 1    
   169   85  206 1    
   170   86  207 1    
   171   86  208 1    
   172   86  209 1    
   173   87   88 2    
   174   87   89 am   BACKBONE|DICT|INTERRES
   175   89   90 1    
   176   89  210 1    
   177   90   91 1    
   178   90   92 1    
   179   90  211 1    
   180   91  212 1    
   181   91  213 1    
   182   91  214 1    
   183   92   93 2    
   184   92   94 am   BACKBONE|DICT|INTERRES
   185   94   95 1    
   186   94  215 1    
   187   95   96 1    
   188   95   97 1    
   189   95  216 1    
   190   96  217 1    
   191   96  218 1    
   192   96  219 1    
   193   97   98 2    
   194   97   99 am   BACKBONE|DICT|INTERRES
   195   99  100 1    
   196   99  220 1    
   197  100  101 1    
   198  100  102 1    
   199  100  221 1    
   200  101  222 1    
   201  101  223 1    
   202  101  224 1    
   203  102  103 2    
   204  102  104 am   BACKBONE|DICT|INTERRES
   205  104  105 1    
   206  104  225 1    
   207  105  106 1    
   208  105  107 1    
   209  105  226 1    
   210  106  227 1    
   211  106  228 1    
   212  106  229 1    
   213  107  108 2    
   214  107  109 am   BACKBONE|DICT|INTERRES
   215  109  110 1    
   216  109  230 1    
   217  110  111 1    
   218  110  112 1    
   219  110  231 1    
   220  111  232 1    
   221  111  233 1    
   222  111  234 1    
   223  112  113 2    
   224  112  114 am   BACKBONE|DICT|INTERRES
   225  114  115 1    
   226  114  235 1    
   227  115  116 1    
   228  115  117 1    
   229  115  236 1    
   230  116  237 1    
   231  116  238 1    
   232  116  239 1    
   233  117  118 2    
   234  117  119 am   BACKBONE|DICT|INTERRES
   235  119  120 1    
   236  119  240 1    
   237  120  121 1    
   238  120  124 1    
   239  120  241 1    
   240  121  122 am   BACKBONE|DICT|INTERRES
   241  121  123 2    
   242  122  242 1    
   243  122  243 1    
   244  124  125 1    
   245  124  244 1    
   246  124  245 1    
   247  125  126 1    
   248  126  246 1    
   249  126  247 1    
@<TRIPOS>SUBSTRUCTURE
     1 UNK         1 GROUP             0       ****    0 ROOT    
