@<TRIPOS>MOLECULE
3R540
247   249    1
SMALL
USER_CHARGES


@<TRIPOS>ATOM
      1 CA          1.5149  -13.9356  -46.7552 C.3       0 UNK        -0.1800 
      2 C           2.9648  -14.3887  -46.6691 C.2       0 UNK         0.5000 
      3 O           3.8698  -13.5884  -46.9054 O.2       0 UNK        -0.5000 
      4 N           3.1788  -15.6654  -46.3409 N.am      1 UNK        -0.5000 
      5 CA          4.4913  -16.3067  -46.2138 C.3       1 UNK         0.1400 
      6 C6          4.6195  -17.4820  -47.2114 C.3       23 UNK        -0.0398 
      7 S7          6.3254  -17.8573  -47.7281 S.3       23 UNK        -0.2404 
      8 C8          6.2816  -17.4221  -49.4998 C.3       23 UNK        -0.0205 
      9 C9          5.2970  -18.2696  -50.3005 C.ar      23 UNK        -0.0193 
     10 C10         4.1470  -17.6894  -50.8465 C.ar      23 UNK        -0.1150 
     11 C11         3.2524  -18.4483  -51.6093 C.ar      23 UNK        -0.0193 
     12 C12         3.5262  -19.8028  -51.8306 C.ar      23 UNK        -0.1150 
     13 C13         4.6676  -20.3985  -51.2853 C.ar      23 UNK        -0.0193 
     14 C14         5.5484  -19.6264  -50.5218 C.ar      23 UNK        -0.1150 
     15 C15         4.9774  -21.8644  -51.5522 C.3       23 UNK        -0.0205 
     16 S16         4.4189  -22.9498  -50.2006 S.3       23 UNK        -0.2404 
     17 C17         2.6467  -23.1662  -50.5857 C.3       23 UNK        -0.0398 
     18 CA          1.7451  -23.0168  -49.3377 C.3       11 UNK         0.1400 
     19 N           1.8977  -21.7084  -48.6954 N.am      11 UNK        -0.5000 
     20 C           1.3063  -21.3233  -47.5571 C.2       10 UNK         0.5000 
     21 O           0.5496  -22.0485  -46.9037 O.2       10 UNK        -0.5000 
     22 CA          1.5657  -19.8761  -47.1031 C.3       10 UNK         0.1400 
     23 CB          1.7574  -18.9272  -48.3090 C.3       10 UNK        -0.1800 
     24 N           0.4154  -19.4480  -46.3255 N.am      10 UNK        -0.5000 
     25 C           0.2589  -18.2899  -45.6868 C.2       9 UNK         0.5000 
     26 O           1.1653  -17.4742  -45.5013 O.2       9 UNK        -0.5000 
     27 CA         -1.1871  -17.9610  -45.2737 C.3       9 UNK         0.1400 
     28 CB         -1.2357  -16.9433  -44.1222 C.3       9 UNK        -0.1800 
     29 N          -1.9326  -17.4191  -46.4113 N.am      9 UNK        -0.5000 
     30 C          -2.2348  -18.0507  -47.5577 C.2       8 UNK         0.5000 
     31 O          -2.0374  -19.2508  -47.7567 O.2       8 UNK        -0.5000 
     32 CA         -2.8693  -17.2048  -48.6780 C.3       8 UNK         0.1400 
     33 CB         -4.3124  -17.6550  -48.9401 C.3       8 UNK        -0.1800 
     34 N          -2.8684  -15.7720  -48.3807 N.am      8 UNK        -0.5000 
     35 C          -1.8355  -14.9418  -48.5606 C.2       7 UNK         0.5000 
     36 O          -0.7561  -15.2900  -49.0369 O.2       7 UNK        -0.5000 
     37 CA         -2.0406  -13.4770  -48.1254 C.3       7 UNK         0.1400 
     38 CB         -3.2020  -12.8146  -48.8928 C.3       7 UNK        -0.1800 
     39 N          -2.1885  -13.2846  -46.6755 N.am      7 UNK        -0.5000 
     40 C          -3.1350  -13.7465  -45.8462 C.2       6 UNK         0.5000 
     41 O          -4.0429  -14.5009  -46.1989 O.2       6 UNK        -0.5000 
     42 CA         -3.0488  -13.2827  -44.3742 C.3       6 UNK         0.1400 
     43 CB         -4.0679  -13.9942  -43.4653 C.3       6 UNK        -0.1800 
     44 N          -1.7151  -13.4393  -43.7874 N.am      6 UNK        -0.5000 
     45 C          -0.6729  -12.6188  -43.9704 C.2       5 UNK         0.5000 
     46 O          -0.6946  -11.6866  -44.7756 O.2       5 UNK        -0.5000 
     47 CA          0.6125  -12.8907  -43.1549 C.3       5 UNK         0.1400 
     48 CB          1.2836  -11.5847  -42.6852 C.3       5 UNK        -0.1800 
     49 N           0.4687  -13.8185  -42.0253 N.am      5 UNK        -0.5000 
     50 C          -0.3150  -13.6932  -40.9412 C.2       4 UNK         0.5000 
     51 O          -1.1294  -12.7845  -40.7797 O.2       4 UNK        -0.5000 
     52 CA         -0.1638  -14.7708  -39.8474 C.3       4 UNK         0.1400 
     53 CB         -1.1812  -15.9013  -40.0659 C.3       4 UNK        -0.1800 
     54 N           1.1828  -15.3441  -39.7854 N.am      4 UNK        -0.5000 
     55 C           2.2796  -14.6746  -39.4013 C.2       3 UNK         0.5000 
     56 O           2.2547  -13.5266  -38.9559 O.2       3 UNK        -0.5000 
     57 CA          3.6374  -15.3930  -39.5530 C.3       3 UNK         0.1400 
     58 CB          4.1005  -15.9507  -38.1981 C.3       3 UNK        -0.1800 
     59 N           3.6701  -16.4752  -40.5459 N.am      3 UNK        -0.5000 
     60 C           3.4043  -16.3480  -41.8529 C.2       2 UNK         0.5000 
     61 O           2.9910  -15.3064  -42.3690 O.2       2 UNK        -0.5000 
     62 CA          3.5856  -17.6158  -42.7077 C.3       2 UNK         0.1400 
     63 CB          2.4203  -18.5917  -42.4785 C.3       2 UNK        -0.1800 
     64 N           3.6401  -17.2844  -44.1288 N.am      2 UNK        -0.5000 
     65 C           4.7054  -16.7691  -44.7594 C.2       1 UNK         0.5000 
     66 O           5.8087  -16.6283  -44.2292 O.2       1 UNK        -0.5000 
     67 C           0.2794  -23.3452  -49.6951 C.2       11 UNK         0.5000 
     68 O          -0.1005  -24.5136  -49.6395 O.2       11 UNK        -0.5000 
     69 N          -0.5268  -22.3216  -50.0190 N.am      12 UNK        -0.5000 
     70 CA         -1.9553  -22.4693  -50.2973 C.3       12 UNK         0.1400 
     71 CB         -2.5188  -21.1716  -50.8811 C.3       12 UNK        -0.1800 
     72 C          -2.7573  -22.9083  -49.0631 C.2       12 UNK         0.5000 
     73 O          -3.5513  -23.8403  -49.1683 O.2       12 UNK        -0.5000 
     74 N          -2.5135  -22.2725  -47.9093 N.am      13 UNK        -0.5000 
     75 CA         -3.1054  -22.6574  -46.6254 C.3       13 UNK         0.1400 
     76 CB         -2.7828  -21.6050  -45.5554 C.3       13 UNK        -0.1800 
     77 C          -2.6718  -24.0600  -46.1654 C.2       13 UNK         0.5000 
     78 O          -3.5046  -24.8078  -45.6531 O.2       13 UNK        -0.5000 
     79 N          -1.3993  -24.4105  -46.4022 N.am      14 UNK        -0.5000 
     80 CA         -0.8467  -25.7408  -46.1325 C.3       14 UNK         0.1400 
     81 CB          0.6783  -25.7090  -46.3125 C.3       14 UNK        -0.1800 
     82 C          -1.4818  -26.8437  -47.0051 C.2       14 UNK         0.5000 
     83 O          -1.7399  -27.9401  -46.5076 O.2       14 UNK        -0.5000 
     84 N          -1.7481  -26.5242  -48.2786 N.am      15 UNK        -0.5000 
     85 CA         -2.4123  -27.3989  -49.2480 C.3       15 UNK         0.1400 
     86 CB         -2.0524  -26.9199  -50.6640 C.3       15 UNK        -0.1800 
     87 C          -3.9457  -27.4592  -49.0859 C.2       15 UNK         0.5000 
     88 O          -4.5767  -28.3048  -49.7215 O.2       15 UNK        -0.5000 
     89 N          -4.5155  -26.5550  -48.2745 N.am      16 UNK        -0.5000 
     90 CA         -5.9489  -26.2947  -48.0918 C.3       16 UNK         0.1400 
     91 CB         -6.6664  -27.5085  -47.4654 C.3       16 UNK        -0.1800 
     92 C          -6.6208  -25.7823  -49.3864 C.2       16 UNK         0.5000 
     93 O          -7.7573  -26.1471  -49.6919 O.2       16 UNK        -0.5000 
     94 N          -5.8897  -24.9336  -50.1176 N.am      17 UNK        -0.5000 
     95 CA         -6.2629  -24.3186  -51.3905 C.3       17 UNK         0.1400 
     96 CB         -5.2289  -24.7366  -52.4505 C.3       17 UNK        -0.1800 
     97 C          -6.3444  -22.7839  -51.2664 C.2       17 UNK         0.5000 
     98 O          -6.2982  -22.0829  -52.2788 O.2       17 UNK        -0.5000 
     99 N          -6.4633  -22.2704  -50.0329 N.am      18 UNK        -0.5000 
    100 CA        -6.4751  -20.8420  -49.6971 C.3       18 UNK         0.1400 
    101 CB        -6.4589  -20.6822  -48.1699 C.3       18 UNK        -0.1800 
    102 C         -7.6271  -20.0296  -50.3221 C.2       18 UNK         0.5000 
    103 O         -7.5006  -18.8123  -50.4503 O.2       18 UNK        -0.5000 
    104 N         -8.7084  -20.7103  -50.7273 N.am      19 UNK        -0.5000 
    105 CA        -9.8167  -20.1329  -51.4902 C.3       19 UNK         0.1400 
    106 CB       -10.9743  -21.1418  -51.5366 C.3       19 UNK        -0.1800 
    107 C         -9.4082  -19.7109  -52.9170 C.2       19 UNK         0.5000 
    108 O         -9.9522  -18.7350  -53.4354 O.2       19 UNK        -0.5000 
    109 N         -8.4564  -20.4400  -53.5168 N.am      20 UNK        -0.5000 
    110 CA        -7.8416  -20.1041  -54.8011 C.3       20 UNK         0.1400 
    111 CB        -7.4606  -21.3982  -55.5381 C.3       20 UNK        -0.1800 
    112 C         -6.6078  -19.2065  -54.6005 C.2       20 UNK         0.5000 
    113 O         -6.4243  -18.2567  -55.3629 O.2       20 UNK        -0.5000 
    114 N         -5.8158  -19.5214  -53.5630 N.am      21 UNK        -0.5000 
    115 CA        -4.5634  -18.8873  -53.1376 C.3       21 UNK         0.1400 
    116 CB        -4.7529  -17.3814  -52.8634 C.3       21 UNK        -0.1800 
    117 C         -3.3812  -19.1570  -54.0932 C.2       21 UNK         0.5000 
    118 O         -3.5672  -19.6007  -55.2284 O.2       21 UNK        -0.5000 
    119 N         -2.1674  -18.9009  -53.5921 N.am      22 UNK        -0.5000 
    120 CA        -0.8935  -19.0890  -54.3088 C.3       22 UNK         0.1400 
    121 C         -0.4225  -17.8455  -55.1205 C.2       22 UNK         0.5000 
    122 N         -1.1278  -16.7212  -55.0899 N.am      22 UNK        -0.7600 
    123 O          0.5938  -17.9069  -55.8069 O.2       22 UNK        -0.5000 
    124 C124        0.2170  -19.6388  -53.3708 C.3       23 UNK        -0.0398 
    125 S125        0.4620  -18.6542  -51.8482 S.3       23 UNK        -0.2404 
    126 C126        2.0211  -17.7798  -52.2158 C.3       23 UNK        -0.0205 
    127 H127        0.8365  -14.6490  -46.2857 H         1 UNK         0.0600 
    128 H128        1.2267  -13.8249  -47.7999 H         1 UNK         0.0600 
    129 H129        1.3915  -12.9692  -46.2677 H         1 UNK         0.0600 
    130 H130        2.3800  -16.2599  -46.1300 H         1 UNK         0.3000 
    131 H131        5.2757  -15.5806  -46.4371 H         1 UNK         0.0600 
    132 H132        4.1729  -18.3938  -46.8167 H         1 UNK         0.0800 
    133 H133        4.0519  -17.2393  -48.1075 H         1 UNK         0.0800 
    134 H134        6.0482  -16.3607  -49.5982 H         1 UNK         0.0800 
    135 H135        7.2809  -17.5523  -49.9172 H         1 UNK         0.0800 
    136 H136        3.9515  -16.6390  -50.6821 H         1 UNK         0.1150 
    137 H137        2.8549  -20.3936  -52.4350 H         1 UNK         0.1150 
    138 H138        6.4374  -20.0794  -50.1054 H         1 UNK         0.1150 
    139 H139        4.5356  -22.1880  -52.4960 H         1 UNK         0.0800 
    140 H140        6.0550  -21.9872  -51.6709 H         1 UNK         0.0800 
    141 H141        2.3446  -22.4582  -51.3582 H         1 UNK         0.0800 
    142 H142        2.5287  -24.1595  -51.0231 H         1 UNK         0.0800 
    143 H143        2.0636  -23.7625  -48.6068 H         1 UNK         0.0600 
    144 H144        2.5105  -21.0594  -49.1679 H         1 UNK         0.3000 
    145 H145        2.4479  -19.8716  -46.4624 H         1 UNK         0.0600 
    146 H146        1.8290  -17.8826  -48.0113 H         1 UNK         0.0600 
    147 H147        0.9178  -18.9983  -49.0001 H         1 UNK         0.0600 
    148 H148        2.6673  -19.1620  -48.8595 H         1 UNK         0.0600 
    149 H149       -0.3959  -20.0409  -46.4489 H         1 UNK         0.3000 
    150 H150       -1.6730  -18.8791  -44.9398 H         1 UNK         0.0600 
    151 H151       -0.7075  -17.3219  -43.2478 H         1 UNK         0.0600 
    152 H152       -2.2624  -16.7440  -43.8178 H         1 UNK         0.0600 
    153 H153       -0.7730  -15.9968  -44.4021 H         1 UNK         0.0600 
    154 H154       -2.1557  -16.4366  -46.3661 H         1 UNK         0.3000 
    155 H155       -2.2870  -17.3806  -49.5851 H         1 UNK         0.0600 
    156 H156       -4.7588  -17.1015  -49.7661 H         1 UNK         0.0600 
    157 H157       -4.9443  -17.5162  -48.0620 H         1 UNK         0.0600 
    158 H158       -4.3407  -18.7109  -49.2037 H         1 UNK         0.0600 
    159 H159       -3.6767  -15.4057  -47.8861 H         1 UNK         0.3000 
    160 H160       -1.1302  -12.9426  -48.4013 H         1 UNK         0.0600 
    161 H161       -4.1680  -13.2530  -48.6411 H         1 UNK         0.0600 
    162 H162       -3.0672  -12.9196  -49.9700 H         1 UNK         0.0600 
    163 H163       -3.2555  -11.7477  -48.6758 H         1 UNK         0.0600 
    164 H164       -1.4980  -12.6717  -46.2511 H         1 UNK         0.3000 
    165 H165       -3.3001  -12.2201  -44.3703 H         1 UNK         0.0600 
    166 H166       -3.9025  -15.0710  -43.4352 H         1 UNK         0.0600 
    167 H167       -4.0141  -13.6181  -42.4433 H         1 UNK         0.0600 
    168 H168       -5.0877  -13.8288  -43.8150 H         1 UNK         0.0600 
    169 H169       -1.6077  -14.1844  -43.1163 H         1 UNK         0.3000 
    170 H170        1.3027  -13.3805  -43.8422 H         1 UNK         0.0600 
    171 H171        1.5405  -10.9458  -43.5309 H         1 UNK         0.0600 
    172 H172        0.6316  -11.0105  -42.0263 H         1 UNK         0.0600 
    173 H173        2.2081  -11.7910  -42.1454 H         1 UNK         0.0600 
    174 H174        1.1418  -14.5785  -42.0319 H         1 UNK         0.3000 
    175 H175       -0.3780  -14.2984  -38.8863 H         1 UNK         0.0600 
    176 H176       -0.9962  -16.4362  -40.9975 H         1 UNK         0.0600 
    177 H177       -1.1469  -16.6249  -39.2513 H         1 UNK         0.0600 
    178 H178       -2.1985  -15.5098  -40.1082 H         1 UNK         0.0600 
    179 H179        1.2943  -16.2892  -40.1204 H         1 UNK         0.3000 
    180 H180        4.3591  -14.6393  -39.8744 H         1 UNK         0.0600 
    181 H181        3.4364  -16.7384  -37.8402 H         1 UNK         0.0600 
    182 H182        4.1210  -15.1684  -37.4380 H         1 UNK         0.0600 
    183 H183        5.1078  -16.3626  -38.2630 H         1 UNK         0.0600 
    184 H184        3.9777  -17.3741  -40.2033 H         1 UNK         0.3000 
    185 H185        4.5189  -18.1042  -42.4200 H         1 UNK         0.0600 
    186 H186        2.3889  -18.9340  -41.4436 H         1 UNK         0.0600 
    187 H187        1.4595  -18.1276  -42.6996 H         1 UNK         0.0600 
    188 H188        2.5163  -19.4760  -43.1089 H         1 UNK         0.0600 
    189 H189        2.7518  -17.3287  -44.6206 H         1 UNK         0.3000 
    190 H190       -0.1501  -21.3854  -50.0263 H         1 UNK         0.3000 
    191 H191       -2.0688  -23.2492  -51.0535 H         1 UNK         0.0600 
    192 H192       -3.5817  -21.2804  -51.0932 H         1 UNK         0.0600 
    193 H193       -2.0266  -20.9330  -51.8204 H         1 UNK         0.0600 
    194 H194       -2.3936  -20.3254  -50.2054 H         1 UNK         0.0600 
    195 H195       -1.8860  -21.4791  -47.9050 H         1 UNK         0.3000 
    196 H196       -4.1890  -22.6860  -46.7514 H         1 UNK         0.0600 
    197 H197       -3.1920  -21.8946  -44.5868 H         1 UNK         0.0600 
    198 H198       -3.2206  -20.6407  -45.8118 H         1 UNK         0.0600 
    199 H199       -1.7084  -21.4719  -45.4305 H         1 UNK         0.0600 
    200 H200       -0.7710  -23.7175  -46.7941 H         1 UNK         0.3000 
    201 H201       -1.0579  -25.9814  -45.0885 H         1 UNK         0.0600 
    202 H202        1.1350  -24.9400  -45.6891 H         1 UNK         0.0600 
    203 H203        0.9583  -25.5124  -47.3468 H         1 UNK         0.0600 
    204 H204        1.1223  -26.6644  -46.0307 H         1 UNK         0.0600 
    205 H205       -1.4366  -25.6240  -48.6297 H         1 UNK         0.3000 
    206 H206       -2.0299  -28.4140  -49.1239 H         1 UNK         0.0600 
    207 H207       -0.9740  -26.9331  -50.8225 H         1 UNK         0.0600 
    208 H208       -2.4994  -27.5620  -51.4239 H         1 UNK         0.0600 
    209 H209       -2.4051  -25.9035  -50.8441 H         1 UNK         0.0600 
    210 H210       -3.8968  -25.8951  -47.8221 H         1 UNK         0.3000 
    211 H211       -6.0128  -25.4745  -47.3754 H         1 UNK         0.0600 
    212 H212       -6.7135  -28.3544  -48.1513 H         1 UNK         0.0600 
    213 H213       -7.6911  -27.2554  -47.1911 H         1 UNK         0.0600 
    214 H214       -6.1607  -27.8390  -46.5581 H         1 UNK         0.0600 
    215 H215       -4.9743  -24.6595  -49.7583 H         1 UNK         0.3000 
    216 H216       -7.2470  -24.6662  -51.7095 H         1 UNK         0.0600 
    217 H217       -5.4957  -24.3539  -53.4365 H         1 UNK         0.0600 
    218 H218       -5.1660  -25.8220  -52.5309 H         1 UNK         0.0600 
    219 H219       -4.2336  -24.3620  -52.2084 H         1 UNK         0.0600 
    220 H220       -6.4984  -22.9164  -49.2585 H         1 UNK         0.3000 
    221 H221       -5.5531  -20.4161  -50.0921 H         1 UNK         0.0600 
    222 H222       -7.3023  -21.1913  -47.7023 H         1 UNK         0.0600 
    223 H223       -5.5404  -21.0838  -47.7450 H         1 UNK         0.0600 
    224 H224       -6.5098  -19.6313  -47.8819 H         1 UNK         0.0600 
    225 H225       -8.7363  -21.7056  -50.5641 H         1 UNK         0.3000 
    226 H226      -10.1620  -19.2395  -50.9656 H         1 UNK         0.0600 
    227 H227      -11.3195  -21.3929  -50.5334 H         1 UNK         0.0600 
    228 H228      -11.8272  -20.7321  -52.0794 H         1 UNK         0.0600 
    229 H229      -10.6827  -22.0677  -52.0340 H         1 UNK         0.0600 
    230 H230       -8.0250  -21.1974  -53.0013 H         1 UNK         0.3000 
    231 H231       -8.5577  -19.5632  -55.4235 H         1 UNK         0.0600 
    232 H232       -7.0147  -21.1754  -56.5082 H         1 UNK         0.0600 
    233 H233       -8.3368  -22.0212  -55.7176 H         1 UNK         0.0600 
    234 H234       -6.7384  -21.9904  -54.9749 H         1 UNK         0.0600 
    235 H235       -6.0443  -20.3758  -53.0630 H         1 UNK         0.3000 
    236 H236       -4.3181  -19.3575  -52.1863 H         1 UNK         0.0600 
    237 H237       -5.6176  -17.2051  -52.2230 H         1 UNK         0.0600 
    238 H238       -3.8850  -16.9619  -52.3538 H         1 UNK         0.0600 
    239 H239       -4.8949  -16.8125  -53.7825 H         1 UNK         0.0600 
    240 H240       -2.0782  -18.5270  -52.6585 H         1 UNK         0.3000 
    241 H241       -1.0483  -19.8594  -55.0665 H         1 UNK         0.0600 
    242 H242       -1.9705  -16.6583  -54.5431 H         1 UNK         0.3800 
    243 H243       -0.8164  -15.9264  -55.6259 H         1 UNK         0.3800 
    244 H244       -0.0441  -20.6515  -53.0635 H         1 UNK         0.0800 
    245 H245        1.1595  -19.7449  -53.9097 H         1 UNK         0.0800 
    246 H246        1.9206  -16.7637  -51.8314 H         1 UNK         0.0800 
    247 H247        2.1587  -17.6790  -53.2929 H         1 UNK         0.0800 
@<TRIPOS>BOND
     1    1    2 1    
     2    1  127 1    
     3    1  128 1    
     4    1  129 1    
     5    2    3 2    
     6    2    4 am   BACKBONE|DICT|INTERRES
     7    4    5 1    
     8    4  130 1    
     9    5    6 1    
    10    5   65 1    
    11    5  131 1    
    12    6    7 1    
    13    6  132 1    
    14    6  133 1    
    15    7    8 1    
    16    8    9 1    
    17    8  134 1    
    18    8  135 1    
    19    9   10 ar   
    20    9   14 ar   
    21   10   11 ar   
    22   10  136 1    
    23   11   12 ar   
    24   11  126 1    
    25   12   13 ar   
    26   12  137 1    
    27   13   14 ar   
    28   13   15 1    
    29   14  138 1    
    30   15   16 1    
    31   15  139 1    
    32   15  140 1    
    33   16   17 1    
    34   17   18 1    
    35   17  141 1    
    36   17  142 1    
    37   18   19 1    
    38   18   67 1    
    39   18  143 1    
    40   19   20 am   BACKBONE|DICT|INTERRES
    41   19  144 1    
    42   20   21 2    
    43   20   22 1    
    44   22   23 1    
    45   22   24 1    
    46   22  145 1    
    47   23  146 1    
    48   23  147 1    
    49   23  148 1    
    50   24   25 am   BACKBONE|DICT|INTERRES
    51   24  149 1    
    52   25   26 2    
    53   25   27 1    
    54   27   28 1    
    55   27   29 1    
    56   27  150 1    
    57   28  151 1    
    58   28  152 1    
    59   28  153 1    
    60   29   30 am   BACKBONE|DICT|INTERRES
    61   29  154 1    
    62   30   31 2    
    63   30   32 1    
    64   32   33 1    
    65   32   34 1    
    66   32  155 1    
    67   33  156 1    
    68   33  157 1    
    69   33  158 1    
    70   34   35 am   BACKBONE|DICT|INTERRES
    71   34  159 1    
    72   35   36 2    
    73   35   37 1    
    74   37   38 1    
    75   37   39 1    
    76   37  160 1    
    77   38  161 1    
    78   38  162 1    
    79   38  163 1    
    80   39   40 am   BACKBONE|DICT|INTERRES
    81   39  164 1    
    82   40   41 2    
    83   40   42 1    
    84   42   43 1    
    85   42   44 1    
    86   42  165 1    
    87   43  166 1    
    88   43  167 1    
    89   43  168 1    
    90   44   45 am   BACKBONE|DICT|INTERRES
    91   44  169 1    
    92   45   46 2    
    93   45   47 1    
    94   47   48 1    
    95   47   49 1    
    96   47  170 1    
    97   48  171 1    
    98   48  172 1    
    99   48  173 1    
   100   49   50 am   BACKBONE|DICT|INTERRES
   101   49  174 1    
   102   50   51 2    
   103   50   52 1    
   104   52   53 1    
   105   52   54 1    
   106   52  175 1    
   107   53  176 1    
   108   53  177 1    
   109   53  178 1    
   110   54   55 am   BACKBONE|DICT|INTERRES
   111   54  179 1    
   112   55   56 2    
   113   55   57 1    
   114   57   58 1    
   115   57   59 1    
   116   57  180 1    
   117   58  181 1    
   118   58  182 1    
   119   58  183 1    
   120   59   60 am   BACKBONE|DICT|INTERRES
   121   59  184 1    
   122   60   61 2    
   123   60   62 1    
   124   62   63 1    
   125   62   64 1    
   126   62  185 1    
   127   63  186 1    
   128   63  187 1    
   129   63  188 1    
   130   64   65 am   BACKBONE|DICT|INTERRES
   131   64  189 1    
   132   65   66 2    
   133   67   68 2    
   134   67   69 am   BACKBONE|DICT|INTERRES
   135   69   70 1    
   136   69  190 1    
   137   70   71 1    
   138   70   72 1    
   139   70  191 1    
   140   71  192 1    
   141   71  193 1    
   142   71  194 1    
   143   72   73 2    
   144   72   74 am   BACKBONE|DICT|INTERRES
   145   74   75 1    
   146   74  195 1    
   147   75   76 1    
   148   75   77 1    
   149   75  196 1    
   150   76  197 1    
   151   76  198 1    
   152   76  199 1    
   153   77   78 2    
   154   77   79 am   BACKBONE|DICT|INTERRES
   155   79   80 1    
   156   79  200 1    
   157   80   81 1    
   158   80   82 1    
   159   80  201 1    
   160   81  202 1    
   161   81  203 1    
   162   81  204 1    
   163   82   83 2    
   164   82   84 am   BACKBONE|DICT|INTERRES
   165   84   85 1    
   166   84  205 1    
   167   85   86 1    
   168   85   87 1    
   169   85  206 1    
   170   86  207 1    
   171   86  208 1    
   172   86  209 1    
   173   87   88 2    
   174   87   89 am   BACKBONE|DICT|INTERRES
   175   89   90 1    
   176   89  210 1    
   177   90   91 1    
   178   90   92 1    
   179   90  211 1    
   180   91  212 1    
   181   91  213 1    
   182   91  214 1    
   183   92   93 2    
   184   92   94 am   BACKBONE|DICT|INTERRES
   185   94   95 1    
   186   94  215 1    
   187   95   96 1    
   188   95   97 1    
   189   95  216 1    
   190   96  217 1    
   191   96  218 1    
   192   96  219 1    
   193   97   98 2    
   194   97   99 am   BACKBONE|DICT|INTERRES
   195   99  100 1    
   196   99  220 1    
   197  100  101 1    
   198  100  102 1    
   199  100  221 1    
   200  101  222 1    
   201  101  223 1    
   202  101  224 1    
   203  102  103 2    
   204  102  104 am   BACKBONE|DICT|INTERRES
   205  104  105 1    
   206  104  225 1    
   207  105  106 1    
   208  105  107 1    
   209  105  226 1    
   210  106  227 1    
   211  106  228 1    
   212  106  229 1    
   213  107  108 2    
   214  107  109 am   BACKBONE|DICT|INTERRES
   215  109  110 1    
   216  109  230 1    
   217  110  111 1    
   218  110  112 1    
   219  110  231 1    
   220  111  232 1    
   221  111  233 1    
   222  111  234 1    
   223  112  113 2    
   224  112  114 am   BACKBONE|DICT|INTERRES
   225  114  115 1    
   226  114  235 1    
   227  115  116 1    
   228  115  117 1    
   229  115  236 1    
   230  116  237 1    
   231  116  238 1    
   232  116  239 1    
   233  117  118 2    
   234  117  119 am   BACKBONE|DICT|INTERRES
   235  119  120 1    
   236  119  240 1    
   237  120  121 1    
   238  120  124 1    
   239  120  241 1    
   240  121  122 am   BACKBONE|DICT|INTERRES
   241  121  123 2    
   242  122  242 1    
   243  122  243 1    
   244  124  125 1    
   245  124  244 1    
   246  124  245 1    
   247  125  126 1    
   248  126  246 1    
   249  126  247 1    
@<TRIPOS>SUBSTRUCTURE
     1 UNK         1 GROUP             0       ****    0 ROOT    
