@<TRIPOS>MOLECULE
3R540
247   249    1
SMALL
USER_CHARGES


@<TRIPOS>ATOM
      1 CA          1.6030   -9.9640  -48.4176 C.3       0 UNK        -0.1800 
      2 C           0.7731  -11.1734  -48.0121 C.2       0 UNK         0.5000 
      3 O           1.1783  -12.3041  -48.2690 O.2       0 UNK        -0.5000 
      4 N          -0.3796  -10.9365  -47.3750 N.am      1 UNK        -0.5000 
      5 CA         -1.3158  -11.9677  -46.8998 C.3       1 UNK         0.1400 
      6 C6         -2.7627  -11.4154  -46.8060 C.3       23 UNK        -0.0398 
      7 S7         -3.3750  -10.7090  -48.3764 S.3       23 UNK        -0.2404 
      8 C8         -4.5760  -11.9647  -48.9193 C.3       23 UNK        -0.0205 
      9 C9         -3.8902  -13.2466  -49.3638 C.ar      23 UNK        -0.0193 
     10 C10        -3.3099  -13.3268  -50.6334 C.ar      23 UNK        -0.1150 
     11 C11        -2.6692  -14.4982  -51.0458 C.ar      23 UNK        -0.0193 
     12 C12        -2.6148  -15.5941  -50.1802 C.ar      23 UNK        -0.1150 
     13 C13        -3.2016  -15.5289  -48.9141 C.ar      23 UNK        -0.0193 
     14 C14        -3.8369  -14.3523  -48.5098 C.ar      23 UNK        -0.1150 
     15 C15        -3.1174  -16.7140  -47.9693 C.3       23 UNK        -0.0205 
     16 S16        -4.6118  -17.7438  -48.0173 S.3       23 UNK        -0.2404 
     17 C17        -4.4148  -18.7563  -46.5094 C.3       23 UNK        -0.0398 
     18 CA         -3.9912  -20.2189  -46.8097 C.3       11 UNK         0.1400 
     19 N          -2.5343  -20.3993  -46.8416 N.am      11 UNK        -0.5000 
     20 C          -1.9105  -21.5395  -47.1754 C.2       10 UNK         0.5000 
     21 O          -2.4950  -22.5421  -47.5848 O.2       10 UNK        -0.5000 
     22 CA         -0.3866  -21.5927  -46.9687 C.3       10 UNK         0.1400 
     23 CB          0.3618  -20.9470  -48.1443 C.3       10 UNK        -0.1800 
     24 N           0.0236  -20.9712  -45.7087 N.am      10 UNK        -0.5000 
     25 C          -0.2548  -21.4730  -44.4969 C.2       9 UNK         0.5000 
     26 O          -0.8500  -22.5349  -44.3212 O.2       9 UNK        -0.5000 
     27 CA          0.1655  -20.6346  -43.2756 C.3       9 UNK         0.1400 
     28 CB          1.6476  -20.8605  -42.9414 C.3       9 UNK        -0.1800 
     29 N          -0.0759  -19.2054  -43.4645 N.am      9 UNK        -0.5000 
     30 C          -1.2878  -18.6428  -43.5747 C.2       8 UNK         0.5000 
     31 O          -2.3463  -19.2637  -43.4828 O.2       8 UNK        -0.5000 
     32 CA         -1.3160  -17.1406  -43.9176 C.3       8 UNK         0.1400 
     33 CB         -1.2501  -16.2967  -42.6388 C.3       8 UNK        -0.1800 
     34 N          -0.2512  -16.7389  -44.8455 N.am      8 UNK        -0.5000 
     35 C          -0.0975  -17.2660  -46.0691 C.2       7 UNK         0.5000 
     36 O          -0.8006  -18.1729  -46.5082 O.2       7 UNK        -0.5000 
     37 CA          1.0592  -16.7432  -46.9259 C.3       7 UNK         0.1400 
     38 CB          0.7047  -15.4020  -47.5747 C.3       7 UNK        -0.1800 
     39 N           2.2889  -16.6075  -46.1547 N.am      7 UNK        -0.5000 
     40 C           3.0373  -17.6361  -45.7351 C.2       6 UNK         0.5000 
     41 O           2.7135  -18.8134  -45.9004 O.2       6 UNK        -0.5000 
     42 CA          4.3455  -17.3068  -44.9844 C.3       6 UNK         0.1400 
     43 CB          5.5313  -18.1588  -45.4798 C.3       6 UNK        -0.1800 
     44 N           4.6855  -15.8772  -44.9648 N.am      6 UNK        -0.5000 
     45 C           5.0405  -15.0821  -45.9887 C.2       5 UNK         0.5000 
     46 O           5.2044  -15.4836  -47.1406 O.2       5 UNK        -0.5000 
     47 CA          5.1979  -13.5749  -45.6910 C.3       5 UNK         0.1400 
     48 CB          4.2047  -12.7495  -46.5275 C.3       5 UNK        -0.1800 
     49 N           4.9761  -13.2612  -44.2789 N.am      5 UNK        -0.5000 
     50 C           5.9233  -13.2462  -43.3311 C.2       4 UNK         0.5000 
     51 O           7.1223  -13.4096  -43.5571 O.2       4 UNK        -0.5000 
     52 CA          5.4410  -13.0485  -41.8790 C.3       4 UNK         0.1400 
     53 CB          5.5157  -11.5653  -41.4861 C.3       4 UNK        -0.1800 
     54 N           4.0749  -13.5320  -41.6534 N.am      4 UNK        -0.5000 
     55 C           3.6853  -14.8128  -41.7395 C.2       3 UNK         0.5000 
     56 O           4.4555  -15.7436  -41.9690 O.2       3 UNK        -0.5000 
     57 CA          2.1768  -15.0959  -41.6157 C.3       3 UNK         0.1400 
     58 CB          1.8152  -15.4539  -40.1665 C.3       3 UNK        -0.1800 
     59 N           1.3534  -13.9666  -42.0568 N.am      3 UNK        -0.5000 
     60 C           1.2515  -13.5413  -43.3233 C.2       2 UNK         0.5000 
     61 O           1.7660  -14.1229  -44.2825 O.2       2 UNK        -0.5000 
     62 CA          0.5225  -12.1973  -43.5047 C.3       2 UNK         0.1400 
     63 CB          1.4404  -11.0438  -43.0651 C.3       2 UNK        -0.1800 
     64 N           0.0847  -11.9256  -44.8718 N.am      2 UNK        -0.5000 
     65 C          -0.8966  -12.5565  -45.5304 C.2       1 UNK         0.5000 
     66 O          -1.4999  -13.5309  -45.0803 O.2       1 UNK        -0.5000 
     67 C          -4.6547  -21.2076  -45.8266 C.2       11 UNK         0.5000 
     68 O          -5.5972  -21.8998  -46.2172 O.2       11 UNK        -0.5000 
     69 N          -4.1223  -21.2898  -44.5965 N.am      12 UNK        -0.5000 
     70 CA         -4.5752  -22.2059  -43.5455 C.3       12 UNK         0.1400 
     71 CB         -3.8201  -21.9123  -42.2409 C.3       12 UNK        -0.1800 
     72 C          -4.4431  -23.6925  -43.9259 C.2       12 UNK         0.5000 
     73 O          -5.3222  -24.4841  -43.5839 O.2       12 UNK        -0.5000 
     74 N          -3.3915  -24.0402  -44.6794 N.am      13 UNK        -0.5000 
     75 CA         -3.1449  -25.3629  -45.2605 C.3       13 UNK         0.1400 
     76 CB         -1.6428  -25.4966  -45.5697 C.3       13 UNK        -0.1800 
     77 C          -4.0268  -25.6523  -46.4979 C.2       13 UNK         0.5000 
     78 O          -3.5276  -26.1581  -47.5046 O.2       13 UNK        -0.5000 
     79 N          -5.3237  -25.3251  -46.4025 N.am      14 UNK        -0.5000 
     80 CA         -6.3786  -25.5169  -47.4024 C.3       14 UNK         0.1400 
     81 CB         -6.7374  -27.0138  -47.5084 C.3       14 UNK        -0.1800 
     82 C          -6.0422  -24.8857  -48.7691 C.2       14 UNK         0.5000 
     83 O          -6.2219  -25.5312  -49.8028 O.2       14 UNK        -0.5000 
     84 N          -5.5256  -23.6472  -48.7428 N.am      15 UNK        -0.5000 
     85 CA         -5.0342  -22.8850  -49.8973 C.3       15 UNK         0.1400 
     86 CB         -6.2063  -22.4448  -50.7980 C.3       15 UNK        -0.1800 
     87 C          -3.9353  -23.6481  -50.6650 C.2       15 UNK         0.5000 
     88 O          -4.0762  -23.9068  -51.8618 O.2       15 UNK        -0.5000 
     89 N          -2.8833  -24.0293  -49.9284 N.am      16 UNK        -0.5000 
     90 CA         -1.7411  -24.8432  -50.3508 C.3       16 UNK         0.1400 
     91 CB         -0.8377  -24.0396  -51.3087 C.3       16 UNK        -0.1800 
     92 C          -2.1728  -26.2077  -50.9264 C.2       16 UNK         0.5000 
     93 O          -1.7322  -26.5879  -52.0105 O.2       16 UNK        -0.5000 
     94 N          -3.0671  -26.8992  -50.2050 N.am      17 UNK        -0.5000 
     95 CA         -3.7238  -28.1554  -50.5867 C.3       17 UNK         0.1400 
     96 CB         -2.7195  -29.3253  -50.5452 C.3       17 UNK        -0.1800 
     97 C          -4.4724  -28.0424  -51.9340 C.2       17 UNK         0.5000 
     98 O          -4.3256  -28.8996  -52.8072 O.2       17 UNK        -0.5000 
     99 N          -5.2398  -26.9531  -52.0729 N.am      18 UNK        -0.5000 
    100 CA        -6.0282  -26.5349  -53.2347 C.3       18 UNK         0.1400 
    101 CB        -7.1305  -27.5661  -53.5543 C.3       18 UNK        -0.1800 
    102 C         -5.2020  -26.1443  -54.4811 C.2       18 UNK         0.5000 
    103 O         -5.7818  -25.9935  -55.5581 O.2       18 UNK        -0.5000 
    104 N         -3.8836  -25.9445  -54.3332 N.am      19 UNK        -0.5000 
    105 CA        -3.0015  -25.4533  -55.3990 C.3       19 UNK         0.1400 
    106 CB        -1.5577  -25.8915  -55.1105 C.3       19 UNK        -0.1800 
    107 C         -3.0689  -23.9223  -55.5837 C.2       19 UNK         0.5000 
    108 O         -2.5524  -23.4241  -56.5845 O.2       19 UNK        -0.5000 
    109 N         -3.6986  -23.2279  -54.6241 N.am      20 UNK        -0.5000 
    110 CA        -3.8035  -21.7828  -54.4222 C.3       20 UNK         0.1400 
    111 CB        -4.1503  -20.9991  -55.7033 C.3       20 UNK        -0.1800 
    112 C         -2.5423  -21.2436  -53.7313 C.2       20 UNK         0.5000 
    113 O         -1.4334  -21.3882  -54.2507 O.2       20 UNK        -0.5000 
    114 N         -2.7423  -20.6072  -52.5692 N.am      21 UNK        -0.5000 
    115 CA        -1.6874  -20.0608  -51.7092 C.3       21 UNK         0.1400 
    116 CB        -2.3228  -19.5723  -50.4000 C.3       21 UNK        -0.1800 
    117 C         -0.8576  -18.9378  -52.3608 C.2       21 UNK         0.5000 
    118 O          0.2870  -18.7224  -51.9621 O.2       21 UNK        -0.5000 
    119 N         -1.4429  -18.2598  -53.3547 N.am      22 UNK        -0.5000 
    120 CA        -0.7860  -17.2324  -54.1758 C.3       22 UNK         0.1400 
    121 C          0.1195  -17.8060  -55.3067 C.2       22 UNK         0.5000 
    122 N          0.1593  -19.1134  -55.5424 N.am      22 UNK        -0.7600 
    123 O          0.8085  -17.0468  -55.9824 O.2       22 UNK        -0.5000 
    124 C124       -1.7947  -16.1927  -54.7417 C.3       23 UNK        -0.0398 
    125 S125       -3.0378  -15.6101  -53.5350 S.3       23 UNK        -0.2404 
    126 C126       -2.0261  -14.5900  -52.4191 C.3       23 UNK        -0.0205 
    127 H127        1.1316   -9.0280  -48.1167 H         1 UNK         0.0600 
    128 H128        1.7348   -9.9462  -49.4994 H         1 UNK         0.0600 
    129 H129        2.5882  -10.0139  -47.9539 H         1 UNK         0.0600 
    130 H130       -0.6711   -9.9818  -47.2196 H         1 UNK         0.3000 
    131 H131       -1.3169  -12.7941  -47.6142 H         1 UNK         0.0600 
    132 H132       -3.4506  -12.1944  -46.4736 H         1 UNK         0.0800 
    133 H133       -2.8192  -10.6298  -46.0503 H         1 UNK         0.0800 
    134 H134       -5.2912  -12.1624  -48.1193 H         1 UNK         0.0800 
    135 H135       -5.1561  -11.5598  -49.7498 H         1 UNK         0.0800 
    136 H136       -3.3520  -12.4735  -51.2959 H         1 UNK         0.1150 
    137 H137       -2.1156  -16.4987  -50.4978 H         1 UNK         0.1150 
    138 H138       -4.2852  -14.2991  -47.5277 H         1 UNK         0.1150 
    139 H139       -2.2720  -17.3357  -48.2558 H         1 UNK         0.0800 
    140 H140       -2.9322  -16.3586  -46.9547 H         1 UNK         0.0800 
    141 H141       -5.3852  -18.7212  -46.0099 H         1 UNK         0.0800 
    142 H142       -3.7188  -18.2838  -45.8162 H         1 UNK         0.0800 
    143 H143       -4.3667  -20.4819  -47.7989 H         1 UNK         0.0600 
    144 H144       -1.9626  -19.6041  -46.5647 H         1 UNK         0.3000 
    145 H145       -0.0985  -22.6453  -46.9321 H         1 UNK         0.0600 
    146 H146        1.4399  -21.0654  -48.0349 H         1 UNK         0.0600 
    147 H147        0.0775  -21.4104  -49.0894 H         1 UNK         0.0600 
    148 H148        0.1534  -19.8812  -48.2268 H         1 UNK         0.0600 
    149 H149        0.4882  -20.0754  -45.7746 H         1 UNK         0.3000 
    150 H150       -0.4299  -20.9669  -42.4227 H         1 UNK         0.0600 
    151 H151        1.8505  -21.9183  -42.7688 H         1 UNK         0.0600 
    152 H152        1.9348  -20.3235  -42.0372 H         1 UNK         0.0600 
    153 H153        2.3000  -20.5297  -43.7503 H         1 UNK         0.0600 
    154 H154        0.7357  -18.6212  -43.5959 H         1 UNK         0.3000 
    155 H155       -2.2682  -16.9302  -44.4078 H         1 UNK         0.0600 
    156 H156       -2.0874  -16.5273  -41.9790 H         1 UNK         0.0600 
    157 H157       -1.2996  -15.2313  -42.8622 H         1 UNK         0.0600 
    158 H158       -0.3358  -16.4885  -42.0806 H         1 UNK         0.0600 
    159 H159        0.3542  -15.9784  -44.5654 H         1 UNK         0.3000 
    160 H160        1.2315  -17.4666  -47.7260 H         1 UNK         0.0600 
    161 H161        0.6111  -14.6133  -46.8299 H         1 UNK         0.0600 
    162 H162       -0.2386  -15.4587  -48.1190 H         1 UNK         0.0600 
    163 H163        1.4724  -15.0961  -48.2856 H         1 UNK         0.0600 
    164 H164        2.5784  -15.6680  -45.9189 H         1 UNK         0.3000 
    165 H165        4.1625  -17.5827  -43.9454 H         1 UNK         0.0600 
    166 H166        5.7259  -18.0087  -46.5418 H         1 UNK         0.0600 
    167 H167        6.4436  -17.9208  -44.9328 H         1 UNK         0.0600 
    168 H168        5.3354  -19.2218  -45.3343 H         1 UNK         0.0600 
    169 H169        4.6103  -15.4504  -44.0499 H         1 UNK         0.3000 
    170 H170        6.2105  -13.2862  -45.9799 H         1 UNK         0.0600 
    171 H171        4.3623  -12.9063  -47.5953 H         1 UNK         0.0600 
    172 H172        3.1703  -13.0180  -46.3099 H         1 UNK         0.0600 
    173 H173        4.3194  -11.6821  -46.3383 H         1 UNK         0.0600 
    174 H174        4.0128  -13.1390  -44.0014 H         1 UNK         0.3000 
    175 H175        6.1119  -13.6126  -41.2277 H         1 UNK         0.0600 
    176 H176        4.8463  -10.9534  -42.0922 H         1 UNK         0.0600 
    177 H177        5.2487  -11.4202  -40.4391 H         1 UNK         0.0600 
    178 H178        6.5263  -11.1765  -41.6189 H         1 UNK         0.0600 
    179 H179        3.3786  -12.8329  -41.4440 H         1 UNK         0.3000 
    180 H180        1.9543  -15.9549  -42.2518 H         1 UNK         0.0600 
    181 H181        2.0310  -14.6320  -39.4827 H         1 UNK         0.0600 
    182 H182        2.3827  -16.3212  -39.8262 H         1 UNK         0.0600 
    183 H183        0.7581  -15.7005  -40.0682 H         1 UNK         0.0600 
    184 H184        0.8972  -13.4383  -41.3265 H         1 UNK         0.3000 
    185 H185       -0.3638  -12.2046  -42.8669 H         1 UNK         0.0600 
    186 H186        1.7467  -11.1500  -42.0239 H         1 UNK         0.0600 
    187 H187        2.3464  -10.9969  -43.6714 H         1 UNK         0.0600 
    188 H188        0.9328  -10.0825  -43.1493 H         1 UNK         0.0600 
    189 H189        0.5426  -11.1613  -45.3445 H         1 UNK         0.3000 
    190 H190       -3.3644  -20.6616  -44.3430 H         1 UNK         0.3000 
    191 H191       -5.6349  -22.0068  -43.3740 H         1 UNK         0.0600 
    192 H192       -2.7456  -22.0540  -42.3574 H         1 UNK         0.0600 
    193 H193       -3.9890  -20.8877  -41.9096 H         1 UNK         0.0600 
    194 H194       -4.1536  -22.5716  -41.4385 H         1 UNK         0.0600 
    195 H195       -2.6956  -23.3316  -44.8836 H         1 UNK         0.3000 
    196 H196       -3.3952  -26.1183  -44.5132 H         1 UNK         0.0600 
    197 H197       -1.0398  -25.3265  -44.6777 H         1 UNK         0.0600 
    198 H198       -1.3261  -24.7817  -46.3295 H         1 UNK         0.0600 
    199 H199       -1.4022  -26.4954  -45.9356 H         1 UNK         0.0600 
    200 H200       -5.6216  -24.9158  -45.5234 H         1 UNK         0.3000 
    201 H201       -7.2579  -24.9890  -47.0310 H         1 UNK         0.0600 
    202 H202       -7.5850  -27.1685  -48.1772 H         1 UNK         0.0600 
    203 H203       -7.0146  -27.4216  -46.5364 H         1 UNK         0.0600 
    204 H204       -5.9043  -27.6027  -47.8926 H         1 UNK         0.0600 
    205 H205       -5.4084  -23.2029  -47.8378 H         1 UNK         0.3000 
    206 H206       -4.5663  -21.9845  -49.5035 H         1 UNK         0.0600 
    207 H207       -6.9530  -21.8920  -50.2281 H         1 UNK         0.0600 
    208 H208       -6.7039  -23.2953  -51.2651 H         1 UNK         0.0600 
    209 H209       -5.8596  -21.7901  -51.5973 H         1 UNK         0.0600 
    210 H210       -2.8640  -23.7316  -48.9550 H         1 UNK         0.3000 
    211 H211       -1.1645  -25.0582  -49.4500 H         1 UNK         0.0600 
    212 H212       -0.4945  -23.1184  -50.8404 H         1 UNK         0.0600 
    213 H213        0.0496  -24.6110  -51.5834 H         1 UNK         0.0600 
    214 H214       -1.3556  -23.7757  -52.2313 H         1 UNK         0.0600 
    215 H215       -3.3466  -26.5162  -49.3029 H         1 UNK         0.3000 
    216 H216       -4.4846  -28.3458  -49.8287 H         1 UNK         0.0600 
    217 H217       -3.2218  -30.2772  -50.7208 H         1 UNK         0.0600 
    218 H218       -1.9426  -29.2204  -51.3032 H         1 UNK         0.0600 
    219 H219       -2.2322  -29.3905  -49.5724 H         1 UNK         0.0600 
    220 H220       -5.3172  -26.3285  -51.2728 H         1 UNK         0.3000 
    221 H221       -6.5269  -25.6167  -52.9209 H         1 UNK         0.0600 
    222 H222       -6.7162  -28.4941  -53.9488 H         1 UNK         0.0600 
    223 H223       -7.7131  -27.8082  -52.6654 H         1 UNK         0.0600 
    224 H224       -7.8264  -27.1785  -54.2991 H         1 UNK         0.0600 
    225 H225       -3.4641  -26.0825  -53.4213 H         1 UNK         0.3000 
    226 H226       -3.3045  -25.9119  -56.3425 H         1 UNK         0.0600 
    227 H227       -1.4967  -26.9628  -54.9178 H         1 UNK         0.0600 
    228 H228       -0.9094  -25.6755  -55.9604 H         1 UNK         0.0600 
    229 H229       -1.1444  -25.3678  -54.2483 H         1 UNK         0.0600 
    230 H230       -4.0028  -23.7635  -53.8155 H         1 UNK         0.3000 
    231 H231       -4.6450  -21.6590  -53.7395 H         1 UNK         0.0600 
    232 H232       -4.4108  -19.9678  -55.4635 H         1 UNK         0.0600 
    233 H233       -5.0035  -21.4397  -56.2191 H         1 UNK         0.0600 
    234 H234       -3.3140  -20.9619  -56.4019 H         1 UNK         0.0600 
    235 H235       -3.6866  -20.5019  -52.2300 H         1 UNK         0.3000 
    236 H236       -0.9969  -20.8718  -51.4730 H         1 UNK         0.0600 
    237 H237       -2.7949  -20.3930  -49.8625 H         1 UNK         0.0600 
    238 H238       -1.5740  -19.1401  -49.7360 H         1 UNK         0.0600 
    239 H239       -3.0800  -18.8085  -50.5804 H         1 UNK         0.0600 
    240 H240       -2.3910  -18.4930  -53.6072 H         1 UNK         0.3000 
    241 H241       -0.1006  -16.6892  -53.5241 H         1 UNK         0.0600 
    242 H242        0.7550  -19.4617  -56.2766 H         1 UNK         0.3800 
    243 H243       -0.3926  -19.7680  -54.9992 H         1 UNK         0.3800 
    244 H244       -1.2645  -15.3262  -55.1408 H         1 UNK         0.0800 
    245 H245       -2.3429  -16.6233  -55.5815 H         1 UNK         0.0800 
    246 H246       -1.8921  -13.5997  -52.8569 H         1 UNK         0.0800 
    247 H247       -1.0290  -15.0149  -52.3065 H         1 UNK         0.0800 
@<TRIPOS>BOND
     1    1    2 1    
     2    1  127 1    
     3    1  128 1    
     4    1  129 1    
     5    2    3 2    
     6    2    4 am   BACKBONE|DICT|INTERRES
     7    4    5 1    
     8    4  130 1    
     9    5    6 1    
    10    5   65 1    
    11    5  131 1    
    12    6    7 1    
    13    6  132 1    
    14    6  133 1    
    15    7    8 1    
    16    8    9 1    
    17    8  134 1    
    18    8  135 1    
    19    9   10 ar   
    20    9   14 ar   
    21   10   11 ar   
    22   10  136 1    
    23   11   12 ar   
    24   11  126 1    
    25   12   13 ar   
    26   12  137 1    
    27   13   14 ar   
    28   13   15 1    
    29   14  138 1    
    30   15   16 1    
    31   15  139 1    
    32   15  140 1    
    33   16   17 1    
    34   17   18 1    
    35   17  141 1    
    36   17  142 1    
    37   18   19 1    
    38   18   67 1    
    39   18  143 1    
    40   19   20 am   BACKBONE|DICT|INTERRES
    41   19  144 1    
    42   20   21 2    
    43   20   22 1    
    44   22   23 1    
    45   22   24 1    
    46   22  145 1    
    47   23  146 1    
    48   23  147 1    
    49   23  148 1    
    50   24   25 am   BACKBONE|DICT|INTERRES
    51   24  149 1    
    52   25   26 2    
    53   25   27 1    
    54   27   28 1    
    55   27   29 1    
    56   27  150 1    
    57   28  151 1    
    58   28  152 1    
    59   28  153 1    
    60   29   30 am   BACKBONE|DICT|INTERRES
    61   29  154 1    
    62   30   31 2    
    63   30   32 1    
    64   32   33 1    
    65   32   34 1    
    66   32  155 1    
    67   33  156 1    
    68   33  157 1    
    69   33  158 1    
    70   34   35 am   BACKBONE|DICT|INTERRES
    71   34  159 1    
    72   35   36 2    
    73   35   37 1    
    74   37   38 1    
    75   37   39 1    
    76   37  160 1    
    77   38  161 1    
    78   38  162 1    
    79   38  163 1    
    80   39   40 am   BACKBONE|DICT|INTERRES
    81   39  164 1    
    82   40   41 2    
    83   40   42 1    
    84   42   43 1    
    85   42   44 1    
    86   42  165 1    
    87   43  166 1    
    88   43  167 1    
    89   43  168 1    
    90   44   45 am   BACKBONE|DICT|INTERRES
    91   44  169 1    
    92   45   46 2    
    93   45   47 1    
    94   47   48 1    
    95   47   49 1    
    96   47  170 1    
    97   48  171 1    
    98   48  172 1    
    99   48  173 1    
   100   49   50 am   BACKBONE|DICT|INTERRES
   101   49  174 1    
   102   50   51 2    
   103   50   52 1    
   104   52   53 1    
   105   52   54 1    
   106   52  175 1    
   107   53  176 1    
   108   53  177 1    
   109   53  178 1    
   110   54   55 am   BACKBONE|DICT|INTERRES
   111   54  179 1    
   112   55   56 2    
   113   55   57 1    
   114   57   58 1    
   115   57   59 1    
   116   57  180 1    
   117   58  181 1    
   118   58  182 1    
   119   58  183 1    
   120   59   60 am   BACKBONE|DICT|INTERRES
   121   59  184 1    
   122   60   61 2    
   123   60   62 1    
   124   62   63 1    
   125   62   64 1    
   126   62  185 1    
   127   63  186 1    
   128   63  187 1    
   129   63  188 1    
   130   64   65 am   BACKBONE|DICT|INTERRES
   131   64  189 1    
   132   65   66 2    
   133   67   68 2    
   134   67   69 am   BACKBONE|DICT|INTERRES
   135   69   70 1    
   136   69  190 1    
   137   70   71 1    
   138   70   72 1    
   139   70  191 1    
   140   71  192 1    
   141   71  193 1    
   142   71  194 1    
   143   72   73 2    
   144   72   74 am   BACKBONE|DICT|INTERRES
   145   74   75 1    
   146   74  195 1    
   147   75   76 1    
   148   75   77 1    
   149   75  196 1    
   150   76  197 1    
   151   76  198 1    
   152   76  199 1    
   153   77   78 2    
   154   77   79 am   BACKBONE|DICT|INTERRES
   155   79   80 1    
   156   79  200 1    
   157   80   81 1    
   158   80   82 1    
   159   80  201 1    
   160   81  202 1    
   161   81  203 1    
   162   81  204 1    
   163   82   83 2    
   164   82   84 am   BACKBONE|DICT|INTERRES
   165   84   85 1    
   166   84  205 1    
   167   85   86 1    
   168   85   87 1    
   169   85  206 1    
   170   86  207 1    
   171   86  208 1    
   172   86  209 1    
   173   87   88 2    
   174   87   89 am   BACKBONE|DICT|INTERRES
   175   89   90 1    
   176   89  210 1    
   177   90   91 1    
   178   90   92 1    
   179   90  211 1    
   180   91  212 1    
   181   91  213 1    
   182   91  214 1    
   183   92   93 2    
   184   92   94 am   BACKBONE|DICT|INTERRES
   185   94   95 1    
   186   94  215 1    
   187   95   96 1    
   188   95   97 1    
   189   95  216 1    
   190   96  217 1    
   191   96  218 1    
   192   96  219 1    
   193   97   98 2    
   194   97   99 am   BACKBONE|DICT|INTERRES
   195   99  100 1    
   196   99  220 1    
   197  100  101 1    
   198  100  102 1    
   199  100  221 1    
   200  101  222 1    
   201  101  223 1    
   202  101  224 1    
   203  102  103 2    
   204  102  104 am   BACKBONE|DICT|INTERRES
   205  104  105 1    
   206  104  225 1    
   207  105  106 1    
   208  105  107 1    
   209  105  226 1    
   210  106  227 1    
   211  106  228 1    
   212  106  229 1    
   213  107  108 2    
   214  107  109 am   BACKBONE|DICT|INTERRES
   215  109  110 1    
   216  109  230 1    
   217  110  111 1    
   218  110  112 1    
   219  110  231 1    
   220  111  232 1    
   221  111  233 1    
   222  111  234 1    
   223  112  113 2    
   224  112  114 am   BACKBONE|DICT|INTERRES
   225  114  115 1    
   226  114  235 1    
   227  115  116 1    
   228  115  117 1    
   229  115  236 1    
   230  116  237 1    
   231  116  238 1    
   232  116  239 1    
   233  117  118 2    
   234  117  119 am   BACKBONE|DICT|INTERRES
   235  119  120 1    
   236  119  240 1    
   237  120  121 1    
   238  120  124 1    
   239  120  241 1    
   240  121  122 am   BACKBONE|DICT|INTERRES
   241  121  123 2    
   242  122  242 1    
   243  122  243 1    
   244  124  125 1    
   245  124  244 1    
   246  124  245 1    
   247  125  126 1    
   248  126  246 1    
   249  126  247 1    
@<TRIPOS>SUBSTRUCTURE
     1 UNK         1 GROUP             0       ****    0 ROOT    
