@<TRIPOS>MOLECULE
3R540
247   249    1
SMALL
USER_CHARGES


@<TRIPOS>ATOM
      1 CA          0.6155  -16.5336  -48.6977 C.3       0 UNK        -0.1800 
      2 C           0.0795  -15.5948  -47.6298 C.2       0 UNK         0.5000 
      3 O           0.5547  -14.4669  -47.5096 O.2       0 UNK        -0.5000 
      4 N          -0.9228  -16.0434  -46.8643 N.am      1 UNK        -0.5000 
      5 CA         -1.5235  -15.2948  -45.7531 C.3       1 UNK         0.1400 
      6 C6         -2.3791  -16.1987  -44.8320 C.3       23 UNK        -0.0398 
      7 S7         -1.3208  -17.3104  -43.8473 S.3       23 UNK        -0.2404 
      8 C8         -1.9475  -18.9672  -44.2575 C.3       23 UNK        -0.0205 
      9 C9         -1.7548  -19.3255  -45.7235 C.ar      23 UNK        -0.0193 
     10 C10        -2.8595  -19.4537  -46.5685 C.ar      23 UNK        -0.1150 
     11 C11        -2.6901  -19.7832  -47.9169 C.ar      23 UNK        -0.0193 
     12 C12        -1.3995  -19.9814  -48.4140 C.ar      23 UNK        -0.1150 
     13 C13        -0.2851  -19.8534  -47.5820 C.ar      23 UNK        -0.0193 
     14 C14        -0.4736  -19.5487  -46.2315 C.ar      23 UNK        -0.1150 
     15 C15         1.1195  -19.9906  -48.1547 C.3       23 UNK        -0.0205 
     16 S16         1.5935  -21.7111  -48.4893 S.3       23 UNK        -0.2404 
     17 C17         1.6995  -22.3987  -46.8027 C.3       23 UNK        -0.0398 
     18 CA          0.9076  -23.7131  -46.6056 C.3       11 UNK         0.1400 
     19 N           1.1427  -24.2790  -45.2765 N.am      11 UNK        -0.5000 
     20 C           0.8342  -25.5324  -44.9135 C.2       10 UNK         0.5000 
     21 O           0.3574  -26.3689  -45.6796 O.2       10 UNK        -0.5000 
     22 CA          1.0457  -25.8919  -43.4305 C.3       10 UNK         0.1400 
     23 CB          2.4855  -26.3694  -43.1913 C.3       10 UNK        -0.1800 
     24 N           0.7522  -24.7720  -42.5338 N.am      10 UNK        -0.5000 
     25 C          -0.4566  -24.2093  -42.3907 C.2       9 UNK         0.5000 
     26 O          -1.4690  -24.6327  -42.9473 O.2       9 UNK        -0.5000 
     27 CA         -0.5396  -22.9361  -41.5251 C.3       9 UNK         0.1400 
     28 CB         -0.9709  -23.2864  -40.0938 C.3       9 UNK        -0.1800 
     29 N           0.7186  -22.1823  -41.4815 N.am      9 UNK        -0.5000 
     30 C           1.2634  -21.5542  -42.5320 C.2       8 UNK         0.5000 
     31 O           0.7538  -21.5375  -43.6538 O.2       8 UNK        -0.5000 
     32 CA          2.6539  -20.9316  -42.3091 C.3       8 UNK         0.1400 
     33 CB          3.7437  -21.9387  -42.7102 C.3       8 UNK        -0.1800 
     34 N           2.8576  -19.6952  -43.0658 N.am      8 UNK        -0.5000 
     35 C           2.2430  -18.5345  -42.8077 C.2       7 UNK         0.5000 
     36 O           1.4249  -18.3855  -41.8948 O.2       7 UNK        -0.5000 
     37 CA          2.6465  -17.3286  -43.6786 C.3       7 UNK         0.1400 
     38 CB          2.3667  -17.5559  -45.1791 C.3       7 UNK        -0.1800 
     39 N           1.9337  -16.1507  -43.1942 N.am      7 UNK        -0.5000 
     40 C           2.1211  -14.8873  -43.5799 C.2       6 UNK         0.5000 
     41 O           2.9603  -14.5327  -44.4111 O.2       6 UNK        -0.5000 
     42 CA          1.2313  -13.8337  -42.9094 C.3       6 UNK         0.1400 
     43 CB          1.9257  -13.2529  -41.6627 C.3       6 UNK        -0.1800 
     44 N           0.9628  -12.7897  -43.8900 N.am      6 UNK        -0.5000 
     45 C           0.0585  -11.8101  -43.7930 C.2       5 UNK         0.5000 
     46 O          -0.6578  -11.6496  -42.8037 O.2       5 UNK        -0.5000 
     47 CA         -0.1138  -10.8657  -45.0042 C.3       5 UNK         0.1400 
     48 CB          0.0910   -9.3880  -44.6130 C.3       5 UNK        -0.1800 
     49 N           0.6827  -11.2226  -46.1875 N.am      5 UNK        -0.5000 
     50 C           2.0096  -11.1382  -46.3696 C.2       4 UNK         0.5000 
     51 O           2.7930  -10.7204  -45.5171 O.2       4 UNK        -0.5000 
     52 CA          2.5601  -11.6216  -47.7258 C.3       4 UNK         0.1400 
     53 CB          3.5512  -12.7816  -47.5322 C.3       4 UNK        -0.1800 
     54 N           1.4899  -12.0688  -48.6206 N.am      4 UNK        -0.5000 
     55 C           1.0269  -11.3830  -49.6721 C.2       3 UNK         0.5000 
     56 O           1.4721  -10.2925  -50.0321 O.2       3 UNK        -0.5000 
     57 CA         -0.1417  -12.0180  -50.4484 C.3       3 UNK         0.1400 
     58 CB          0.3726  -13.1194  -51.3876 C.3       3 UNK        -0.1800 
     59 N          -1.1965  -12.5629  -49.5889 N.am      3 UNK        -0.5000 
     60 C          -1.9883  -11.8291  -48.7919 C.2       2 UNK         0.5000 
     61 O          -1.8698  -10.6128  -48.6458 O.2       2 UNK        -0.5000 
     62 CA         -3.0850  -12.5707  -48.0107 C.3       2 UNK         0.1400 
     63 CB         -4.3104  -12.8273  -48.8978 C.3       2 UNK        -0.1800 
     64 N          -2.5749  -13.8338  -47.4723 N.am      2 UNK        -0.5000 
     65 C          -2.2949  -14.0234  -46.1750 C.2       1 UNK         0.5000 
     66 O          -2.5971  -13.2134  -45.2989 O.2       1 UNK        -0.5000 
     67 C          -0.6028  -23.5613  -46.8845 C.2       11 UNK         0.5000 
     68 O          -1.0358  -23.8596  -47.9979 O.2       11 UNK        -0.5000 
     69 N          -1.3796  -23.1710  -45.8617 N.am      12 UNK        -0.5000 
     70 CA         -2.8411  -23.0936  -45.9199 C.3       12 UNK         0.1400 
     71 CB         -3.3869  -22.4153  -44.6529 C.3       12 UNK        -0.1800 
     72 C          -3.4871  -24.4779  -46.0944 C.2       12 UNK         0.5000 
     73 O          -4.3824  -24.6298  -46.9250 O.2       12 UNK        -0.5000 
     74 N          -3.0034  -25.4601  -45.3202 N.am      13 UNK        -0.5000 
     75 CA         -3.4569  -26.8508  -45.3473 C.3       13 UNK         0.1400 
     76 CB         -2.8167  -27.6176  -44.1802 C.3       13 UNK        -0.1800 
     77 C          -3.1657  -27.5496  -46.6877 C.2       13 UNK         0.5000 
     78 O          -4.0312  -28.2568  -47.2052 O.2       13 UNK        -0.5000 
     79 N          -1.9637  -27.3230  -47.2339 N.am      14 UNK        -0.5000 
     80 CA         -1.5412  -27.8345  -48.5383 C.3       14 UNK         0.1400 
     81 CB         -0.0083  -27.7647  -48.6221 C.3       14 UNK        -0.1800 
     82 C          -2.1661  -27.0740  -49.7242 C.2       14 UNK         0.5000 
     83 O          -2.2332  -27.6291  -50.8214 O.2       14 UNK        -0.5000 
     84 N          -2.5669  -25.8145  -49.4903 N.am      15 UNK        -0.5000 
     85 CA         -2.9653  -24.8017  -50.4749 C.3       15 UNK         0.1400 
     86 CB         -4.2874  -25.1843  -51.1703 C.3       15 UNK        -0.1800 
     87 C          -1.8191  -24.4956  -51.4628 C.2       15 UNK         0.5000 
     88 O          -2.0467  -24.3494  -52.6650 O.2       15 UNK        -0.5000 
     89 N          -0.5896  -24.4285  -50.9318 N.am      16 UNK        -0.5000 
     90 CA          0.6583  -24.3893  -51.7007 C.3       16 UNK         0.1400 
     91 CB          1.8343  -24.7631  -50.7857 C.3       16 UNK        -0.1800 
     92 C           0.9103  -23.0706  -52.4598 C.2       16 UNK         0.5000 
     93 O           1.7683  -23.0422  -53.3429 O.2       16 UNK        -0.5000 
     94 N           0.1339  -22.0214  -52.1532 N.am      17 UNK        -0.5000 
     95 CA          0.0678  -20.7834  -52.9364 C.3       17 UNK         0.1400 
     96 CB         -0.5904  -19.6800  -52.0926 C.3       17 UNK        -0.1800 
     97 C          -0.6849  -20.9475  -54.2746 C.2       17 UNK         0.5000 
     98 O          -0.6195  -20.0428  -55.1077 O.2       17 UNK        -0.5000 
     99 N          -1.4086  -22.0660  -54.4481 N.am      18 UNK        -0.5000 
    100 CA        -2.2466  -22.4703  -55.5849 C.3       18 UNK         0.1400 
    101 CB        -1.4453  -22.5257  -56.8995 C.3       18 UNK        -0.1800 
    102 C         -3.5343  -21.6398  -55.7402 C.2       18 UNK         0.5000 
    103 O         -4.6009  -22.2148  -55.9615 O.2       18 UNK        -0.5000 
    104 N         -3.4266  -20.3141  -55.6015 N.am      19 UNK        -0.5000 
    105 CA        -4.5453  -19.3812  -55.5484 C.3       19 UNK         0.1400 
    106 CB        -4.0157  -17.9487  -55.7202 C.3       19 UNK        -0.1800 
    107 C         -5.2972  -19.5234  -54.2150 C.2       19 UNK         0.5000 
    108 O         -4.6873  -19.3740  -53.1533 O.2       19 UNK        -0.5000 
    109 N         -6.6125  -19.7636  -54.2919 N.am      20 UNK        -0.5000 
    110 CA        -7.5109  -19.9099  -53.1398 C.3       20 UNK         0.1400 
    111 CB        -8.8759  -20.4124  -53.6348 C.3       20 UNK        -0.1800 
    112 C         -7.6772  -18.6200  -52.3096 C.2       20 UNK         0.5000 
    113 O         -8.0902  -18.6908  -51.1522 O.2       20 UNK        -0.5000 
    114 N         -7.3389  -17.4712  -52.9106 N.am      21 UNK        -0.5000 
    115 CA        -7.2756  -16.1635  -52.2609 C.3       21 UNK         0.1400 
    116 CB        -7.2512  -15.0777  -53.3486 C.3       21 UNK        -0.1800 
    117 C         -6.0665  -16.0031  -51.3156 C.2       21 UNK         0.5000 
    118 O         -6.0754  -15.0766  -50.5065 O.2       21 UNK        -0.5000 
    119 N         -5.0586  -16.8831  -51.4328 N.am      22 UNK        -0.5000 
    120 CA        -3.8178  -16.8942  -50.6343 C.3       22 UNK         0.1400 
    121 C         -2.8653  -15.6934  -50.9191 C.2       22 UNK         0.5000 
    122 N         -2.9123  -15.0939  -52.1019 N.am      22 UNK        -0.7600 
    123 O         -2.0799  -15.2892  -50.0635 O.2       22 UNK        -0.5000 
    124 C124       -4.0566  -17.1082  -49.1125 C.3       23 UNK        -0.0398 
    125 S125       -5.0893  -18.5643  -48.7242 S.3       23 UNK        -0.2404 
    126 C126       -3.8910  -19.9354  -48.8435 C.3       23 UNK        -0.0205 
    127 H127        0.8505  -15.9801  -49.6057 H         1 UNK         0.0600 
    128 H128       -0.1172  -17.2972  -48.9567 H         1 UNK         0.0600 
    129 H129        1.5258  -17.0182  -48.3463 H         1 UNK         0.0600 
    130 H130       -1.2578  -16.9882  -46.9887 H         1 UNK         0.3000 
    131 H131       -0.6920  -14.9193  -45.1530 H         1 UNK         0.0600 
    132 H132       -3.1107  -16.7648  -45.4098 H         1 UNK         0.0800 
    133 H133       -2.9522  -15.6051  -44.1173 H         1 UNK         0.0800 
    134 H134       -1.4160  -19.6955  -43.6431 H         1 UNK         0.0800 
    135 H135       -2.9987  -19.0321  -43.9727 H         1 UNK         0.0800 
    136 H136       -3.8551  -19.3007  -46.1767 H         1 UNK         0.1150 
    137 H137       -1.2585  -20.2396  -49.4510 H         1 UNK         0.1150 
    138 H138        0.3746  -19.4775  -45.5680 H         1 UNK         0.1150 
    139 H139        1.1820  -19.4341  -49.0897 H         1 UNK         0.0800 
    140 H140        1.8553  -19.5399  -47.4888 H         1 UNK         0.0800 
    141 H141        1.3782  -21.6491  -46.0831 H         1 UNK         0.0800 
    142 H142        2.7550  -22.5749  -46.5919 H         1 UNK         0.0800 
    143 H143        1.2907  -24.4335  -47.3320 H         1 UNK         0.0600 
    144 H144        1.4698  -23.6370  -44.5690 H         1 UNK         0.3000 
    145 H145        0.3662  -26.7105  -43.1849 H         1 UNK         0.0600 
    146 H146        3.2120  -25.5820  -43.3968 H         1 UNK         0.0600 
    147 H147        2.6265  -26.6964  -42.1610 H         1 UNK         0.0600 
    148 H148        2.7274  -27.2159  -43.8356 H         1 UNK         0.0600 
    149 H149        1.5292  -24.3762  -42.0267 H         1 UNK         0.3000 
    150 H150       -1.3041  -22.2920  -41.9652 H         1 UNK         0.0600 
    151 H151       -0.2339  -23.9153  -39.5928 H         1 UNK         0.0600 
    152 H152       -1.9186  -23.8269  -40.0932 H         1 UNK         0.0600 
    153 H153       -1.1110  -22.3876  -39.4929 H         1 UNK         0.0600 
    154 H154        1.1997  -22.1637  -40.5936 H         1 UNK         0.3000 
    155 H155        2.7683  -20.7010  -41.2477 H         1 UNK         0.0600 
    156 H156        3.6868  -22.1939  -43.7694 H         1 UNK         0.0600 
    157 H157        3.6514  -22.8663  -42.1437 H         1 UNK         0.0600 
    158 H158        4.7397  -21.5408  -42.5147 H         1 UNK         0.0600 
    159 H159        3.5060  -19.7460  -43.8371 H         1 UNK         0.3000 
    160 H160        3.7168  -17.1704  -43.5340 H         1 UNK         0.0600 
    161 H161        1.3043  -17.4711  -45.4001 H         1 UNK         0.0600 
    162 H162        2.7085  -18.5343  -45.5150 H         1 UNK         0.0600 
    163 H163        2.8817  -16.8167  -45.7923 H         1 UNK         0.0600 
    164 H164        1.2437  -16.3748  -42.4860 H         1 UNK         0.3000 
    165 H165        0.2846  -14.2969  -42.6231 H         1 UNK         0.0600 
    166 H166        1.2854  -12.5437  -41.1388 H         1 UNK         0.0600 
    167 H167        2.1775  -14.0420  -40.9532 H         1 UNK         0.0600 
    168 H168        2.8510  -12.7383  -41.9247 H         1 UNK         0.0600 
    169 H169        1.5302  -12.8554  -44.7261 H         1 UNK         0.3000 
    170 H170       -1.1532  -10.9688  -45.3171 H         1 UNK         0.0600 
    171 H171       -0.6267   -9.0855  -43.8496 H         1 UNK         0.0600 
    172 H172        1.0867   -9.2063  -44.2084 H         1 UNK         0.0600 
    173 H173       -0.0514   -8.7291  -45.4696 H         1 UNK         0.0600 
    174 H174        0.1523  -11.5915  -46.9636 H         1 UNK         0.3000 
    175 H175        3.1035  -10.7844  -48.1682 H         1 UNK         0.0600 
    176 H176        4.3901  -12.4821  -46.9029 H         1 UNK         0.0600 
    177 H177        3.0785  -13.6419  -47.0574 H         1 UNK         0.0600 
    178 H178        3.9627  -13.1110  -48.4862 H         1 UNK         0.0600 
    179 H179        1.0673  -12.9655  -48.3816 H         1 UNK         0.3000 
    180 H180       -0.5896  -11.2350  -51.0638 H         1 UNK         0.0600 
    181 H181        0.7870  -13.9601  -50.8316 H         1 UNK         0.0600 
    182 H182        1.1579  -12.7400  -52.0427 H         1 UNK         0.0600 
    183 H183       -0.4239  -13.4998  -52.0257 H         1 UNK         0.0600 
    184 H184       -1.3773  -13.5588  -49.6760 H         1 UNK         0.3000 
    185 H185       -3.4096  -11.9103  -47.2041 H         1 UNK         0.0600 
    186 H186       -5.0704  -13.4014  -48.3676 H         1 UNK         0.0600 
    187 H187       -4.7685  -11.8869  -49.2059 H         1 UNK         0.0600 
    188 H188       -4.0523  -13.3702  -49.8050 H         1 UNK         0.0600 
    189 H189       -2.2825  -14.5304  -48.1486 H         1 UNK         0.3000 
    190 H190       -0.9434  -22.9422  -44.9799 H         1 UNK         0.3000 
    191 H191       -3.1048  -22.4788  -46.7825 H         1 UNK         0.0600 
    192 H192       -2.8172  -21.5273  -44.3974 H         1 UNK         0.0600 
    193 H193       -4.4238  -22.1103  -44.7973 H         1 UNK         0.0600 
    194 H194       -3.3626  -23.0746  -43.7858 H         1 UNK         0.0600 
    195 H195       -2.3039  -25.2225  -44.6229 H         1 UNK         0.3000 
    196 H196       -4.5389  -26.8499  -45.2006 H         1 UNK         0.0600 
    197 H197       -3.1681  -28.6497  -44.1516 H         1 UNK         0.0600 
    198 H198       -3.0684  -27.1608  -43.2228 H         1 UNK         0.0600 
    199 H199       -1.7299  -27.6427  -44.2624 H         1 UNK         0.0600 
    200 H200       -1.2782  -26.7838  -46.7126 H         1 UNK         0.3000 
    201 H201       -1.8410  -28.8814  -48.6188 H         1 UNK         0.0600 
    202 H202        0.3522  -28.1483  -49.5774 H         1 UNK         0.0600 
    203 H203        0.4567  -28.3598  -47.8359 H         1 UNK         0.0600 
    204 H204        0.3511  -26.7398  -48.5214 H         1 UNK         0.0600 
    205 H205       -2.4230  -25.4522  -48.5560 H         1 UNK         0.3000 
    206 H206       -3.1414  -23.8826  -49.9139 H         1 UNK         0.0600 
    207 H207       -5.0686  -25.3933  -50.4393 H         1 UNK         0.0600 
    208 H208       -4.6436  -24.3706  -51.8031 H         1 UNK         0.0600 
    209 H209       -4.1753  -26.0644  -51.8038 H         1 UNK         0.0600 
    210 H210       -0.5096  -24.4725  -49.9216 H         1 UNK         0.3000 
    211 H211        0.5887  -25.1652  -52.4661 H         1 UNK         0.0600 
    212 H212        1.9092  -24.0994  -49.9278 H         1 UNK         0.0600 
    213 H213        2.7828  -24.7155  -51.3220 H         1 UNK         0.0600 
    214 H214        1.7286  -25.7806  -50.4098 H         1 UNK         0.0600 
    215 H215       -0.5317  -22.1289  -51.4026 H         1 UNK         0.3000 
    216 H216        1.0855  -20.4666  -53.1737 H         1 UNK         0.0600 
    217 H217       -0.6620  -18.7464  -52.6524 H         1 UNK         0.0600 
    218 H218       -0.0033  -19.4682  -51.2003 H         1 UNK         0.0600 
    219 H219       -1.6016  -19.9533  -51.7885 H         1 UNK         0.0600 
    220 H220       -1.4281  -22.7310  -53.6814 H         1 UNK         0.3000 
    221 H221       -2.5626  -23.4898  -55.3578 H         1 UNK         0.0600 
    222 H222       -1.1230  -21.5371  -57.2269 H         1 UNK         0.0600 
    223 H223       -0.5585  -23.1508  -56.7939 H         1 UNK         0.0600 
    224 H224       -2.0493  -22.9506  -57.7021 H         1 UNK         0.0600 
    225 H225       -2.5018  -19.9396  -55.4126 H         1 UNK         0.3000 
    226 H226       -5.2232  -19.6003  -56.3761 H         1 UNK         0.0600 
    227 H227       -3.5086  -17.8292  -56.6778 H         1 UNK         0.0600 
    228 H228       -4.8299  -17.2235  -55.6908 H         1 UNK         0.0600 
    229 H229       -3.3086  -17.6825  -54.9330 H         1 UNK         0.0600 
    230 H230       -7.0351  -19.8775  -55.2024 H         1 UNK         0.3000 
    231 H231       -7.0858  -20.6674  -52.4778 H         1 UNK         0.0600 
    232 H232       -9.3423  -19.7019  -54.3185 H         1 UNK         0.0600 
    233 H233       -9.5627  -20.5648  -52.8011 H         1 UNK         0.0600 
    234 H234       -8.7812  -21.3668  -54.1533 H         1 UNK         0.0600 
    235 H235       -7.0349  -17.5130  -53.8715 H         1 UNK         0.3000 
    236 H236       -8.1793  -16.0301  -51.6626 H         1 UNK         0.0600 
    237 H237       -8.1357  -15.1347  -53.9833 H         1 UNK         0.0600 
    238 H238       -7.2350  -14.0808  -52.9061 H         1 UNK         0.0600 
    239 H239       -6.3717  -15.1671  -53.9875 H         1 UNK         0.0600 
    240 H240       -5.1402  -17.6360  -52.1062 H         1 UNK         0.3000 
    241 H241       -3.2610  -17.7623  -50.9880 H         1 UNK         0.0600 
    242 H242       -2.3027  -14.3163  -52.2896 H         1 UNK         0.3800 
    243 H243       -3.5575  -15.4062  -52.8085 H         1 UNK         0.3800 
    244 H244       -3.1063  -17.2033  -48.5875 H         1 UNK         0.0800 
    245 H245       -4.5402  -16.2317  -48.6794 H         1 UNK         0.0800 
    246 H246       -3.5708  -20.0244  -49.8828 H         1 UNK         0.0800 
    247 H247       -4.4014  -20.8677  -48.5994 H         1 UNK         0.0800 
@<TRIPOS>BOND
     1    1    2 1    
     2    1  127 1    
     3    1  128 1    
     4    1  129 1    
     5    2    3 2    
     6    2    4 am   BACKBONE|DICT|INTERRES
     7    4    5 1    
     8    4  130 1    
     9    5    6 1    
    10    5   65 1    
    11    5  131 1    
    12    6    7 1    
    13    6  132 1    
    14    6  133 1    
    15    7    8 1    
    16    8    9 1    
    17    8  134 1    
    18    8  135 1    
    19    9   10 ar   
    20    9   14 ar   
    21   10   11 ar   
    22   10  136 1    
    23   11   12 ar   
    24   11  126 1    
    25   12   13 ar   
    26   12  137 1    
    27   13   14 ar   
    28   13   15 1    
    29   14  138 1    
    30   15   16 1    
    31   15  139 1    
    32   15  140 1    
    33   16   17 1    
    34   17   18 1    
    35   17  141 1    
    36   17  142 1    
    37   18   19 1    
    38   18   67 1    
    39   18  143 1    
    40   19   20 am   BACKBONE|DICT|INTERRES
    41   19  144 1    
    42   20   21 2    
    43   20   22 1    
    44   22   23 1    
    45   22   24 1    
    46   22  145 1    
    47   23  146 1    
    48   23  147 1    
    49   23  148 1    
    50   24   25 am   BACKBONE|DICT|INTERRES
    51   24  149 1    
    52   25   26 2    
    53   25   27 1    
    54   27   28 1    
    55   27   29 1    
    56   27  150 1    
    57   28  151 1    
    58   28  152 1    
    59   28  153 1    
    60   29   30 am   BACKBONE|DICT|INTERRES
    61   29  154 1    
    62   30   31 2    
    63   30   32 1    
    64   32   33 1    
    65   32   34 1    
    66   32  155 1    
    67   33  156 1    
    68   33  157 1    
    69   33  158 1    
    70   34   35 am   BACKBONE|DICT|INTERRES
    71   34  159 1    
    72   35   36 2    
    73   35   37 1    
    74   37   38 1    
    75   37   39 1    
    76   37  160 1    
    77   38  161 1    
    78   38  162 1    
    79   38  163 1    
    80   39   40 am   BACKBONE|DICT|INTERRES
    81   39  164 1    
    82   40   41 2    
    83   40   42 1    
    84   42   43 1    
    85   42   44 1    
    86   42  165 1    
    87   43  166 1    
    88   43  167 1    
    89   43  168 1    
    90   44   45 am   BACKBONE|DICT|INTERRES
    91   44  169 1    
    92   45   46 2    
    93   45   47 1    
    94   47   48 1    
    95   47   49 1    
    96   47  170 1    
    97   48  171 1    
    98   48  172 1    
    99   48  173 1    
   100   49   50 am   BACKBONE|DICT|INTERRES
   101   49  174 1    
   102   50   51 2    
   103   50   52 1    
   104   52   53 1    
   105   52   54 1    
   106   52  175 1    
   107   53  176 1    
   108   53  177 1    
   109   53  178 1    
   110   54   55 am   BACKBONE|DICT|INTERRES
   111   54  179 1    
   112   55   56 2    
   113   55   57 1    
   114   57   58 1    
   115   57   59 1    
   116   57  180 1    
   117   58  181 1    
   118   58  182 1    
   119   58  183 1    
   120   59   60 am   BACKBONE|DICT|INTERRES
   121   59  184 1    
   122   60   61 2    
   123   60   62 1    
   124   62   63 1    
   125   62   64 1    
   126   62  185 1    
   127   63  186 1    
   128   63  187 1    
   129   63  188 1    
   130   64   65 am   BACKBONE|DICT|INTERRES
   131   64  189 1    
   132   65   66 2    
   133   67   68 2    
   134   67   69 am   BACKBONE|DICT|INTERRES
   135   69   70 1    
   136   69  190 1    
   137   70   71 1    
   138   70   72 1    
   139   70  191 1    
   140   71  192 1    
   141   71  193 1    
   142   71  194 1    
   143   72   73 2    
   144   72   74 am   BACKBONE|DICT|INTERRES
   145   74   75 1    
   146   74  195 1    
   147   75   76 1    
   148   75   77 1    
   149   75  196 1    
   150   76  197 1    
   151   76  198 1    
   152   76  199 1    
   153   77   78 2    
   154   77   79 am   BACKBONE|DICT|INTERRES
   155   79   80 1    
   156   79  200 1    
   157   80   81 1    
   158   80   82 1    
   159   80  201 1    
   160   81  202 1    
   161   81  203 1    
   162   81  204 1    
   163   82   83 2    
   164   82   84 am   BACKBONE|DICT|INTERRES
   165   84   85 1    
   166   84  205 1    
   167   85   86 1    
   168   85   87 1    
   169   85  206 1    
   170   86  207 1    
   171   86  208 1    
   172   86  209 1    
   173   87   88 2    
   174   87   89 am   BACKBONE|DICT|INTERRES
   175   89   90 1    
   176   89  210 1    
   177   90   91 1    
   178   90   92 1    
   179   90  211 1    
   180   91  212 1    
   181   91  213 1    
   182   91  214 1    
   183   92   93 2    
   184   92   94 am   BACKBONE|DICT|INTERRES
   185   94   95 1    
   186   94  215 1    
   187   95   96 1    
   188   95   97 1    
   189   95  216 1    
   190   96  217 1    
   191   96  218 1    
   192   96  219 1    
   193   97   98 2    
   194   97   99 am   BACKBONE|DICT|INTERRES
   195   99  100 1    
   196   99  220 1    
   197  100  101 1    
   198  100  102 1    
   199  100  221 1    
   200  101  222 1    
   201  101  223 1    
   202  101  224 1    
   203  102  103 2    
   204  102  104 am   BACKBONE|DICT|INTERRES
   205  104  105 1    
   206  104  225 1    
   207  105  106 1    
   208  105  107 1    
   209  105  226 1    
   210  106  227 1    
   211  106  228 1    
   212  106  229 1    
   213  107  108 2    
   214  107  109 am   BACKBONE|DICT|INTERRES
   215  109  110 1    
   216  109  230 1    
   217  110  111 1    
   218  110  112 1    
   219  110  231 1    
   220  111  232 1    
   221  111  233 1    
   222  111  234 1    
   223  112  113 2    
   224  112  114 am   BACKBONE|DICT|INTERRES
   225  114  115 1    
   226  114  235 1    
   227  115  116 1    
   228  115  117 1    
   229  115  236 1    
   230  116  237 1    
   231  116  238 1    
   232  116  239 1    
   233  117  118 2    
   234  117  119 am   BACKBONE|DICT|INTERRES
   235  119  120 1    
   236  119  240 1    
   237  120  121 1    
   238  120  124 1    
   239  120  241 1    
   240  121  122 am   BACKBONE|DICT|INTERRES
   241  121  123 2    
   242  122  242 1    
   243  122  243 1    
   244  124  125 1    
   245  124  244 1    
   246  124  245 1    
   247  125  126 1    
   248  126  246 1    
   249  126  247 1    
@<TRIPOS>SUBSTRUCTURE
     1 UNK         1 GROUP             0       ****    0 ROOT    
