@<TRIPOS>MOLECULE
3R540
247   249    1
SMALL
USER_CHARGES


@<TRIPOS>ATOM
      1 CA         -6.9346  -15.0697  -51.1912 C.3       0 UNK        -0.1800 
      2 C          -5.5945  -15.2686  -50.4998 C.2       0 UNK         0.5000 
      3 O          -4.5527  -15.1791  -51.1496 O.2       0 UNK        -0.5000 
      4 N          -5.6118  -15.5347  -49.1889 N.am      1 UNK        -0.5000 
      5 CA         -4.4225  -15.7592  -48.3666 C.3       1 UNK         0.1400 
      6 C6         -4.6357  -16.9320  -47.3747 C.3       23 UNK        -0.0398 
      7 S7         -3.0537  -17.6402  -46.8147 S.3       23 UNK        -0.2404 
      8 C8         -2.6113  -18.6587  -48.2553 C.3       23 UNK        -0.0205 
      9 C9         -1.1127  -18.6527  -48.5017 C.ar      23 UNK        -0.0193 
     10 C10        -0.4823  -17.5063  -48.9921 C.ar      23 UNK        -0.1150 
     11 C11         0.8914  -17.5073  -49.2554 C.ar      23 UNK        -0.0193 
     12 C12         1.6351  -18.6707  -49.0290 C.ar      23 UNK        -0.1150 
     13 C13         1.0146  -19.8190  -48.5298 C.ar      23 UNK        -0.0193 
     14 C14        -0.3557  -19.8010  -48.2694 C.ar      23 UNK        -0.1150 
     15 C15         1.8002  -21.0956  -48.2893 C.3       23 UNK        -0.0205 
     16 S16         2.0130  -21.4253  -46.5098 S.3       23 UNK        -0.2404 
     17 C17         2.1535  -23.2474  -46.5260 C.3       23 UNK        -0.0398 
     18 CA          0.9176  -24.0438  -46.0247 C.3       11 UNK         0.1400 
     19 N           0.8288  -24.1236  -44.5648 N.am      11 UNK        -0.5000 
     20 C           0.1803  -25.1081  -43.9235 C.2       10 UNK         0.5000 
     21 O          -0.4014  -26.0298  -44.4984 O.2       10 UNK        -0.5000 
     22 CA          0.1508  -25.0364  -42.3871 C.3       10 UNK         0.1400 
     23 CB          1.4937  -25.4882  -41.7933 C.3       10 UNK        -0.1800 
     24 N          -0.1762  -23.7004  -41.8917 N.am      10 UNK        -0.5000 
     25 C          -1.3609  -23.0982  -42.0638 C.2       9 UNK         0.5000 
     26 O          -2.3101  -23.6089  -42.6575 O.2       9 UNK        -0.5000 
     27 CA         -1.4927  -21.6665  -41.5115 C.3       9 UNK         0.1400 
     28 CB         -1.9041  -21.6955  -40.0319 C.3       9 UNK        -0.1800 
     29 N          -0.2792  -20.8565  -41.6634 N.am      9 UNK        -0.5000 
     30 C           0.2985  -20.5710  -42.8369 C.2       8 UNK         0.5000 
     31 O          -0.0824  -21.0310  -43.9157 O.2       8 UNK        -0.5000 
     32 CA          1.5146  -19.6388  -42.8026 C.3       8 UNK         0.1400 
     33 CB          2.8124  -20.4340  -42.5881 C.3       8 UNK        -0.1800 
     34 N           1.5741  -18.9451  -44.0813 N.am      8 UNK        -0.5000 
     35 C           1.9548  -17.6810  -44.2694 C.2       7 UNK         0.5000 
     36 O           2.3719  -16.9420  -43.3721 O.2       7 UNK        -0.5000 
     37 CA          1.7806  -17.1350  -45.6960 C.3       7 UNK         0.1400 
     38 CB          0.4362  -16.4021  -45.8072 C.3       7 UNK        -0.1800 
     39 N           2.8520  -16.2064  -46.0343 N.am      7 UNK        -0.5000 
     40 C           4.1218  -16.5529  -46.2816 C.2       6 UNK         0.5000 
     41 O           4.5012  -17.7114  -46.4545 O.2       6 UNK        -0.5000 
     42 CA          5.1491  -15.4072  -46.2471 C.3       6 UNK         0.1400 
     43 CB          5.0762  -14.5321  -47.5091 C.3       6 UNK        -0.1800 
     44 N           4.9282  -14.5996  -45.0445 N.am      6 UNK        -0.5000 
     45 C           5.3507  -14.9671  -43.8251 C.2       5 UNK         0.5000 
     46 O           6.1870  -15.8526  -43.6402 O.2       5 UNK        -0.5000 
     47 CA          4.7045  -14.2994  -42.5952 C.3       5 UNK         0.1400 
     48 CB          5.5936  -13.1872  -42.0039 C.3       5 UNK        -0.1800 
     49 N           3.3155  -13.8737  -42.8178 N.am      5 UNK        -0.5000 
     50 C           2.8613  -12.7822  -43.4447 C.2       4 UNK         0.5000 
     51 O           3.5799  -11.8796  -43.8791 O.2       4 UNK        -0.5000 
     52 CA          1.3323  -12.7061  -43.6410 C.3       4 UNK         0.1400 
     53 CB          0.6780  -11.9378  -42.4830 C.3       4 UNK        -0.1800 
     54 N           0.9586  -12.0700  -44.9075 N.am      4 UNK        -0.5000 
     55 C           1.3624  -12.4804  -46.1173 C.2       3 UNK         0.5000 
     56 O           2.0218  -13.5047  -46.3001 O.2       3 UNK        -0.5000 
     57 CA          0.9528  -11.5850  -47.3023 C.3       3 UNK         0.1400 
     58 CB          1.7062  -11.9303  -48.6057 C.3       3 UNK        -0.1800 
     59 N          -0.4996  -11.5757  -47.5145 N.am      3 UNK        -0.5000 
     60 C          -1.2678  -12.6148  -47.8731 C.2       2 UNK         0.5000 
     61 O          -0.8369  -13.7536  -48.0642 O.2       2 UNK        -0.5000 
     62 CA         -2.7679  -12.3130  -48.0804 C.3       2 UNK         0.1400 
     63 CB         -2.9807  -11.2067  -49.1285 C.3       2 UNK        -0.1800 
     64 N          -3.4733  -13.5164  -48.5215 N.am      2 UNK        -0.5000 
     65 C          -3.9840  -14.4398  -47.6990 C.2       1 UNK         0.5000 
     66 O          -4.1285  -14.2698  -46.4867 O.2       1 UNK        -0.5000 
     67 C          -0.4277  -23.6111  -46.6459 C.2       11 UNK         0.5000 
     68 O          -0.7884  -24.1215  -47.7045 O.2       11 UNK        -0.5000 
     69 N          -1.1750  -22.7356  -45.9558 N.am      12 UNK        -0.5000 
     70 CA         -2.5245  -22.3132  -46.3300 C.3       12 UNK         0.1400 
     71 CB         -2.9798  -21.1577  -45.4294 C.3       12 UNK        -0.1800 
     72 C          -3.5384  -23.4640  -46.3055 C.2       12 UNK         0.5000 
     73 O          -4.3477  -23.5603  -47.2271 O.2       12 UNK        -0.5000 
     74 N          -3.4501  -24.3362  -45.2918 N.am      13 UNK        -0.5000 
     75 CA         -4.2498  -25.5563  -45.1853 C.3       13 UNK         0.1400 
     76 CB         -4.0447  -26.1924  -43.8023 C.3       13 UNK        -0.1800 
     77 C          -3.9357  -26.5654  -46.3046 C.2       13 UNK         0.5000 
     78 O          -4.8621  -27.1473  -46.8691 O.2       13 UNK        -0.5000 
     79 N          -2.6443  -26.7284  -46.6276 N.am      14 UNK        -0.5000 
     80 CA         -2.1642  -27.5930  -47.7077 C.3       14 UNK         0.1400 
     81 CB         -0.6395  -27.7475  -47.6004 C.3       14 UNK        -0.1800 
     82 C          -2.5678  -27.0834  -49.1051 C.2       14 UNK         0.5000 
     83 O          -2.9940  -27.8776  -49.9440 O.2       14 UNK        -0.5000 
     84 N          -2.4438  -25.7674  -49.3216 N.am      15 UNK        -0.5000 
     85 CA         -2.8026  -25.0814  -50.5642 C.3       15 UNK         0.1400 
     86 CB         -2.0970  -23.7134  -50.5869 C.3       15 UNK        -0.1800 
     87 C          -4.3188  -24.8804  -50.7494 C.2       15 UNK         0.5000 
     88 O          -4.7451  -24.5267  -51.8504 O.2       15 UNK        -0.5000 
     89 N          -5.0890  -25.0236  -49.6590 N.am      16 UNK        -0.5000 
     90 CA         -6.5031  -24.6521  -49.5121 C.3       16 UNK         0.1400 
     91 CB         -7.4013  -25.6043  -50.3272 C.3       16 UNK        -0.1800 
     92 C          -6.7452  -23.1618  -49.8453 C.2       16 UNK         0.5000 
     93 O          -7.7725  -22.8129  -50.4301 O.2       16 UNK        -0.5000 
     94 N          -5.7413  -22.3279  -49.5305 N.am      17 UNK        -0.5000 
     95 CA         -5.5043  -20.9367  -49.9369 C.3       17 UNK         0.1400 
     96 CB         -6.5655  -19.9896  -49.3500 C.3       17 UNK        -0.1800 
     97 C          -5.3506  -20.7204  -51.4584 C.2       17 UNK         0.5000 
     98 O          -4.4268  -20.0226  -51.8790 O.2       17 UNK        -0.5000 
     99 N          -6.2512  -21.3141  -52.2487 N.am      18 UNK        -0.5000 
    100 CA        -6.4206  -21.1322  -53.6890 C.3       18 UNK         0.1400 
    101 CB        -7.6616  -21.9163  -54.1409 C.3       18 UNK        -0.1800 
    102 C         -5.2048  -21.5148  -54.5505 C.2       18 UNK         0.5000 
    103 O         -4.9971  -20.8876  -55.5894 O.2       18 UNK        -0.5000 
    104 N         -4.4215  -22.5188  -54.1289 N.am      19 UNK        -0.5000 
    105 CA        -3.2095  -22.9302  -54.8462 C.3       19 UNK         0.1400 
    106 CB        -2.8394  -24.3722  -54.4700 C.3       19 UNK        -0.1800 
    107 C         -2.0190  -21.9784  -54.6123 C.2       19 UNK         0.5000 
    108 O         -1.0832  -21.9869  -55.4131 O.2       19 UNK        -0.5000 
    109 N         -2.0687  -21.1819  -53.5353 N.am      20 UNK        -0.5000 
    110 CA        -1.0786  -20.1549  -53.2231 C.3       20 UNK         0.1400 
    111 CB        -0.8980  -20.0547  -51.7010 C.3       20 UNK        -0.1800 
    112 C         -1.5075  -18.8138  -53.8373 C.2       20 UNK         0.5000 
    113 O         -0.7852  -18.2771  -54.6779 O.2       20 UNK        -0.5000 
    114 N         -2.6936  -18.3321  -53.4306 N.am      21 UNK        -0.5000 
    115 CA        -3.3869  -17.1317  -53.9128 C.3       21 UNK         0.1400 
    116 CB        -4.0197  -17.4105  -55.2905 C.3       21 UNK        -0.1800 
    117 C         -2.5226  -15.8503  -53.8980 C.2       21 UNK         0.5000 
    118 O         -2.4850  -15.1169  -54.8889 O.2       21 UNK        -0.5000 
    119 N         -1.8314  -15.6108  -52.7761 N.am      22 UNK        -0.5000 
    120 CA        -0.9847  -14.4241  -52.5593 C.3       22 UNK         0.1400 
    121 C         -1.7563  -13.0733  -52.4813 C.2       22 UNK         0.5000 
    122 N         -3.0571  -13.0587  -52.2180 N.am      22 UNK        -0.7600 
    123 O         -1.1606  -12.0168  -52.6718 O.2       22 UNK        -0.5000 
    124 C124       -0.0681  -14.5844  -51.3227 C.3       23 UNK        -0.0398 
    125 S125        1.1615  -15.9186  -51.5079 S.3       23 UNK        -0.2404 
    126 C126        1.5764  -16.2498  -49.7655 C.3       23 UNK        -0.0205 
    127 H127       -6.9858  -14.0722  -51.6273 H         1 UNK         0.0600 
    128 H128       -7.7694  -15.1836  -50.4994 H         1 UNK         0.0600 
    129 H129       -7.0530  -15.7997  -51.9919 H         1 UNK         0.0600 
    130 H130       -6.4944  -15.5496  -48.6973 H         1 UNK         0.3000 
    131 H131       -3.6004  -16.0450  -49.0256 H         1 UNK         0.0600 
    132 H132       -5.2043  -17.7319  -47.8493 H         1 UNK         0.0800 
    133 H133       -5.2253  -16.6280  -46.5082 H         1 UNK         0.0800 
    134 H134       -3.1141  -18.3062  -49.1567 H         1 UNK         0.0800 
    135 H135       -2.9707  -19.6726  -48.0844 H         1 UNK         0.0800 
    136 H136       -1.0616  -16.6101  -49.1571 H         1 UNK         0.1150 
    137 H137        2.6972  -18.6791  -49.2293 H         1 UNK         0.1150 
    138 H138       -0.8252  -20.6933  -47.8925 H         1 UNK         0.1150 
    139 H139        1.2639  -21.9194  -48.7634 H         1 UNK         0.0800 
    140 H140        2.7802  -21.0479  -48.7662 H         1 UNK         0.0800 
    141 H141        2.3982  -23.5708  -47.5389 H         1 UNK         0.0800 
    142 H142        3.0266  -23.5187  -45.9312 H         1 UNK         0.0800 
    143 H143        1.0825  -25.0658  -46.3739 H         1 UNK         0.0600 
    144 H144        1.2279  -23.3605  -44.0384 H         1 UNK         0.3000 
    145 H145       -0.6230  -25.7240  -42.0385 H         1 UNK         0.0600 
    146 H146        1.4505  -25.5244  -40.7046 H         1 UNK         0.0600 
    147 H147        1.7565  -26.4885  -42.1402 H         1 UNK         0.0600 
    148 H148        2.3073  -24.8186  -42.0748 H         1 UNK         0.0600 
    149 H149        0.5499  -23.2016  -41.3994 H         1 UNK         0.3000 
    150 H150       -2.2881  -21.1728  -42.0732 H         1 UNK         0.0600 
    151 H151       -2.8165  -22.2769  -39.8917 H         1 UNK         0.0600 
    152 H152       -2.1006  -20.6909  -39.6570 H         1 UNK         0.0600 
    153 H153       -1.1303  -22.1428  -39.4068 H         1 UNK         0.0600 
    154 H154        0.1001  -20.4537  -40.8185 H         1 UNK         0.3000 
    155 H155        1.3816  -18.9204  -41.9909 H         1 UNK         0.0600 
    156 H156        3.6792  -19.7729  -42.5717 H         1 UNK         0.0600 
    157 H157        2.9686  -21.1686  -43.3793 H         1 UNK         0.0600 
    158 H158        2.7932  -20.9695  -41.6383 H         1 UNK         0.0600 
    159 H159        1.1940  -19.4815  -44.8530 H         1 UNK         0.3000 
    160 H160        1.7977  -17.9656  -46.4015 H         1 UNK         0.0600 
    161 H161        0.3458  -15.6055  -45.0688 H         1 UNK         0.0600 
    162 H162       -0.3926  -17.0919  -45.6501 H         1 UNK         0.0600 
    163 H163        0.3066  -15.9512  -46.7902 H         1 UNK         0.0600 
    164 H164        2.6178  -15.2189  -45.9689 H         1 UNK         0.3000 
    165 H165        6.1484  -15.8464  -46.2091 H         1 UNK         0.0600 
    166 H166        4.0917  -14.0900  -47.6525 H         1 UNK         0.0600 
    167 H167        5.8036  -13.7214  -47.4678 H         1 UNK         0.0600 
    168 H168        5.2969  -15.1224  -48.3992 H         1 UNK         0.0600 
    169 H169        4.2443  -13.8579  -45.1139 H         1 UNK         0.3000 
    170 H170        4.6323  -15.0806  -41.8368 H         1 UNK         0.0600 
    171 H171        6.5459  -13.5974  -41.6658 H         1 UNK         0.0600 
    172 H172        5.8229  -12.4115  -42.7345 H         1 UNK         0.0600 
    173 H173        5.1193  -12.7146  -41.1439 H         1 UNK         0.0600 
    174 H174        2.6352  -14.5747  -42.5525 H         1 UNK         0.3000 
    175 H175        0.9322  -13.7217  -43.6535 H         1 UNK         0.0600 
    176 H176        1.0236  -10.9040  -42.4411 H         1 UNK         0.0600 
    177 H177       -0.4079  -11.9263  -42.5795 H         1 UNK         0.0600 
    178 H178        0.9127  -12.4012  -41.5238 H         1 UNK         0.0600 
    179 H179        0.4262  -11.2157  -44.8392 H         1 UNK         0.3000 
    180 H180        1.2322  -10.5653  -47.0328 H         1 UNK         0.0600 
    181 H181        1.5263  -12.9563  -48.9255 H         1 UNK         0.0600 
    182 H182        2.7827  -11.8204  -48.4699 H         1 UNK         0.0600 
    183 H183        1.4108  -11.2690  -49.4202 H         1 UNK         0.0600 
    184 H184       -0.9481  -10.6820  -47.3714 H         1 UNK         0.3000 
    185 H185       -3.1816  -11.9715  -47.1294 H         1 UNK         0.0600 
    186 H186       -2.6374  -10.2404  -48.7582 H         1 UNK         0.0600 
    187 H187       -2.4348  -11.4129  -50.0486 H         1 UNK         0.0600 
    188 H188       -4.0356  -11.0955  -49.3802 H         1 UNK         0.0600 
    189 H189       -3.3968  -13.7418  -49.5036 H         1 UNK         0.3000 
    190 H190       -0.7819  -22.3061  -45.1216 H         1 UNK         0.3000 
    191 H191       -2.4939  -21.9540  -47.3584 H         1 UNK         0.0600 
    192 H192       -3.9599  -20.7873  -45.7325 H         1 UNK         0.0600 
    193 H193       -2.2840  -20.3203  -45.4831 H         1 UNK         0.0600 
    194 H194       -3.0511  -21.4653  -44.3864 H         1 UNK         0.0600 
    195 H195       -2.7975  -24.1516  -44.5365 H         1 UNK         0.3000 
    196 H196       -5.3014  -25.2762  -45.2765 H         1 UNK         0.0600 
    197 H197       -4.6316  -27.1060  -43.7005 H         1 UNK         0.0600 
    198 H198       -4.3582  -25.5148  -43.0080 H         1 UNK         0.0600 
    199 H199       -2.9998  -26.4504  -43.6273 H         1 UNK         0.0600 
    200 H200       -1.9419  -26.2344  -46.0902 H         1 UNK         0.3000 
    201 H201       -2.6129  -28.5792  -47.5713 H         1 UNK         0.0600 
    202 H202       -0.3514  -28.1543  -46.6308 H         1 UNK         0.0600 
    203 H203       -0.1265  -26.7943  -47.7283 H         1 UNK         0.0600 
    204 H204       -0.2621  -28.4278  -48.3648 H         1 UNK         0.0600 
    205 H205       -2.0124  -25.1919  -48.6013 H         1 UNK         0.3000 
    206 H206       -2.4419  -25.6754  -51.4058 H         1 UNK         0.0600 
    207 H207       -1.0133  -23.8274  -50.5572 H         1 UNK         0.0600 
    208 H208       -2.3388  -23.1521  -51.4887 H         1 UNK         0.0600 
    209 H209       -2.3908  -23.0966  -49.7368 H         1 UNK         0.0600 
    210 H210       -4.6203  -25.2632  -48.7952 H         1 UNK         0.3000 
    211 H211       -6.7485  -24.7776  -48.4567 H         1 UNK         0.0600 
    212 H212       -7.2480  -25.4865  -51.4004 H         1 UNK         0.0600 
    213 H213       -8.4561  -25.4158  -50.1247 H         1 UNK         0.0600 
    214 H214       -7.2031  -26.6453  -50.0723 H         1 UNK         0.0600 
    215 H215       -4.9952  -22.7448  -48.9835 H         1 UNK         0.3000 
    216 H216       -4.5451  -20.6676  -49.4956 H         1 UNK         0.0600 
    217 H217       -7.5668  -20.2235  -49.7123 H         1 UNK         0.0600 
    218 H218       -6.3569  -18.9543  -49.6228 H         1 UNK         0.0600 
    219 H219       -6.5815  -20.0445  -48.2615 H         1 UNK         0.0600 
    220 H220       -6.9512  -21.8867  -51.7828 H         1 UNK         0.3000 
    221 H221       -6.6099  -20.0700  -53.8567 H         1 UNK         0.0600 
    222 H222       -7.5498  -22.9848  -53.9512 H         1 UNK         0.0600 
    223 H223       -8.5557  -21.5755  -53.6185 H         1 UNK         0.0600 
    224 H224       -7.8410  -21.7876  -55.2092 H         1 UNK         0.0600 
    225 H225       -4.6605  -23.0312  -53.2853 H         1 UNK         0.3000 
    226 H226       -3.4244  -22.9224  -55.9171 H         1 UNK         0.0600 
    227 H227       -3.6870  -25.0464  -54.5944 H         1 UNK         0.0600 
    228 H228       -2.0327  -24.7424  -55.1036 H         1 UNK         0.0600 
    229 H229       -2.4982  -24.4450  -53.4400 H         1 UNK         0.0600 
    230 H230       -2.9088  -21.1843  -52.9716 H         1 UNK         0.3000 
    231 H231       -0.1104  -20.4272  -53.6490 H         1 UNK         0.0600 
    232 H232       -1.8300  -19.8211  -51.1869 H         1 UNK         0.0600 
    233 H233       -0.1799  -19.2733  -51.4505 H         1 UNK         0.0600 
    234 H234       -0.5170  -20.9885  -51.2873 H         1 UNK         0.0600 
    235 H235       -3.2202  -18.8834  -52.7570 H         1 UNK         0.3000 
    236 H236       -4.2033  -16.9518  -53.2123 H         1 UNK         0.0600 
    237 H237       -4.7015  -18.2585  -55.2422 H         1 UNK         0.0600 
    238 H238       -4.5986  -16.5549  -55.6399 H         1 UNK         0.0600 
    239 H239       -3.2635  -17.6294  -56.0450 H         1 UNK         0.0600 
    240 H240       -1.9072  -16.2612  -52.0092 H         1 UNK         0.3000 
    241 H241       -0.3362  -14.3375  -53.4333 H         1 UNK         0.0600 
    242 H242       -3.5622  -13.9208  -52.0245 H         1 UNK         0.3800 
    243 H243       -3.5462  -12.1791  -52.2023 H         1 UNK         0.3800 
    244 H244        0.4861  -13.6646  -51.1263 H         1 UNK         0.0800 
    245 H245       -0.6768  -14.7668  -50.4382 H         1 UNK         0.0800 
    246 H246        1.3027  -15.4030  -49.1339 H         1 UNK         0.0800 
    247 H247        2.6595  -16.3476  -49.6787 H         1 UNK         0.0800 
@<TRIPOS>BOND
     1    1    2 1    
     2    1  127 1    
     3    1  128 1    
     4    1  129 1    
     5    2    3 2    
     6    2    4 am   BACKBONE|DICT|INTERRES
     7    4    5 1    
     8    4  130 1    
     9    5    6 1    
    10    5   65 1    
    11    5  131 1    
    12    6    7 1    
    13    6  132 1    
    14    6  133 1    
    15    7    8 1    
    16    8    9 1    
    17    8  134 1    
    18    8  135 1    
    19    9   10 ar   
    20    9   14 ar   
    21   10   11 ar   
    22   10  136 1    
    23   11   12 ar   
    24   11  126 1    
    25   12   13 ar   
    26   12  137 1    
    27   13   14 ar   
    28   13   15 1    
    29   14  138 1    
    30   15   16 1    
    31   15  139 1    
    32   15  140 1    
    33   16   17 1    
    34   17   18 1    
    35   17  141 1    
    36   17  142 1    
    37   18   19 1    
    38   18   67 1    
    39   18  143 1    
    40   19   20 am   BACKBONE|DICT|INTERRES
    41   19  144 1    
    42   20   21 2    
    43   20   22 1    
    44   22   23 1    
    45   22   24 1    
    46   22  145 1    
    47   23  146 1    
    48   23  147 1    
    49   23  148 1    
    50   24   25 am   BACKBONE|DICT|INTERRES
    51   24  149 1    
    52   25   26 2    
    53   25   27 1    
    54   27   28 1    
    55   27   29 1    
    56   27  150 1    
    57   28  151 1    
    58   28  152 1    
    59   28  153 1    
    60   29   30 am   BACKBONE|DICT|INTERRES
    61   29  154 1    
    62   30   31 2    
    63   30   32 1    
    64   32   33 1    
    65   32   34 1    
    66   32  155 1    
    67   33  156 1    
    68   33  157 1    
    69   33  158 1    
    70   34   35 am   BACKBONE|DICT|INTERRES
    71   34  159 1    
    72   35   36 2    
    73   35   37 1    
    74   37   38 1    
    75   37   39 1    
    76   37  160 1    
    77   38  161 1    
    78   38  162 1    
    79   38  163 1    
    80   39   40 am   BACKBONE|DICT|INTERRES
    81   39  164 1    
    82   40   41 2    
    83   40   42 1    
    84   42   43 1    
    85   42   44 1    
    86   42  165 1    
    87   43  166 1    
    88   43  167 1    
    89   43  168 1    
    90   44   45 am   BACKBONE|DICT|INTERRES
    91   44  169 1    
    92   45   46 2    
    93   45   47 1    
    94   47   48 1    
    95   47   49 1    
    96   47  170 1    
    97   48  171 1    
    98   48  172 1    
    99   48  173 1    
   100   49   50 am   BACKBONE|DICT|INTERRES
   101   49  174 1    
   102   50   51 2    
   103   50   52 1    
   104   52   53 1    
   105   52   54 1    
   106   52  175 1    
   107   53  176 1    
   108   53  177 1    
   109   53  178 1    
   110   54   55 am   BACKBONE|DICT|INTERRES
   111   54  179 1    
   112   55   56 2    
   113   55   57 1    
   114   57   58 1    
   115   57   59 1    
   116   57  180 1    
   117   58  181 1    
   118   58  182 1    
   119   58  183 1    
   120   59   60 am   BACKBONE|DICT|INTERRES
   121   59  184 1    
   122   60   61 2    
   123   60   62 1    
   124   62   63 1    
   125   62   64 1    
   126   62  185 1    
   127   63  186 1    
   128   63  187 1    
   129   63  188 1    
   130   64   65 am   BACKBONE|DICT|INTERRES
   131   64  189 1    
   132   65   66 2    
   133   67   68 2    
   134   67   69 am   BACKBONE|DICT|INTERRES
   135   69   70 1    
   136   69  190 1    
   137   70   71 1    
   138   70   72 1    
   139   70  191 1    
   140   71  192 1    
   141   71  193 1    
   142   71  194 1    
   143   72   73 2    
   144   72   74 am   BACKBONE|DICT|INTERRES
   145   74   75 1    
   146   74  195 1    
   147   75   76 1    
   148   75   77 1    
   149   75  196 1    
   150   76  197 1    
   151   76  198 1    
   152   76  199 1    
   153   77   78 2    
   154   77   79 am   BACKBONE|DICT|INTERRES
   155   79   80 1    
   156   79  200 1    
   157   80   81 1    
   158   80   82 1    
   159   80  201 1    
   160   81  202 1    
   161   81  203 1    
   162   81  204 1    
   163   82   83 2    
   164   82   84 am   BACKBONE|DICT|INTERRES
   165   84   85 1    
   166   84  205 1    
   167   85   86 1    
   168   85   87 1    
   169   85  206 1    
   170   86  207 1    
   171   86  208 1    
   172   86  209 1    
   173   87   88 2    
   174   87   89 am   BACKBONE|DICT|INTERRES
   175   89   90 1    
   176   89  210 1    
   177   90   91 1    
   178   90   92 1    
   179   90  211 1    
   180   91  212 1    
   181   91  213 1    
   182   91  214 1    
   183   92   93 2    
   184   92   94 am   BACKBONE|DICT|INTERRES
   185   94   95 1    
   186   94  215 1    
   187   95   96 1    
   188   95   97 1    
   189   95  216 1    
   190   96  217 1    
   191   96  218 1    
   192   96  219 1    
   193   97   98 2    
   194   97   99 am   BACKBONE|DICT|INTERRES
   195   99  100 1    
   196   99  220 1    
   197  100  101 1    
   198  100  102 1    
   199  100  221 1    
   200  101  222 1    
   201  101  223 1    
   202  101  224 1    
   203  102  103 2    
   204  102  104 am   BACKBONE|DICT|INTERRES
   205  104  105 1    
   206  104  225 1    
   207  105  106 1    
   208  105  107 1    
   209  105  226 1    
   210  106  227 1    
   211  106  228 1    
   212  106  229 1    
   213  107  108 2    
   214  107  109 am   BACKBONE|DICT|INTERRES
   215  109  110 1    
   216  109  230 1    
   217  110  111 1    
   218  110  112 1    
   219  110  231 1    
   220  111  232 1    
   221  111  233 1    
   222  111  234 1    
   223  112  113 2    
   224  112  114 am   BACKBONE|DICT|INTERRES
   225  114  115 1    
   226  114  235 1    
   227  115  116 1    
   228  115  117 1    
   229  115  236 1    
   230  116  237 1    
   231  116  238 1    
   232  116  239 1    
   233  117  118 2    
   234  117  119 am   BACKBONE|DICT|INTERRES
   235  119  120 1    
   236  119  240 1    
   237  120  121 1    
   238  120  124 1    
   239  120  241 1    
   240  121  122 am   BACKBONE|DICT|INTERRES
   241  121  123 2    
   242  122  242 1    
   243  122  243 1    
   244  124  125 1    
   245  124  244 1    
   246  124  245 1    
   247  125  126 1    
   248  126  246 1    
   249  126  247 1    
@<TRIPOS>SUBSTRUCTURE
     1 UNK         1 GROUP             0       ****    0 ROOT    
