@<TRIPOS>MOLECULE
3R540
247   249    1
SMALL
USER_CHARGES


@<TRIPOS>ATOM
      1 CA          0.7170  -12.6964  -47.1287 C.3       0 UNK        -0.1800 
      2 C           2.2332  -12.7538  -47.2382 C.2       0 UNK         0.5000 
      3 O           2.8937  -13.2121  -46.3083 O.2       0 UNK        -0.5000 
      4 N           2.7871  -12.2947  -48.3694 N.am      1 UNK        -0.5000 
      5 CA          4.2235  -12.2963  -48.7029 C.3       1 UNK         0.1400 
      6 C6          4.8253  -13.7175  -48.8895 C.3       23 UNK        -0.0398 
      7 S7          3.8869  -14.7577  -50.0625 S.3       23 UNK        -0.2404 
      8 C8          3.1952  -15.9662  -48.8963 C.3       23 UNK        -0.0205 
      9 C9          2.2246  -16.9278  -49.5558 C.ar      23 UNK        -0.0193 
     10 C10         0.9272  -16.5116  -49.8649 C.ar      23 UNK        -0.1150 
     11 C11         0.0012  -17.4134  -50.3969 C.ar      23 UNK        -0.0193 
     12 C12         0.3881  -18.7360  -50.6316 C.ar      23 UNK        -0.1150 
     13 C13         1.6868  -19.1608  -50.3346 C.ar      23 UNK        -0.0193 
     14 C14         2.6015  -18.2502  -49.8002 C.ar      23 UNK        -0.1150 
     15 C15         2.1073  -20.6030  -50.5738 C.3       23 UNK        -0.0205 
     16 S16         2.0360  -21.5871  -49.0431 S.3       23 UNK        -0.2404 
     17 C17         0.2378  -21.8016  -48.8666 C.3       23 UNK        -0.0398 
     18 CA         -0.1286  -22.8257  -47.7699 C.3       11 UNK         0.1400 
     19 N           0.1118  -22.3232  -46.4124 N.am      11 UNK        -0.5000 
     20 C           0.0195  -23.0750  -45.3052 C.2       10 UNK         0.5000 
     21 O          -0.2412  -24.2776  -45.3182 O.2       10 UNK        -0.5000 
     22 CA          0.1878  -22.3621  -43.9520 C.3       10 UNK         0.1400 
     23 CB          1.6675  -22.0772  -43.6552 C.3       10 UNK        -0.1800 
     24 N          -0.5906  -21.1263  -43.8691 N.am      10 UNK        -0.5000 
     25 C          -1.9289  -21.0692  -43.9358 C.2       9 UNK         0.5000 
     26 O          -2.6515  -22.0614  -44.0217 O.2       9 UNK        -0.5000 
     27 CA         -2.5701  -19.6705  -43.9631 C.3       9 UNK         0.1400 
     28 CB         -2.6928  -19.0941  -42.5450 C.3       9 UNK        -0.1800 
     29 N          -1.8392  -18.7327  -44.8135 N.am      9 UNK        -0.5000 
     30 C          -1.6530  -18.8794  -46.1330 C.2       8 UNK         0.5000 
     31 O          -2.1197  -19.8057  -46.7955 O.2       8 UNK        -0.5000 
     32 CA         -0.7396  -17.8475  -46.8131 C.3       8 UNK         0.1400 
     33 CB         -1.4886  -16.5314  -47.0752 C.3       8 UNK        -0.1800 
     34 N           0.4683  -17.5874  -46.0297 N.am      8 UNK        -0.5000 
     35 C           1.4289  -18.4965  -45.8082 C.2       7 UNK         0.5000 
     36 O           1.4108  -19.6363  -46.2708 O.2       7 UNK        -0.5000 
     37 CA          2.5692  -18.0807  -44.8606 C.3       7 UNK         0.1400 
     38 CB          3.6596  -17.3020  -45.6080 C.3       7 UNK        -0.1800 
     39 N           2.0933  -17.2802  -43.7330 N.am      7 UNK        -0.5000 
     40 C           1.3343  -17.7609  -42.7394 C.2       6 UNK         0.5000 
     41 O           0.9740  -18.9347  -42.6592 O.2       6 UNK        -0.5000 
     42 CA          0.8646  -16.7453  -41.6838 C.3       6 UNK         0.1400 
     43 CB          1.9607  -16.5034  -40.6352 C.3       6 UNK        -0.1800 
     44 N           0.4559  -15.4618  -42.2583 N.am      6 UNK        -0.5000 
     45 C          -0.5646  -15.2871  -43.1094 C.2       5 UNK         0.5000 
     46 O          -1.2205  -16.2218  -43.5686 O.2       5 UNK        -0.5000 
     47 CA         -0.8966  -13.8471  -43.5576 C.3       5 UNK         0.1400 
     48 CB         -2.4091  -13.5595  -43.4810 C.3       5 UNK        -0.1800 
     49 N          -0.1275  -12.7905  -42.8860 N.am      5 UNK        -0.5000 
     50 C          -0.1330  -12.4329  -41.5939 C.2       4 UNK         0.5000 
     51 O          -0.8183  -12.9898  -40.7353 O.2       4 UNK        -0.5000 
     52 CA          0.8278  -11.2854  -41.2005 C.3       4 UNK         0.1400 
     53 CB          0.8884  -11.0588  -39.6788 C.3       4 UNK        -0.1800 
     54 N           2.1943  -11.4919  -41.6970 N.am      4 UNK        -0.5000 
     55 C           2.5979  -11.3142  -42.9609 C.2       3 UNK         0.5000 
     56 O           1.8356  -10.9655  -43.8677 O.2       3 UNK        -0.5000 
     57 CA          4.0752  -11.6228  -43.2632 C.3       3 UNK         0.1400 
     58 CB          4.3320  -13.1397  -43.2320 C.3       3 UNK        -0.1800 
     59 N           4.4205  -11.1040  -44.5860 N.am      3 UNK        -0.5000 
     60 C           4.9139   -9.8792  -44.8144 C.2       2 UNK         0.5000 
     61 O           5.2989   -9.1318  -43.9131 O.2       2 UNK        -0.5000 
     62 CA          4.9409   -9.3620  -46.2707 C.3       2 UNK         0.1400 
     63 CB          6.3144   -8.7740  -46.6576 C.3       2 UNK        -0.1800 
     64 N           4.4552  -10.3194  -47.2736 N.am      2 UNK        -0.5000 
     65 C           5.0511  -11.4379  -47.7146 C.2       1 UNK         0.5000 
     66 O           6.1690  -11.8084  -47.3534 O.2       1 UNK        -0.5000 
     67 C          -1.5766  -23.3174  -47.9625 C.2       11 UNK         0.5000 
     68 O          -1.7758  -24.3623  -48.5828 O.2       11 UNK        -0.5000 
     69 N          -2.5571  -22.5835  -47.4202 N.am      12 UNK        -0.5000 
     70 CA         -3.9694  -22.9622  -47.4341 C.3       12 UNK         0.1400 
     71 CB         -4.8232  -21.7997  -46.9064 C.3       12 UNK        -0.1800 
     72 C          -4.2409  -24.2557  -46.6440 C.2       12 UNK         0.5000 
     73 O          -4.9248  -25.1422  -47.1553 O.2       12 UNK        -0.5000 
     74 N          -3.6654  -24.3615  -45.4374 N.am      13 UNK        -0.5000 
     75 CA         -3.7560  -25.5365  -44.5664 C.3       13 UNK         0.1400 
     76 CB         -3.1594  -25.2021  -43.1910 C.3       13 UNK        -0.1800 
     77 C          -3.0794  -26.7858  -45.1612 C.2       13 UNK         0.5000 
     78 O          -3.6116  -27.8880  -45.0261 O.2       13 UNK        -0.5000 
     79 N          -1.9366  -26.5891  -45.8320 N.am      14 UNK        -0.5000 
     80 CA         -1.1922  -27.6304  -46.5440 C.3       14 UNK         0.1400 
     81 CB          0.2367  -27.1244  -46.8009 C.3       14 UNK        -0.1800 
     82 C          -1.8450  -28.0614  -47.8735 C.2       14 UNK         0.5000 
     83 O          -1.4256  -29.0695  -48.4431 O.2       14 UNK        -0.5000 
     84 N          -2.8228  -27.2801  -48.3584 N.am      15 UNK        -0.5000 
     85 CA         -3.4845  -27.3808  -49.6645 C.3       15 UNK         0.1400 
     86 CB         -4.2721  -28.7007  -49.7969 C.3       15 UNK        -0.1800 
     87 C          -2.5221  -27.1234  -50.8457 C.2       15 UNK         0.5000 
     88 O          -2.7433  -27.6233  -51.9500 O.2       15 UNK        -0.5000 
     89 N          -1.4777  -26.3244  -50.5909 N.am      16 UNK        -0.5000 
     90 CA         -0.5477  -25.7992  -51.5889 C.3       16 UNK         0.1400 
     91 CB          0.7864  -25.4718  -50.9001 C.3       16 UNK        -0.1800 
     92 C          -1.1188  -24.5486  -52.2837 C.2       16 UNK         0.5000 
     93 O          -0.7074  -24.2343  -53.4009 O.2       16 UNK        -0.5000 
     94 N          -2.0611  -23.8729  -51.6158 N.am      17 UNK        -0.5000 
     95 CA         -2.8464  -22.7608  -52.1348 C.3       17 UNK         0.1400 
     96 CB         -2.2271  -21.4293  -51.6749 C.3       17 UNK        -0.1800 
     97 C          -4.3220  -22.9590  -51.7370 C.2       17 UNK         0.5000 
     98 O          -4.7643  -24.1064  -51.6388 O.2       17 UNK        -0.5000 
     99 N          -5.0569  -21.8546  -51.5406 N.am      18 UNK        -0.5000 
    100 CA        -6.5132  -21.7616  -51.3798 C.3       18 UNK         0.1400 
    101 CB        -6.9944  -22.5393  -50.1356 C.3       18 UNK        -0.1800 
    102 C         -7.2871  -22.1462  -52.6611 C.2       18 UNK         0.5000 
    103 O         -6.6827  -22.4070  -53.7057 O.2       18 UNK        -0.5000 
    104 N         -8.6251  -22.1344  -52.5667 N.am      19 UNK        -0.5000 
    105 CA        -9.5891  -22.3665  -53.6473 C.3       19 UNK         0.1400 
    106 CB        -9.5392  -23.8350  -54.1275 C.3       19 UNK        -0.1800 
    107 C         -9.4253  -21.3275  -54.7761 C.2       19 UNK         0.5000 
    108 O         -9.8584  -20.1867  -54.6072 O.2       19 UNK        -0.5000 
    109 N         -8.8009  -21.7276  -55.8912 N.am      20 UNK        -0.5000 
    110 CA        -8.4662  -20.8543  -57.0169 C.3       20 UNK         0.1400 
    111 CB        -8.2068  -21.7230  -58.2577 C.3       20 UNK        -0.1800 
    112 C         -7.2554  -19.9404  -56.7365 C.2       20 UNK         0.5000 
    113 O         -7.1377  -18.8900  -57.3698 O.2       20 UNK        -0.5000 
    114 N         -6.3783  -20.3505  -55.8113 N.am      21 UNK        -0.5000 
    115 CA        -5.2172  -19.5872  -55.3584 C.3       21 UNK         0.1400 
    116 CB        -4.0666  -20.5703  -55.0856 C.3       21 UNK        -0.1800 
    117 C         -5.5579  -18.7647  -54.1013 C.2       21 UNK         0.5000 
    118 O         -6.6580  -18.8812  -53.5547 O.2       21 UNK        -0.5000 
    119 N         -4.5982  -17.9404  -53.6663 N.am      22 UNK        -0.5000 
    120 CA        -4.6747  -17.1177  -52.4496 C.3       22 UNK         0.1400 
    121 C         -4.8420  -17.9319  -51.1332 C.2       22 UNK         0.5000 
    122 N         -5.4059  -17.3320  -50.0939 N.am      22 UNK        -0.7600 
    123 O         -4.4360  -19.0860  -51.0315 O.2       22 UNK        -0.5000 
    124 C124       -3.4881  -16.1208  -52.3641 C.3       23 UNK        -0.0398 
    125 S125       -1.8251  -16.8849  -52.4253 S.3       23 UNK        -0.2404 
    126 C126       -1.4329  -16.9767  -50.6511 C.3       23 UNK        -0.0205 
    127 H127        0.2603  -12.2828  -48.0279 H         1 UNK         0.0600 
    128 H128        0.4274  -12.0748  -46.2813 H         1 UNK         0.0600 
    129 H129        0.3169  -13.6979  -46.9738 H         1 UNK         0.0600 
    130 H130        2.1830  -11.9368  -49.0960 H         1 UNK         0.3000 
    131 H131        4.3029  -11.7873  -49.6647 H         1 UNK         0.0600 
    132 H132        5.8453  -13.6440  -49.2704 H         1 UNK         0.0800 
    133 H133        4.9048  -14.2262  -47.9271 H         1 UNK         0.0800 
    134 H134        4.0184  -16.5133  -48.4361 H         1 UNK         0.0800 
    135 H135        2.6781  -15.4464  -48.0906 H         1 UNK         0.0800 
    136 H136        0.6343  -15.4907  -49.6639 H         1 UNK         0.1150 
    137 H137       -0.3305  -19.4339  -51.0328 H         1 UNK         0.1150 
    138 H138        3.6004  -18.5809  -49.5526 H         1 UNK         0.1150 
    139 H139        1.4877  -21.0650  -51.3439 H         1 UNK         0.0800 
    140 H140        3.1290  -20.6230  -50.9557 H         1 UNK         0.0800 
    141 H141       -0.1348  -22.1335  -49.8363 H         1 UNK         0.0800 
    142 H142       -0.2257  -20.8344  -48.6646 H         1 UNK         0.0800 
    143 H143        0.5107  -23.7013  -47.9008 H         1 UNK         0.0600 
    144 H144        0.3776  -21.3459  -46.3288 H         1 UNK         0.3000 
    145 H145       -0.1840  -23.0359  -43.1772 H         1 UNK         0.0600 
    146 H146        1.7935  -21.6419  -42.6639 H         1 UNK         0.0600 
    147 H147        2.1019  -21.3895  -44.3800 H         1 UNK         0.0600 
    148 H148        2.2539  -22.9963  -43.6838 H         1 UNK         0.0600 
    149 H149       -0.0683  -20.2656  -43.7408 H         1 UNK         0.3000 
    150 H150       -3.5757  -19.7738  -44.3750 H         1 UNK         0.0600 
    151 H151       -3.2088  -18.1338  -42.5536 H         1 UNK         0.0600 
    152 H152       -1.7162  -18.9433  -42.0847 H         1 UNK         0.0600 
    153 H153       -3.2612  -19.7643  -41.8991 H         1 UNK         0.0600 
    154 H154       -1.4552  -17.9100  -44.3549 H         1 UNK         0.3000 
    155 H155       -0.4317  -18.2662  -47.7722 H         1 UNK         0.0600 
    156 H156       -2.3736  -16.7053  -47.6884 H         1 UNK         0.0600 
    157 H157       -0.8599  -15.8183  -47.6069 H         1 UNK         0.0600 
    158 H158       -1.8217  -16.0590  -46.1514 H         1 UNK         0.0600 
    159 H159        0.5295  -16.6946  -45.5659 H         1 UNK         0.3000 
    160 H160        3.0188  -18.9944  -44.4659 H         1 UNK         0.0600 
    161 H161        3.2948  -16.3375  -45.9616 H         1 UNK         0.0600 
    162 H162        4.0167  -17.8661  -46.4703 H         1 UNK         0.0600 
    163 H163        4.5196  -17.1157  -44.9646 H         1 UNK         0.0600 
    164 H164        2.3403  -16.3019  -43.7251 H         1 UNK         0.3000 
    165 H165       -0.0033  -17.1736  -41.1780 H         1 UNK         0.0600 
    166 H166        1.6035  -15.8552  -39.8347 H         1 UNK         0.0600 
    167 H167        2.2755  -17.4416  -40.1762 H         1 UNK         0.0600 
    168 H168        2.8448  -16.0390  -41.0739 H         1 UNK         0.0600 
    169 H169        0.9317  -14.6395  -41.9200 H         1 UNK         0.3000 
    170 H170       -0.6102  -13.7968  -44.6082 H         1 UNK         0.0600 
    171 H171       -2.7886  -13.6514  -42.4631 H         1 UNK         0.0600 
    172 H172       -2.6379  -12.5547  -43.8361 H         1 UNK         0.0600 
    173 H173       -2.9730  -14.2568  -44.1019 H         1 UNK         0.0600 
    174 H174        0.4918  -12.2531  -43.4883 H         1 UNK         0.3000 
    175 H175        0.4296  -10.3742  -41.6518 H         1 UNK         0.0600 
    176 H176        1.2717  -11.9359  -39.1559 H         1 UNK         0.0600 
    177 H177        1.5303  -10.2131  -39.4313 H         1 UNK         0.0600 
    178 H178       -0.1007  -10.8399  -39.2743 H         1 UNK         0.0600 
    179 H179        2.8678  -11.8068  -41.0134 H         1 UNK         0.3000 
    180 H180        4.6953  -11.1504  -42.4986 H         1 UNK         0.0600 
    181 H181        5.3513  -13.3733  -43.5398 H         1 UNK         0.0600 
    182 H182        3.6527  -13.6838  -43.8878 H         1 UNK         0.0600 
    183 H183        4.1994  -13.5393  -42.2260 H         1 UNK         0.0600 
    184 H184        4.0668  -11.6425  -45.3678 H         1 UNK         0.3000 
    185 H185        4.2255   -8.5387  -46.2953 H         1 UNK         0.0600 
    186 H186        6.3140   -8.4094  -47.6848 H         1 UNK         0.0600 
    187 H187        6.5708   -7.9302  -46.0160 H         1 UNK         0.0600 
    188 H188        7.1155   -9.5066  -46.5593 H         1 UNK         0.0600 
    189 H189        3.5242  -10.1335  -47.6207 H         1 UNK         0.3000 
    190 H190       -2.3265  -21.6970  -46.9783 H         1 UNK         0.3000 
    191 H191       -4.2518  -23.1456  -48.4728 H         1 UNK         0.0600 
    192 H192       -4.7153  -20.9168  -47.5371 H         1 UNK         0.0600 
    193 H193       -4.5429  -21.5209  -45.8912 H         1 UNK         0.0600 
    194 H194       -5.8810  -22.0641  -46.8913 H         1 UNK         0.0600 
    195 H195       -3.1466  -23.5673  -45.0700 H         1 UNK         0.3000 
    196 H196       -4.8143  -25.7679  -44.4299 H         1 UNK         0.0600 
    197 H197       -3.6936  -24.3765  -42.7205 H         1 UNK         0.0600 
    198 H198       -2.1087  -24.9199  -43.2666 H         1 UNK         0.0600 
    199 H199       -3.2237  -26.0573  -42.5171 H         1 UNK         0.0600 
    200 H200       -1.5237  -25.6603  -45.8308 H         1 UNK         0.3000 
    201 H201       -1.1334  -28.5139  -45.9052 H         1 UNK         0.0600 
    202 H202        0.7402  -26.8736  -45.8672 H         1 UNK         0.0600 
    203 H203        0.2391  -26.2351  -47.4324 H         1 UNK         0.0600 
    204 H204        0.8402  -27.8833  -47.3004 H         1 UNK         0.0600 
    205 H205       -3.0847  -26.4717  -47.8087 H         1 UNK         0.3000 
    206 H206       -4.2091  -26.5653  -49.6914 H         1 UNK         0.0600 
    207 H207       -3.6112  -29.5647  -49.8681 H         1 UNK         0.0600 
    208 H208       -4.9334  -28.8516  -48.9437 H         1 UNK         0.0600 
    209 H209       -4.8952  -28.6938  -50.6918 H         1 UNK         0.0600 
    210 H210       -1.4243  -25.9033  -49.6681 H         1 UNK         0.3000 
    211 H211       -0.3670  -26.5599  -52.3511 H         1 UNK         0.0600 
    212 H212        0.6699  -24.6975  -50.1421 H         1 UNK         0.0600 
    213 H213        1.5209  -25.1141  -51.6228 H         1 UNK         0.0600 
    214 H214        1.2074  -26.3534  -50.4164 H         1 UNK         0.0600 
    215 H215       -2.3552  -24.2311  -50.7157 H         1 UNK         0.3000 
    216 H216       -2.8234  -22.7880  -53.2257 H         1 UNK         0.0600 
    217 H217       -2.6709  -20.5852  -52.2021 H         1 UNK         0.0600 
    218 H218       -2.3568  -21.2664  -50.6041 H         1 UNK         0.0600 
    219 H219       -1.1609  -21.4057  -51.8975 H         1 UNK         0.0600 
    220 H220       -4.5964  -20.9488  -51.5773 H         1 UNK         0.3000 
    221 H221       -6.7195  -20.7042  -51.2088 H         1 UNK         0.0600 
    222 H222       -6.9344  -23.6187  -50.2765 H         1 UNK         0.0600 
    223 H223       -6.3991  -22.2812  -49.2624 H         1 UNK         0.0600 
    224 H224       -8.0298  -22.3009  -49.8923 H         1 UNK         0.0600 
    225 H225       -9.0339  -21.8700  -51.6817 H         1 UNK         0.3000 
    226 H226      -10.5793  -22.1992  -53.2206 H         1 UNK         0.0600 
    227 H227       -9.7756  -24.5164  -53.3102 H         1 UNK         0.0600 
    228 H228      -10.2722  -24.0135  -54.9153 H         1 UNK         0.0600 
    229 H229       -8.5607  -24.1188  -54.5152 H         1 UNK         0.0600 
    230 H230       -8.4527  -22.6747  -55.9313 H         1 UNK         0.3000 
    231 H231       -9.3236  -20.2111  -57.2263 H         1 UNK         0.0600 
    232 H232       -7.9816  -21.1044  -59.1275 H         1 UNK         0.0600 
    233 H233       -9.0800  -22.3263  -58.5068 H         1 UNK         0.0600 
    234 H234       -7.3630  -22.3976  -58.1073 H         1 UNK         0.0600 
    235 H235       -6.5935  -21.1805  -55.2670 H         1 UNK         0.3000 
    236 H236       -4.8978  -18.8936  -56.1389 H         1 UNK         0.0600 
    237 H237       -4.3273  -21.2745  -54.2980 H         1 UNK         0.0600 
    238 H238       -3.8223  -21.1463  -55.9783 H         1 UNK         0.0600 
    239 H239       -3.1578  -20.0521  -54.7780 H         1 UNK         0.0600 
    240 H240       -3.7096  -17.9218  -54.1446 H         1 UNK         0.3000 
    241 H241       -5.5841  -16.5224  -52.5521 H         1 UNK         0.0600 
    242 H242       -5.5071  -17.8493  -49.2356 H         1 UNK         0.3800 
    243 H243       -5.7530  -16.3871  -50.1455 H         1 UNK         0.3800 
    244 H244       -3.5512  -15.4278  -53.2040 H         1 UNK         0.0800 
    245 H245       -3.5744  -15.4932  -51.4757 H         1 UNK         0.0800 
    246 H246       -1.6179  -16.0050  -50.1910 H         1 UNK         0.0800 
    247 H247       -2.1064  -17.6827  -50.1641 H         1 UNK         0.0800 
@<TRIPOS>BOND
     1    1    2 1    
     2    1  127 1    
     3    1  128 1    
     4    1  129 1    
     5    2    3 2    
     6    2    4 am   BACKBONE|DICT|INTERRES
     7    4    5 1    
     8    4  130 1    
     9    5    6 1    
    10    5   65 1    
    11    5  131 1    
    12    6    7 1    
    13    6  132 1    
    14    6  133 1    
    15    7    8 1    
    16    8    9 1    
    17    8  134 1    
    18    8  135 1    
    19    9   10 ar   
    20    9   14 ar   
    21   10   11 ar   
    22   10  136 1    
    23   11   12 ar   
    24   11  126 1    
    25   12   13 ar   
    26   12  137 1    
    27   13   14 ar   
    28   13   15 1    
    29   14  138 1    
    30   15   16 1    
    31   15  139 1    
    32   15  140 1    
    33   16   17 1    
    34   17   18 1    
    35   17  141 1    
    36   17  142 1    
    37   18   19 1    
    38   18   67 1    
    39   18  143 1    
    40   19   20 am   BACKBONE|DICT|INTERRES
    41   19  144 1    
    42   20   21 2    
    43   20   22 1    
    44   22   23 1    
    45   22   24 1    
    46   22  145 1    
    47   23  146 1    
    48   23  147 1    
    49   23  148 1    
    50   24   25 am   BACKBONE|DICT|INTERRES
    51   24  149 1    
    52   25   26 2    
    53   25   27 1    
    54   27   28 1    
    55   27   29 1    
    56   27  150 1    
    57   28  151 1    
    58   28  152 1    
    59   28  153 1    
    60   29   30 am   BACKBONE|DICT|INTERRES
    61   29  154 1    
    62   30   31 2    
    63   30   32 1    
    64   32   33 1    
    65   32   34 1    
    66   32  155 1    
    67   33  156 1    
    68   33  157 1    
    69   33  158 1    
    70   34   35 am   BACKBONE|DICT|INTERRES
    71   34  159 1    
    72   35   36 2    
    73   35   37 1    
    74   37   38 1    
    75   37   39 1    
    76   37  160 1    
    77   38  161 1    
    78   38  162 1    
    79   38  163 1    
    80   39   40 am   BACKBONE|DICT|INTERRES
    81   39  164 1    
    82   40   41 2    
    83   40   42 1    
    84   42   43 1    
    85   42   44 1    
    86   42  165 1    
    87   43  166 1    
    88   43  167 1    
    89   43  168 1    
    90   44   45 am   BACKBONE|DICT|INTERRES
    91   44  169 1    
    92   45   46 2    
    93   45   47 1    
    94   47   48 1    
    95   47   49 1    
    96   47  170 1    
    97   48  171 1    
    98   48  172 1    
    99   48  173 1    
   100   49   50 am   BACKBONE|DICT|INTERRES
   101   49  174 1    
   102   50   51 2    
   103   50   52 1    
   104   52   53 1    
   105   52   54 1    
   106   52  175 1    
   107   53  176 1    
   108   53  177 1    
   109   53  178 1    
   110   54   55 am   BACKBONE|DICT|INTERRES
   111   54  179 1    
   112   55   56 2    
   113   55   57 1    
   114   57   58 1    
   115   57   59 1    
   116   57  180 1    
   117   58  181 1    
   118   58  182 1    
   119   58  183 1    
   120   59   60 am   BACKBONE|DICT|INTERRES
   121   59  184 1    
   122   60   61 2    
   123   60   62 1    
   124   62   63 1    
   125   62   64 1    
   126   62  185 1    
   127   63  186 1    
   128   63  187 1    
   129   63  188 1    
   130   64   65 am   BACKBONE|DICT|INTERRES
   131   64  189 1    
   132   65   66 2    
   133   67   68 2    
   134   67   69 am   BACKBONE|DICT|INTERRES
   135   69   70 1    
   136   69  190 1    
   137   70   71 1    
   138   70   72 1    
   139   70  191 1    
   140   71  192 1    
   141   71  193 1    
   142   71  194 1    
   143   72   73 2    
   144   72   74 am   BACKBONE|DICT|INTERRES
   145   74   75 1    
   146   74  195 1    
   147   75   76 1    
   148   75   77 1    
   149   75  196 1    
   150   76  197 1    
   151   76  198 1    
   152   76  199 1    
   153   77   78 2    
   154   77   79 am   BACKBONE|DICT|INTERRES
   155   79   80 1    
   156   79  200 1    
   157   80   81 1    
   158   80   82 1    
   159   80  201 1    
   160   81  202 1    
   161   81  203 1    
   162   81  204 1    
   163   82   83 2    
   164   82   84 am   BACKBONE|DICT|INTERRES
   165   84   85 1    
   166   84  205 1    
   167   85   86 1    
   168   85   87 1    
   169   85  206 1    
   170   86  207 1    
   171   86  208 1    
   172   86  209 1    
   173   87   88 2    
   174   87   89 am   BACKBONE|DICT|INTERRES
   175   89   90 1    
   176   89  210 1    
   177   90   91 1    
   178   90   92 1    
   179   90  211 1    
   180   91  212 1    
   181   91  213 1    
   182   91  214 1    
   183   92   93 2    
   184   92   94 am   BACKBONE|DICT|INTERRES
   185   94   95 1    
   186   94  215 1    
   187   95   96 1    
   188   95   97 1    
   189   95  216 1    
   190   96  217 1    
   191   96  218 1    
   192   96  219 1    
   193   97   98 2    
   194   97   99 am   BACKBONE|DICT|INTERRES
   195   99  100 1    
   196   99  220 1    
   197  100  101 1    
   198  100  102 1    
   199  100  221 1    
   200  101  222 1    
   201  101  223 1    
   202  101  224 1    
   203  102  103 2    
   204  102  104 am   BACKBONE|DICT|INTERRES
   205  104  105 1    
   206  104  225 1    
   207  105  106 1    
   208  105  107 1    
   209  105  226 1    
   210  106  227 1    
   211  106  228 1    
   212  106  229 1    
   213  107  108 2    
   214  107  109 am   BACKBONE|DICT|INTERRES
   215  109  110 1    
   216  109  230 1    
   217  110  111 1    
   218  110  112 1    
   219  110  231 1    
   220  111  232 1    
   221  111  233 1    
   222  111  234 1    
   223  112  113 2    
   224  112  114 am   BACKBONE|DICT|INTERRES
   225  114  115 1    
   226  114  235 1    
   227  115  116 1    
   228  115  117 1    
   229  115  236 1    
   230  116  237 1    
   231  116  238 1    
   232  116  239 1    
   233  117  118 2    
   234  117  119 am   BACKBONE|DICT|INTERRES
   235  119  120 1    
   236  119  240 1    
   237  120  121 1    
   238  120  124 1    
   239  120  241 1    
   240  121  122 am   BACKBONE|DICT|INTERRES
   241  121  123 2    
   242  122  242 1    
   243  122  243 1    
   244  124  125 1    
   245  124  244 1    
   246  124  245 1    
   247  125  126 1    
   248  126  246 1    
   249  126  247 1    
@<TRIPOS>SUBSTRUCTURE
     1 UNK         1 GROUP             0       ****    0 ROOT    
