@<TRIPOS>MOLECULE
3R540
247   249    1
SMALL
USER_CHARGES


@<TRIPOS>ATOM
      1 CA          5.2815  -13.2562  -43.1373 C.3       0 UNK        -0.1800 
      2 C           4.3544  -13.8394  -44.1927 C.2       0 UNK         0.5000 
      3 O           3.6332  -14.7941  -43.9076 O.2       0 UNK        -0.5000 
      4 N           4.3680  -13.2677  -45.4027 N.am      1 UNK        -0.5000 
      5 CA          3.5306  -13.6692  -46.5429 C.3       1 UNK         0.1400 
      6 C6          4.3838  -14.2702  -47.6975 C.3       23 UNK        -0.0398 
      7 S7          3.7784  -15.9123  -48.2023 S.3       23 UNK        -0.2404 
      8 C8          3.1157  -15.5878  -49.8644 C.3       23 UNK        -0.0205 
      9 C9          2.3740  -16.7918  -50.4345 C.ar      23 UNK        -0.0193 
     10 C10         1.1053  -16.6275  -50.9978 C.ar      23 UNK        -0.1150 
     11 C11         0.4258  -17.7142  -51.5570 C.ar      23 UNK        -0.0193 
     12 C12         1.0153  -18.9811  -51.5317 C.ar      23 UNK        -0.1150 
     13 C13         2.2749  -19.1647  -50.9528 C.ar      23 UNK        -0.0193 
     14 C14         2.9545  -18.0651  -50.4228 C.ar      23 UNK        -0.1150 
     15 C15         2.9058  -20.5485  -50.8961 C.3       23 UNK        -0.0205 
     16 S16         2.6610  -21.3367  -49.2710 S.3       23 UNK        -0.2404 
     17 C17         0.8527  -21.5468  -49.2691 C.3       23 UNK        -0.0398 
     18 CA          0.3602  -22.5956  -48.2456 C.3       11 UNK         0.1400 
     19 N           0.5316  -22.1751  -46.8491 N.am      11 UNK        -0.5000 
     20 C           0.2856  -22.9603  -45.7883 C.2       10 UNK         0.5000 
     21 O          -0.0285  -24.1473  -45.8782 O.2       10 UNK        -0.5000 
     22 CA          0.3340  -22.3047  -44.3953 C.3       10 UNK         0.1400 
     23 CB          1.7754  -22.2084  -43.8744 C.3       10 UNK        -0.1800 
     24 N          -0.3022  -20.9864  -44.3733 N.am      10 UNK        -0.5000 
     25 C          -1.6088  -20.7758  -44.5924 C.2       9 UNK         0.5000 
     26 O          -2.4227  -21.6819  -44.7641 O.2       9 UNK        -0.5000 
     27 CA         -2.0817  -19.3132  -44.6926 C.3       9 UNK         0.1400 
     28 CB         -2.3634  -18.7251  -43.3026 C.3       9 UNK        -0.1800 
     29 N          -1.1278  -18.4646  -45.4054 N.am      9 UNK        -0.5000 
     30 C          -0.7845  -18.6212  -46.6926 C.2       8 UNK         0.5000 
     31 O          -1.3005  -19.4502  -47.4413 O.2       8 UNK        -0.5000 
     32 CA          0.3694  -17.7439  -47.2073 C.3       8 UNK         0.1400 
     33 CB         -0.1466  -16.3616  -47.6308 C.3       8 UNK        -0.1800 
     34 N           1.4201  -17.6044  -46.1963 N.am      8 UNK        -0.5000 
     35 C           2.2329  -18.6060  -45.8296 C.2       7 UNK         0.5000 
     36 O           2.1944  -19.7270  -46.3341 O.2       7 UNK        -0.5000 
     37 CA          3.2010  -18.3409  -44.6617 C.3       7 UNK         0.1400 
     38 CB          4.5372  -17.7664  -45.1511 C.3       7 UNK        -0.1800 
     39 N           2.6231  -17.4597  -43.6469 N.am      7 UNK        -0.5000 
     40 C           1.6526  -17.8400  -42.8051 C.2       6 UNK         0.5000 
     41 O           1.1791  -18.9758  -42.7886 O.2       6 UNK        -0.5000 
     42 CA          1.0885  -16.7756  -41.8456 C.3       6 UNK         0.1400 
     43 CB          1.9295  -16.7063  -40.5629 C.3       6 UNK        -0.1800 
     44 N           1.0001  -15.4381  -42.4299 N.am      6 UNK        -0.5000 
     45 C           0.2955  -15.0974  -43.5139 C.2       5 UNK         0.5000 
     46 O          -0.3746  -15.9017  -44.1638 O.2       5 UNK        -0.5000 
     47 CA          0.3622  -13.6134  -43.9351 C.3       5 UNK         0.1400 
     48 CB         -0.4889  -13.3059  -45.1790 C.3       5 UNK        -0.1800 
     49 N          -0.0350  -12.6919  -42.8718 N.am      5 UNK        -0.5000 
     50 C           0.6973  -12.3318  -41.8106 C.2       4 UNK         0.5000 
     51 O           1.7862  -12.8365  -41.5301 O.2       4 UNK        -0.5000 
     52 CA          0.1306  -11.1679  -40.9695 C.3       4 UNK         0.1400 
     53 CB          0.9051  -10.9507  -39.6576 C.3       4 UNK        -0.1800 
     54 N           0.1705   -9.9320  -41.7522 N.am      4 UNK        -0.5000 
     55 C          -0.6938   -9.6052  -42.7213 C.2       3 UNK         0.5000 
     56 O          -1.7297  -10.2336  -42.9472 O.2       3 UNK        -0.5000 
     57 CA         -0.3037   -8.4423  -43.6548 C.3       3 UNK         0.1400 
     58 CB          0.6016   -7.3790  -42.9931 C.3       3 UNK        -0.1800 
     59 N           0.2907   -8.9596  -44.8951 N.am      3 UNK        -0.5000 
     60 C           1.4066   -9.6950  -45.0093 C.2       2 UNK         0.5000 
     61 O           2.1732   -9.9465  -44.0747 O.2       2 UNK        -0.5000 
     62 CA          1.7205  -10.2562  -46.4034 C.3       2 UNK         0.1400 
     63 CB          2.4408   -9.2170  -47.2784 C.3       2 UNK        -0.1800 
     64 N           2.5715  -11.4258  -46.2228 N.am      2 UNK        -0.5000 
     65 C           2.6234  -12.5070  -47.0088 C.2       1 UNK         0.5000 
     66 O           1.9770  -12.6145  -48.0508 O.2       1 UNK        -0.5000 
     67 C          -1.1018  -22.9791  -48.5488 C.2       11 UNK         0.5000 
     68 O          -1.3321  -24.0265  -49.1503 O.2       11 UNK        -0.5000 
     69 N          -2.0609  -22.1526  -48.1067 N.am      12 UNK        -0.5000 
     70 CA         -3.4961  -22.4067  -48.2467 C.3       12 UNK         0.1400 
     71 CB         -4.2933  -21.1811  -47.7789 C.3       12 UNK        -0.1800 
     72 C          -3.9493  -23.6787  -47.5080 C.2       12 UNK         0.5000 
     73 O          -4.7059  -24.4679  -48.0712 O.2       12 UNK        -0.5000 
     74 N          -3.4453  -23.8861  -46.2835 N.am      13 UNK        -0.5000 
     75 CA         -3.6727  -25.0913  -45.4849 C.3       13 UNK         0.1400 
     76 CB         -3.0903  -24.9018  -44.0766 C.3       13 UNK        -0.1800 
     77 C          -3.1065  -26.3581  -46.1520 C.2       13 UNK         0.5000 
     78 O          -3.8090  -27.3671  -46.2246 O.2       13 UNK        -0.5000 
     79 N          -1.8760  -26.2705  -46.6789 N.am      14 UNK        -0.5000 
     80 CA         -1.2208  -27.3329  -47.4489 C.3       14 UNK         0.1400 
     81 CB          0.2394  -26.9430  -47.7225 C.3       14 UNK        -0.1800 
     82 C          -1.9541  -27.6657  -48.7641 C.2       14 UNK         0.5000 
     83 O          -1.9905  -28.8295  -49.1640 O.2       14 UNK        -0.5000 
     84 N          -2.5663  -26.6476  -49.3819 N.am      15 UNK        -0.5000 
     85 CA         -3.4228  -26.7499  -50.5638 C.3       15 UNK         0.1400 
     86 CB         -3.3959  -25.4048  -51.3106 C.3       15 UNK        -0.1800 
     87 C          -4.8706  -27.1893  -50.2433 C.2       15 UNK         0.5000 
     88 O          -5.7102  -27.1663  -51.1429 O.2       15 UNK        -0.5000 
     89 N          -5.1479  -27.5784  -48.9888 N.am      16 UNK        -0.5000 
     90 CA         -6.4269  -28.0752  -48.4700 C.3       16 UNK         0.1400 
     91 CB         -6.8239  -29.4032  -49.1493 C.3       16 UNK        -0.1800 
     92 C          -7.5443  -27.0123  -48.5009 C.2       16 UNK         0.5000 
     93 O          -8.6732  -27.3052  -48.8985 O.2       16 UNK        -0.5000 
     94 N          -7.1933  -25.7941  -48.0671 N.am      17 UNK        -0.5000 
     95 CA         -8.0279  -24.5924  -47.9562 C.3       17 UNK         0.1400 
     96 CB         -9.2725  -24.8330  -47.0756 C.3       17 UNK        -0.1800 
     97 C          -8.3619  -23.9347  -49.3104 C.2       17 UNK         0.5000 
     98 O          -9.2525  -23.0846  -49.3705 O.2       17 UNK        -0.5000 
     99 N          -7.6228  -24.3004  -50.3654 N.am      18 UNK        -0.5000 
    100 CA        -7.6279  -23.6154  -51.6564 C.3       18 UNK         0.1400 
    101 CB        -7.1200  -24.5848  -52.7349 C.3       18 UNK        -0.1800 
    102 C         -6.7631  -22.3396  -51.6072 C.2       18 UNK         0.5000 
    103 O         -6.0407  -22.1086  -50.6354 O.2       18 UNK        -0.5000 
    104 N         -6.8315  -21.5398  -52.6786 N.am      19 UNK        -0.5000 
    105 CA        -6.1179  -20.2658  -52.8219 C.3       19 UNK         0.1400 
    106 CB        -6.7346  -19.4896  -53.9958 C.3       19 UNK        -0.1800 
    107 C         -4.5900  -20.3943  -53.0055 C.2       19 UNK         0.5000 
    108 O         -3.9008  -19.3754  -52.9715 O.2       19 UNK        -0.5000 
    109 N         -4.0896  -21.6215  -53.2230 N.am      20 UNK        -0.5000 
    110 CA        -2.6755  -21.9818  -53.3962 C.3       20 UNK         0.1400 
    111 CB        -1.9084  -21.8227  -52.0685 C.3       20 UNK        -0.1800 
    112 C         -2.0078  -21.2468  -54.5786 C.2       20 UNK         0.5000 
    113 O         -0.8740  -20.7803  -54.4658 O.2       20 UNK        -0.5000 
    114 N         -2.7588  -21.1516  -55.6858 N.am      21 UNK        -0.5000 
    115 CA        -2.4269  -20.5130  -56.9658 C.3       21 UNK         0.1400 
    116 CB        -1.1479  -21.1170  -57.5830 C.3       21 UNK        -0.1800 
    117 C         -2.3862  -18.9692  -56.9407 C.2       21 UNK         0.5000 
    118 O         -2.1338  -18.3691  -57.9875 O.2       21 UNK        -0.5000 
    119 N         -2.6628  -18.3425  -55.7901 N.am      22 UNK        -0.5000 
    120 CA        -2.8295  -16.8862  -55.6659 C.3       22 UNK         0.1400 
    121 C         -4.2229  -16.4072  -56.1636 C.2       22 UNK         0.5000 
    122 N         -4.3572  -15.1326  -56.5051 N.am      22 UNK        -0.7600 
    123 O         -5.1894  -17.1641  -56.2266 O.2       22 UNK        -0.5000 
    124 C124       -2.5488  -16.3929  -54.2250 C.3       23 UNK        -0.0398 
    125 S125       -0.7972  -16.6105  -53.7651 S.3       23 UNK        -0.2404 
    126 C126       -0.9407  -17.5111  -52.1922 C.3       23 UNK        -0.0205 
    127 H127        4.6984  -12.8992  -42.2881 H         1 UNK         0.0600 
    128 H128        5.8660  -12.4217  -43.5250 H         1 UNK         0.0600 
    129 H129        5.9714  -14.0212  -42.7815 H         1 UNK         0.0600 
    130 H130        4.9984  -12.4968  -45.5777 H         1 UNK         0.3000 
    131 H131        2.8214  -14.4261  -46.2020 H         1 UNK         0.0600 
    132 H132        4.4454  -13.6093  -48.5643 H         1 UNK         0.0800 
    133 H133        5.4175  -14.4113  -47.3781 H         1 UNK         0.0800 
    134 H134        3.9339  -15.3231  -50.5352 H         1 UNK         0.0800 
    135 H135        2.4540  -14.7215  -49.8149 H         1 UNK         0.0800 
    136 H136        0.6483  -15.6481  -51.0198 H         1 UNK         0.1150 
    137 H137        0.4928  -19.8240  -51.9620 H         1 UNK         0.1150 
    138 H138        3.9330  -18.2053  -49.9854 H         1 UNK         0.1150 
    139 H139        2.5005  -21.1890  -51.6811 H         1 UNK         0.0800 
    140 H140        3.9761  -20.4694  -51.0917 H         1 UNK         0.0800 
    141 H141        0.5632  -21.8432  -50.2782 H         1 UNK         0.0800 
    142 H142        0.3873  -20.5775  -49.0896 H         1 UNK         0.0800 
    143 H143        0.9562  -23.5005  -48.3825 H         1 UNK         0.0600 
    144 H144        0.8543  -21.2251  -46.6952 H         1 UNK         0.3000 
    145 H145       -0.2227  -22.9472  -43.7101 H         1 UNK         0.0600 
    146 H146        1.8056  -21.7778  -42.8734 H         1 UNK         0.0600 
    147 H147        2.2331  -23.1967  -43.8177 H         1 UNK         0.0600 
    148 H148        2.4026  -21.5968  -44.5213 H         1 UNK         0.0600 
    149 H149        0.2939  -20.1922  -44.1672 H         1 UNK         0.3000 
    150 H150       -3.0158  -19.3039  -45.2575 H         1 UNK         0.0600 
    151 H151       -3.1257  -19.3064  -42.7826 H         1 UNK         0.0600 
    152 H152       -2.7265  -17.6996  -43.3739 H         1 UNK         0.0600 
    153 H153       -1.4722  -18.7211  -42.6762 H         1 UNK         0.0600 
    154 H154       -0.6970  -17.7122  -44.8764 H         1 UNK         0.3000 
    155 H155        0.8045  -18.2269  -48.0852 H         1 UNK         0.0600 
    156 H156       -0.7262  -15.8891  -46.8389 H         1 UNK         0.0600 
    157 H157        0.6702  -15.6929  -47.9021 H         1 UNK         0.0600 
    158 H158       -0.7988  -16.4475  -48.5005 H         1 UNK         0.0600 
    159 H159        1.4663  -16.7303  -45.6952 H         1 UNK         0.3000 
    160 H160        3.4137  -19.3046  -44.1941 H         1 UNK         0.0600 
    161 H161        4.4228  -16.7559  -45.5390 H         1 UNK         0.0600 
    162 H162        4.9613  -18.3799  -45.9471 H         1 UNK         0.0600 
    163 H163        5.2668  -17.7285  -44.3423 H         1 UNK         0.0600 
    164 H164        2.9572  -16.4974  -43.6245 H         1 UNK         0.3000 
    165 H165        0.0762  -17.0812  -41.5745 H         1 UNK         0.0600 
    166 H166        1.4862  -16.0241  -39.8372 H         1 UNK         0.0600 
    167 H167        2.0008  -17.6856  -40.0878 H         1 UNK         0.0600 
    168 H168        2.9448  -16.3640  -40.7680 H         1 UNK         0.0600 
    169 H169        1.5333  -14.7012  -41.9768 H         1 UNK         0.3000 
    170 H170        1.3990  -13.3951  -44.1898 H         1 UNK         0.0600 
    171 H171       -0.1087  -13.8374  -46.0502 H         1 UNK         0.0600 
    172 H172       -1.5315  -13.5939  -45.0384 H         1 UNK         0.0600 
    173 H173       -0.4682  -12.2440  -45.4223 H         1 UNK         0.0600 
    174 H174       -0.9082  -12.1983  -43.0162 H         1 UNK         0.3000 
    175 H175       -0.9040  -11.4072  -40.7147 H         1 UNK         0.0600 
    176 H176        1.9477  -10.6882  -39.8417 H         1 UNK         0.0600 
    177 H177        0.4587  -10.1519  -39.0652 H         1 UNK         0.0600 
    178 H178        0.8958  -11.8533  -39.0454 H         1 UNK         0.0600 
    179 H179        1.0338   -9.4096  -41.7054 H         1 UNK         0.3000 
    180 H180       -1.2347   -7.9477  -43.9362 H         1 UNK         0.0600 
    181 H181        1.5850   -7.7653  -42.7256 H         1 UNK         0.0600 
    182 H182        0.1427   -6.9902  -42.0832 H         1 UNK         0.0600 
    183 H183        0.7549   -6.5324  -43.6622 H         1 UNK         0.0600 
    184 H184       -0.2714   -8.8198  -45.7233 H         1 UNK         0.3000 
    185 H185        0.7832  -10.5531  -46.8789 H         1 UNK         0.0600 
    186 H186        1.8234   -8.3295  -47.4220 H         1 UNK         0.0600 
    187 H187        3.3806   -8.8957  -46.8277 H         1 UNK         0.0600 
    188 H188        2.6640   -9.6204  -48.2663 H         1 UNK         0.0600 
    189 H189        3.0684  -11.4278  -45.3402 H         1 UNK         0.3000 
    190 H190       -1.7915  -21.2769  -47.6655 H         1 UNK         0.3000 
    191 H191       -3.7029  -22.5542  -49.3077 H         1 UNK         0.0600 
    192 H192       -4.1342  -20.9724  -46.7215 H         1 UNK         0.0600 
    193 H193       -5.3628  -21.3362  -47.9266 H         1 UNK         0.0600 
    194 H194       -4.0133  -20.2916  -48.3435 H         1 UNK         0.0600 
    195 H195       -2.8750  -23.1586  -45.8597 H         1 UNK         0.3000 
    196 H196       -4.7524  -25.2232  -45.3878 H         1 UNK         0.0600 
    197 H197       -3.2732  -25.7804  -43.4569 H         1 UNK         0.0600 
    198 H198       -3.5457  -24.0483  -43.5742 H         1 UNK         0.0600 
    199 H199       -2.0132  -24.7370  -44.1033 H         1 UNK         0.0600 
    200 H200       -1.3452  -25.4137  -46.5457 H         1 UNK         0.3000 
    201 H201       -1.2214  -28.2356  -46.8346 H         1 UNK         0.0600 
    202 H202        0.7835  -26.7765  -46.7926 H         1 UNK         0.0600 
    203 H203        0.3085  -26.0321  -48.3172 H         1 UNK         0.0600 
    204 H204        0.7592  -27.7318  -48.2675 H         1 UNK         0.0600 
    205 H205       -2.4213  -25.7107  -49.0186 H         1 UNK         0.3000 
    206 H206       -3.0015  -27.5066  -51.2284 H         1 UNK         0.0600 
    207 H207       -2.3734  -25.0748  -51.4947 H         1 UNK         0.0600 
    208 H208       -3.8803  -25.4889  -52.2830 H         1 UNK         0.0600 
    209 H209       -3.9057  -24.6206  -50.7498 H         1 UNK         0.0600 
    210 H210       -4.4054  -27.5182  -48.3026 H         1 UNK         0.3000 
    211 H211       -6.2549  -28.2937  -47.4151 H         1 UNK         0.0600 
    212 H212       -7.0723  -29.2652  -50.2018 H         1 UNK         0.0600 
    213 H213       -7.6962  -29.8429  -48.6644 H         1 UNK         0.0600 
    214 H214       -6.0171  -30.1336  -49.0875 H         1 UNK         0.0600 
    215 H215       -6.2089  -25.6264  -47.8727 H         1 UNK         0.3000 
    216 H216       -7.4071  -23.8642  -47.4326 H         1 UNK         0.0600 
    217 H217       -9.7704  -23.8919  -46.8398 H         1 UNK         0.0600 
    218 H218       -9.0026  -25.3008  -46.1289 H         1 UNK         0.0600 
    219 H219      -10.0056  -25.4700  -47.5706 H         1 UNK         0.0600 
    220 H220       -6.8959  -24.9868  -50.2212 H         1 UNK         0.3000 
    221 H221       -8.6517  -23.3274  -51.9042 H         1 UNK         0.0600 
    222 H222       -6.0726  -24.8401  -52.5829 H         1 UNK         0.0600 
    223 H223       -7.6919  -25.5131  -52.7317 H         1 UNK         0.0600 
    224 H224       -7.2113  -24.1539  -53.7324 H         1 UNK         0.0600 
    225 H225       -7.4387  -21.7979  -53.4433 H         1 UNK         0.3000 
    226 H226       -6.2793  -19.6856  -51.9109 H         1 UNK         0.0600 
    227 H227       -7.8049  -19.3392  -53.8537 H         1 UNK         0.0600 
    228 H228       -6.2821  -18.5018  -54.0904 H         1 UNK         0.0600 
    229 H229       -6.5888  -20.0084  -54.9441 H         1 UNK         0.0600 
    230 H230       -4.7456  -22.3879  -53.2466 H         1 UNK         0.3000 
    231 H231       -2.6579  -23.0417  -53.6543 H         1 UNK         0.0600 
    232 H232       -0.8825  -22.1781  -52.1668 H         1 UNK         0.0600 
    233 H233       -2.3775  -22.4073  -51.2790 H         1 UNK         0.0600 
    234 H234       -1.8706  -20.7849  -51.7380 H         1 UNK         0.0600 
    235 H235       -3.6868  -21.5486  -55.6409 H         1 UNK         0.3000 
    236 H236       -3.2521  -20.7671  -57.6325 H         1 UNK         0.0600 
    237 H237       -1.0091  -20.7721  -58.6082 H         1 UNK         0.0600 
    238 H238       -0.2543  -20.8361  -57.0253 H         1 UNK         0.0600 
    239 H239       -1.1986  -22.2053  -57.6132 H         1 UNK         0.0600 
    240 H240       -2.8838  -18.8887  -54.9679 H         1 UNK         0.3000 
    241 H241       -2.0936  -16.4118  -56.3186 H         1 UNK         0.0600 
    242 H242       -5.2563  -14.8051  -56.8233 H         1 UNK         0.3800 
    243 H243       -3.5824  -14.4878  -56.4694 H         1 UNK         0.3800 
    244 H244       -2.7720  -15.3291  -54.1290 H         1 UNK         0.0800 
    245 H245       -3.1975  -16.9014  -53.5108 H         1 UNK         0.0800 
    246 H246       -1.4282  -18.4697  -52.3738 H         1 UNK         0.0800 
    247 H247       -1.5821  -16.9563  -51.5058 H         1 UNK         0.0800 
@<TRIPOS>BOND
     1    1    2 1    
     2    1  127 1    
     3    1  128 1    
     4    1  129 1    
     5    2    3 2    
     6    2    4 am   BACKBONE|DICT|INTERRES
     7    4    5 1    
     8    4  130 1    
     9    5    6 1    
    10    5   65 1    
    11    5  131 1    
    12    6    7 1    
    13    6  132 1    
    14    6  133 1    
    15    7    8 1    
    16    8    9 1    
    17    8  134 1    
    18    8  135 1    
    19    9   10 ar   
    20    9   14 ar   
    21   10   11 ar   
    22   10  136 1    
    23   11   12 ar   
    24   11  126 1    
    25   12   13 ar   
    26   12  137 1    
    27   13   14 ar   
    28   13   15 1    
    29   14  138 1    
    30   15   16 1    
    31   15  139 1    
    32   15  140 1    
    33   16   17 1    
    34   17   18 1    
    35   17  141 1    
    36   17  142 1    
    37   18   19 1    
    38   18   67 1    
    39   18  143 1    
    40   19   20 am   BACKBONE|DICT|INTERRES
    41   19  144 1    
    42   20   21 2    
    43   20   22 1    
    44   22   23 1    
    45   22   24 1    
    46   22  145 1    
    47   23  146 1    
    48   23  147 1    
    49   23  148 1    
    50   24   25 am   BACKBONE|DICT|INTERRES
    51   24  149 1    
    52   25   26 2    
    53   25   27 1    
    54   27   28 1    
    55   27   29 1    
    56   27  150 1    
    57   28  151 1    
    58   28  152 1    
    59   28  153 1    
    60   29   30 am   BACKBONE|DICT|INTERRES
    61   29  154 1    
    62   30   31 2    
    63   30   32 1    
    64   32   33 1    
    65   32   34 1    
    66   32  155 1    
    67   33  156 1    
    68   33  157 1    
    69   33  158 1    
    70   34   35 am   BACKBONE|DICT|INTERRES
    71   34  159 1    
    72   35   36 2    
    73   35   37 1    
    74   37   38 1    
    75   37   39 1    
    76   37  160 1    
    77   38  161 1    
    78   38  162 1    
    79   38  163 1    
    80   39   40 am   BACKBONE|DICT|INTERRES
    81   39  164 1    
    82   40   41 2    
    83   40   42 1    
    84   42   43 1    
    85   42   44 1    
    86   42  165 1    
    87   43  166 1    
    88   43  167 1    
    89   43  168 1    
    90   44   45 am   BACKBONE|DICT|INTERRES
    91   44  169 1    
    92   45   46 2    
    93   45   47 1    
    94   47   48 1    
    95   47   49 1    
    96   47  170 1    
    97   48  171 1    
    98   48  172 1    
    99   48  173 1    
   100   49   50 am   BACKBONE|DICT|INTERRES
   101   49  174 1    
   102   50   51 2    
   103   50   52 1    
   104   52   53 1    
   105   52   54 1    
   106   52  175 1    
   107   53  176 1    
   108   53  177 1    
   109   53  178 1    
   110   54   55 am   BACKBONE|DICT|INTERRES
   111   54  179 1    
   112   55   56 2    
   113   55   57 1    
   114   57   58 1    
   115   57   59 1    
   116   57  180 1    
   117   58  181 1    
   118   58  182 1    
   119   58  183 1    
   120   59   60 am   BACKBONE|DICT|INTERRES
   121   59  184 1    
   122   60   61 2    
   123   60   62 1    
   124   62   63 1    
   125   62   64 1    
   126   62  185 1    
   127   63  186 1    
   128   63  187 1    
   129   63  188 1    
   130   64   65 am   BACKBONE|DICT|INTERRES
   131   64  189 1    
   132   65   66 2    
   133   67   68 2    
   134   67   69 am   BACKBONE|DICT|INTERRES
   135   69   70 1    
   136   69  190 1    
   137   70   71 1    
   138   70   72 1    
   139   70  191 1    
   140   71  192 1    
   141   71  193 1    
   142   71  194 1    
   143   72   73 2    
   144   72   74 am   BACKBONE|DICT|INTERRES
   145   74   75 1    
   146   74  195 1    
   147   75   76 1    
   148   75   77 1    
   149   75  196 1    
   150   76  197 1    
   151   76  198 1    
   152   76  199 1    
   153   77   78 2    
   154   77   79 am   BACKBONE|DICT|INTERRES
   155   79   80 1    
   156   79  200 1    
   157   80   81 1    
   158   80   82 1    
   159   80  201 1    
   160   81  202 1    
   161   81  203 1    
   162   81  204 1    
   163   82   83 2    
   164   82   84 am   BACKBONE|DICT|INTERRES
   165   84   85 1    
   166   84  205 1    
   167   85   86 1    
   168   85   87 1    
   169   85  206 1    
   170   86  207 1    
   171   86  208 1    
   172   86  209 1    
   173   87   88 2    
   174   87   89 am   BACKBONE|DICT|INTERRES
   175   89   90 1    
   176   89  210 1    
   177   90   91 1    
   178   90   92 1    
   179   90  211 1    
   180   91  212 1    
   181   91  213 1    
   182   91  214 1    
   183   92   93 2    
   184   92   94 am   BACKBONE|DICT|INTERRES
   185   94   95 1    
   186   94  215 1    
   187   95   96 1    
   188   95   97 1    
   189   95  216 1    
   190   96  217 1    
   191   96  218 1    
   192   96  219 1    
   193   97   98 2    
   194   97   99 am   BACKBONE|DICT|INTERRES
   195   99  100 1    
   196   99  220 1    
   197  100  101 1    
   198  100  102 1    
   199  100  221 1    
   200  101  222 1    
   201  101  223 1    
   202  101  224 1    
   203  102  103 2    
   204  102  104 am   BACKBONE|DICT|INTERRES
   205  104  105 1    
   206  104  225 1    
   207  105  106 1    
   208  105  107 1    
   209  105  226 1    
   210  106  227 1    
   211  106  228 1    
   212  106  229 1    
   213  107  108 2    
   214  107  109 am   BACKBONE|DICT|INTERRES
   215  109  110 1    
   216  109  230 1    
   217  110  111 1    
   218  110  112 1    
   219  110  231 1    
   220  111  232 1    
   221  111  233 1    
   222  111  234 1    
   223  112  113 2    
   224  112  114 am   BACKBONE|DICT|INTERRES
   225  114  115 1    
   226  114  235 1    
   227  115  116 1    
   228  115  117 1    
   229  115  236 1    
   230  116  237 1    
   231  116  238 1    
   232  116  239 1    
   233  117  118 2    
   234  117  119 am   BACKBONE|DICT|INTERRES
   235  119  120 1    
   236  119  240 1    
   237  120  121 1    
   238  120  124 1    
   239  120  241 1    
   240  121  122 am   BACKBONE|DICT|INTERRES
   241  121  123 2    
   242  122  242 1    
   243  122  243 1    
   244  124  125 1    
   245  124  244 1    
   246  124  245 1    
   247  125  126 1    
   248  126  246 1    
   249  126  247 1    
@<TRIPOS>SUBSTRUCTURE
     1 UNK         1 GROUP             0       ****    0 ROOT    
