@<TRIPOS>MOLECULE
3R540
247   249    1
SMALL
USER_CHARGES


@<TRIPOS>ATOM
      1 CA          4.0953  -16.8749  -47.4247 C.3       0 UNK        -0.1800 
      2 C           3.2552  -15.6951  -46.9598 C.2       0 UNK         0.5000 
      3 O           3.5724  -15.0699  -45.9514 O.2       0 UNK        -0.5000 
      4 N           2.1931  -15.3703  -47.7043 N.am      1 UNK        -0.5000 
      5 CA          1.2064  -14.3264  -47.3871 C.3       1 UNK         0.1400 
      6 C6          0.0157  -14.4211  -48.3667 C.3       23 UNK        -0.0398 
      7 S7         -1.5428  -13.7131  -47.7396 S.3       23 UNK        -0.2404 
      8 C8         -2.6447  -14.0147  -49.1591 C.3       23 UNK        -0.0205 
      9 C9         -3.0592  -15.4759  -49.2509 C.ar      23 UNK        -0.0193 
     10 C10        -4.2495  -15.9082  -48.6604 C.ar      23 UNK        -0.1150 
     11 C11        -4.6388  -17.2484  -48.7450 C.ar      23 UNK        -0.0193 
     12 C12        -3.7986  -18.1688  -49.3780 C.ar      23 UNK        -0.1150 
     13 C13        -2.5959  -17.7518  -49.9548 C.ar      23 UNK        -0.0193 
     14 C14        -2.2541  -16.3986  -49.9247 C.ar      23 UNK        -0.1150 
     15 C15        -1.6727  -18.7645  -50.6159 C.3       23 UNK        -0.0205 
     16 S16        -0.0003  -18.8399  -49.8785 S.3       23 UNK        -0.2404 
     17 C17        -0.3093  -19.0492  -48.0898 C.3       23 UNK        -0.0398 
     18 CA         -0.4398  -20.5286  -47.6411 C.3       11 UNK         0.1400 
     19 N          -0.0074  -20.7244  -46.2507 N.am      11 UNK        -0.5000 
     20 C           0.0614  -21.9069  -45.6190 C.2       10 UNK         0.5000 
     21 O          -0.1579  -22.9868  -46.1654 O.2       10 UNK        -0.5000 
     22 CA          0.3608  -21.8794  -44.1077 C.3       10 UNK         0.1400 
     23 CB          1.8708  -21.7930  -43.8434 C.3       10 UNK        -0.1800 
     24 N          -0.3387  -20.7922  -43.4190 N.am      10 UNK        -0.5000 
     25 C          -1.6733  -20.7085  -43.3129 C.2       9 UNK         0.5000 
     26 O          -2.4397  -21.5816  -43.7153 O.2       9 UNK        -0.5000 
     27 CA         -2.2597  -19.4175  -42.7131 C.3       9 UNK         0.1400 
     28 CB         -2.3162  -19.4988  -41.1811 C.3       9 UNK        -0.1800 
     29 N          -1.5271  -18.2194  -43.1244 N.am      9 UNK        -0.5000 
     30 C          -1.4352  -17.7831  -44.3892 C.2       8 UNK         0.5000 
     31 O          -2.0136  -18.3175  -45.3352 O.2       8 UNK        -0.5000 
     32 CA         -0.4860  -16.5966  -44.6468 C.3       8 UNK         0.1400 
     33 CB         -1.1600  -15.2645  -44.2859 C.3       8 UNK        -0.1800 
     34 N           0.7746  -16.7345  -43.9118 N.am      8 UNK        -0.5000 
     35 C           1.6684  -17.7108  -44.1288 C.2       7 UNK         0.5000 
     36 O           1.5745  -18.5166  -45.0546 O.2       7 UNK        -0.5000 
     37 CA          2.8077  -17.8681  -43.1031 C.3       7 UNK         0.1400 
     38 CB          4.0394  -17.0297  -43.4667 C.3       7 UNK        -0.1800 
     39 N           2.3703  -17.5210  -41.7527 N.am      7 UNK        -0.5000 
     40 C           1.6417  -18.3258  -40.9684 C.2       6 UNK         0.5000 
     41 O           1.2956  -19.4598  -41.2965 O.2       6 UNK        -0.5000 
     42 CA          1.1995  -17.7582  -39.6055 C.3       6 UNK         0.1400 
     43 CB          2.2721  -18.0239  -38.5389 C.3       6 UNK        -0.1800 
     44 N           0.9140  -16.3230  -39.6538 N.am      6 UNK        -0.5000 
     45 C          -0.1026  -15.7753  -40.3346 C.2       5 UNK         0.5000 
     46 O          -0.9449  -16.4344  -40.9415 O.2       5 UNK        -0.5000 
     47 CA         -0.1545  -14.2355  -40.3969 C.3       5 UNK         0.1400 
     48 CB         -1.0020  -13.6793  -39.2435 C.3       5 UNK        -0.1800 
     49 N           1.1686  -13.6018  -40.3770 N.am      5 UNK        -0.5000 
     50 C           2.1271  -13.8024  -41.2917 C.2       4 UNK         0.5000 
     51 O           1.9947  -14.5567  -42.2578 O.2       4 UNK        -0.5000 
     52 CA          3.4761  -13.1111  -41.0179 C.3       4 UNK         0.1400 
     53 CB          4.2337  -13.8592  -39.9080 C.3       4 UNK        -0.1800 
     54 N           4.3420  -13.0462  -42.1953 N.am      4 UNK        -0.5000 
     55 C           4.1336  -12.2875  -43.2788 C.2       3 UNK         0.5000 
     56 O           3.1668  -11.5315  -43.4000 O.2       3 UNK        -0.5000 
     57 CA          5.2121  -12.3383  -44.3831 C.3       3 UNK         0.1400 
     58 CB          6.1563  -13.5550  -44.2852 C.3       3 UNK        -0.1800 
     59 N           4.5905  -12.3323  -45.7049 N.am      3 UNK        -0.5000 
     60 C           4.4446  -11.2550  -46.4896 C.2       2 UNK         0.5000 
     61 O           4.8582  -10.1333  -46.1908 O.2       2 UNK        -0.5000 
     62 CA          3.7426  -11.4497  -47.8521 C.3       2 UNK         0.1400 
     63 CB          4.7733  -11.4427  -48.9922 C.3       2 UNK        -0.1800 
     64 N           2.9606  -12.6835  -47.9388 N.am      2 UNK        -0.5000 
     65 C           1.7946  -12.8960  -47.3133 C.2       1 UNK         0.5000 
     66 O           1.2063  -12.0255  -46.6714 O.2       1 UNK        -0.5000 
     67 C          -1.8746  -21.0499  -47.8660 C.2       11 UNK         0.5000 
     68 O          -2.1179  -21.7721  -48.8346 O.2       11 UNK        -0.5000 
     69 N          -2.7831  -20.6997  -46.9439 N.am      12 UNK        -0.5000 
     70 CA         -4.1753  -21.1444  -46.9270 C.3       12 UNK         0.1400 
     71 CB         -4.9513  -20.3615  -45.8570 C.3       12 UNK        -0.1800 
     72 C          -4.3128  -22.6621  -46.7121 C.2       12 UNK         0.5000 
     73 O          -5.0732  -23.3042  -47.4355 O.2       12 UNK        -0.5000 
     74 N          -3.5525  -23.2148  -45.7561 N.am      13 UNK        -0.5000 
     75 CA         -3.5079  -24.6454  -45.4397 C.3       13 UNK         0.1400 
     76 CB         -2.6843  -24.8645  -44.1620 C.3       13 UNK        -0.1800 
     77 C          -2.9564  -25.5021  -46.5943 C.2       13 UNK         0.5000 
     78 O          -3.4813  -26.5857  -46.8524 O.2       13 UNK        -0.5000 
     79 N          -1.9359  -24.9847  -47.2912 N.am      14 UNK        -0.5000 
     80 CA         -1.3690  -25.5733  -48.5061 C.3       14 UNK         0.1400 
     81 CB          0.0270  -24.9743  -48.7414 C.3       14 UNK        -0.1800 
     82 C          -2.2486  -25.3608  -49.7540 C.2       14 UNK         0.5000 
     83 O          -1.9601  -25.9528  -50.7949 O.2       14 UNK        -0.5000 
     84 N          -3.2658  -24.4922  -49.6502 N.am      15 UNK        -0.5000 
     85 CA         -4.1765  -24.0486  -50.7081 C.3       15 UNK         0.1400 
     86 CB         -5.1210  -25.1976  -51.1163 C.3       15 UNK        -0.1800 
     87 C          -3.4188  -23.4322  -51.9001 C.2       15 UNK         0.5000 
     88 O          -3.7035  -23.7675  -53.0505 O.2       15 UNK        -0.5000 
     89 N          -2.4226  -22.5870  -51.5926 N.am      16 UNK        -0.5000 
     90 CA         -1.4789  -21.9680  -52.5316 C.3       16 UNK         0.1400 
     91 CB         -2.2065  -20.9534  -53.4365 C.3       16 UNK        -0.1800 
     92 C          -0.6735  -23.0121  -53.3360 C.2       16 UNK         0.5000 
     93 O          -0.5009  -22.8620  -54.5457 O.2       16 UNK        -0.5000 
     94 N          -0.2304  -24.0720  -52.6429 N.am      17 UNK        -0.5000 
     95 CA          0.4230  -25.2713  -53.1810 C.3       17 UNK         0.1400 
     96 CB          1.7981  -24.9336  -53.7948 C.3       17 UNK        -0.1800 
     97 C          -0.5074  -26.0466  -54.1381 C.2       17 UNK         0.5000 
     98 O          -0.1204  -26.3778  -55.2602 O.2       17 UNK        -0.5000 
     99 N          -1.7335  -26.2990  -53.6583 N.am      18 UNK        -0.5000 
    100 CA        -2.8370  -27.0053  -54.3189 C.3       18 UNK         0.1400 
    101 CB        -2.4648  -28.4803  -54.5773 C.3       18 UNK        -0.1800 
    102 C         -3.3998  -26.3058  -55.5774 C.2       18 UNK         0.5000 
    103 O         -4.0893  -26.9504  -56.3699 O.2       18 UNK        -0.5000 
    104 N         -3.1350  -25.0019  -55.7350 N.am      19 UNK        -0.5000 
    105 CA        -3.6947  -24.1672  -56.8018 C.3       19 UNK         0.1400 
    106 CB        -2.7562  -22.9795  -57.0603 C.3       19 UNK        -0.1800 
    107 C         -5.1206  -23.6729  -56.4830 C.2       19 UNK         0.5000 
    108 O         -5.8385  -23.2804  -57.4032 O.2       19 UNK        -0.5000 
    109 N         -5.4967  -23.6959  -55.1948 N.am      20 UNK        -0.5000 
    110 CA        -6.7769  -23.2735  -54.6155 C.3       20 UNK         0.1400 
    111 CB        -7.9510  -24.1011  -55.1790 C.3       20 UNK        -0.1800 
    112 C         -7.0167  -21.7507  -54.6840 C.2       20 UNK         0.5000 
    113 O         -8.1656  -21.3067  -54.6385 O.2       20 UNK        -0.5000 
    114 N         -5.9298  -20.9745  -54.7687 N.am      21 UNK        -0.5000 
    115 CA        -5.9446  -19.5154  -54.7168 C.3       21 UNK         0.1400 
    116 CB        -4.7483  -18.9778  -55.5181 C.3       21 UNK        -0.1800 
    117 C         -5.8890  -19.0226  -53.2599 C.2       21 UNK         0.5000 
    118 O         -5.3325  -19.7044  -52.3961 O.2       21 UNK        -0.5000 
    119 N         -6.4400  -17.8297  -53.0264 N.am      22 UNK        -0.5000 
    120 CA        -6.4263  -17.1082  -51.7508 C.3       22 UNK         0.1400 
    121 C         -6.8215  -15.6314  -52.0146 C.2       22 UNK         0.5000 
    122 N         -6.1156  -14.6754  -51.4269 N.am      22 UNK        -0.7600 
    123 O         -7.7680  -15.3469  -52.7461 O.2       22 UNK        -0.5000 
    124 C124       -7.3097  -17.8045  -50.6742 C.3       23 UNK        -0.0398 
    125 S125       -7.3828  -16.9599  -49.0529 S.3       23 UNK        -0.2404 
    126 C126       -5.9721  -17.6944  -48.1636 C.3       23 UNK        -0.0205 
    127 H127        3.8893  -17.7471  -46.8044 H         1 UNK         0.0600 
    128 H128        3.8831  -17.1367  -48.4615 H         1 UNK         0.0600 
    129 H129        5.1562  -16.6381  -47.3443 H         1 UNK         0.0600 
    130 H130        2.0060  -15.9081  -48.5386 H         1 UNK         0.3000 
    131 H131        0.8429  -14.5541  -46.3847 H         1 UNK         0.0600 
    132 H132        0.2616  -13.9777  -49.3334 H         1 UNK         0.0800 
    133 H133       -0.1832  -15.4751  -48.5535 H         1 UNK         0.0800 
    134 H134       -2.1568  -13.6995  -50.0827 H         1 UNK         0.0800 
    135 H135       -3.5288  -13.3840  -49.0540 H         1 UNK         0.0800 
    136 H136       -4.8856  -15.1990  -48.1490 H         1 UNK         0.1150 
    137 H137       -4.0868  -19.2084  -49.4371 H         1 UNK         0.1150 
    138 H138       -1.3401  -16.0733  -50.4005 H         1 UNK         0.1150 
    139 H139       -2.1176  -19.7584  -50.5852 H         1 UNK         0.0800 
    140 H140       -1.5730  -18.5058  -51.6705 H         1 UNK         0.0800 
    141 H141       -1.1634  -18.4467  -47.7795 H         1 UNK         0.0800 
    142 H142        0.5490  -18.5956  -47.5925 H         1 UNK         0.0800 
    143 H143        0.2287  -21.1365  -48.2544 H         1 UNK         0.0600 
    144 H144        0.2433  -19.8894  -45.7317 H         1 UNK         0.3000 
    145 H145        0.0041  -22.8193  -43.6822 H         1 UNK         0.0600 
    146 H146        2.0858  -21.7808  -42.7747 H         1 UNK         0.0600 
    147 H147        2.3867  -22.6545  -44.2691 H         1 UNK         0.0600 
    148 H148        2.3120  -20.9012  -44.2856 H         1 UNK         0.0600 
    149 H149        0.2328  -20.0718  -42.9937 H         1 UNK         0.3000 
    150 H150       -3.2827  -19.3191  -43.0817 H         1 UNK         0.0600 
    151 H151       -2.8982  -20.3630  -40.8587 H         1 UNK         0.0600 
    152 H152       -2.7874  -18.6123  -40.7562 H         1 UNK         0.0600 
    153 H153       -1.3229  -19.5919  -40.7436 H         1 UNK         0.0600 
    154 H154       -1.0849  -17.6797  -42.3856 H         1 UNK         0.3000 
    155 H155       -0.2530  -16.5842  -45.7134 H         1 UNK         0.0600 
    156 H156       -1.5015  -15.2487  -43.2517 H         1 UNK         0.0600 
    157 H157       -2.0322  -15.0916  -44.9175 H         1 UNK         0.0600 
    158 H158       -0.4835  -14.4214  -44.4253 H         1 UNK         0.0600 
    159 H159        0.9619  -16.0647  -43.1735 H         1 UNK         0.3000 
    160 H160        3.1140  -18.9160  -43.1097 H         1 UNK         0.0600 
    161 H161        4.8471  -17.1848  -42.7515 H         1 UNK         0.0600 
    162 H162        3.8116  -15.9647  -43.4851 H         1 UNK         0.0600 
    163 H163        4.4220  -17.3036  -44.4494 H         1 UNK         0.0600 
    164 H164        2.5482  -16.5721  -41.4543 H         1 UNK         0.3000 
    165 H165        0.2859  -18.2775  -39.3087 H         1 UNK         0.0600 
    166 H166        1.9396  -17.6942  -37.5545 H         1 UNK         0.0600 
    167 H167        2.4937  -19.0895  -38.4658 H         1 UNK         0.0600 
    168 H168        3.2060  -17.5091  -38.7685 H         1 UNK         0.0600 
    169 H169        1.5577  -15.7116  -39.1743 H         1 UNK         0.3000 
    170 H170       -0.6365  -13.9616  -41.3372 H         1 UNK         0.0600 
    171 H171       -2.0013  -14.1170  -39.2473 H         1 UNK         0.0600 
    172 H172       -0.5530  -13.8943  -38.2730 H         1 UNK         0.0600 
    173 H173       -1.1223  -12.5991  -39.3271 H         1 UNK         0.0600 
    174 H174        1.3544  -12.9805  -39.6027 H         1 UNK         0.3000 
    175 H175        3.2768  -12.0905  -40.6845 H         1 UNK         0.0600 
    176 H176        4.4531  -14.8890  -40.1939 H         1 UNK         0.0600 
    177 H177        5.1790  -13.3680  -39.6761 H         1 UNK         0.0600 
    178 H178        3.6558  -13.8914  -38.9836 H         1 UNK         0.0600 
    179 H179        5.1458  -13.6557  -42.1903 H         1 UNK         0.3000 
    180 H180        5.8251  -11.4438  -44.2580 H         1 UNK         0.0600 
    181 H181        5.6108  -14.4983  -44.3100 H         1 UNK         0.0600 
    182 H182        6.7460  -13.5309  -43.3681 H         1 UNK         0.0600 
    183 H183        6.8647  -13.5646  -45.1138 H         1 UNK         0.0600 
    184 H184        4.1696  -13.2127  -45.9876 H         1 UNK         0.3000 
    185 H185        3.0686  -10.6028  -47.9968 H         1 UNK         0.0600 
    186 H186        5.3566  -10.5209  -48.9869 H         1 UNK         0.0600 
    187 H187        5.4738  -12.2744  -48.9059 H         1 UNK         0.0600 
    188 H188        4.2867  -11.5114  -49.9653 H         1 UNK         0.0600 
    189 H189        3.3837  -13.4547  -48.4339 H         1 UNK         0.3000 
    190 H190       -2.4994  -20.0626  -46.2058 H         1 UNK         0.3000 
    191 H191       -4.6087  -20.9089  -47.9004 H         1 UNK         0.0600 
    192 H192       -4.6320  -20.6238  -44.8489 H         1 UNK         0.0600 
    193 H193       -6.0201  -20.5673  -45.9246 H         1 UNK         0.0600 
    194 H194       -4.8149  -19.2868  -45.9751 H         1 UNK         0.0600 
    195 H195       -2.9954  -22.6033  -45.1634 H         1 UNK         0.3000 
    196 H196       -4.5310  -24.9728  -45.2441 H         1 UNK         0.0600 
    197 H197       -2.6623  -25.9196  -43.8870 H         1 UNK         0.0600 
    198 H198       -3.1090  -24.3176  -43.3201 H         1 UNK         0.0600 
    199 H199       -1.6525  -24.5362  -44.2885 H         1 UNK         0.0600 
    200 H200       -1.5114  -24.1185  -46.9696 H         1 UNK         0.3000 
    201 H201       -1.2612  -26.6497  -48.3585 H         1 UNK         0.0600 
    202 H202        0.6801  -25.1518  -47.8869 H         1 UNK         0.0600 
    203 H203       -0.0217  -23.8968  -48.9056 H         1 UNK         0.0600 
    204 H204        0.5070  -25.4207  -49.6131 H         1 UNK         0.0600 
    205 H205       -3.4047  -24.0432  -48.7543 H         1 UNK         0.3000 
    206 H206       -4.7844  -23.2486  -50.2835 H         1 UNK         0.0600 
    207 H207       -5.6558  -25.5890  -50.2509 H         1 UNK         0.0600 
    208 H208       -5.8696  -24.8583  -51.8312 H         1 UNK         0.0600 
    209 H209       -4.5800  -26.0247  -51.5755 H         1 UNK         0.0600 
    210 H210       -2.2751  -22.3721  -50.6079 H         1 UNK         0.3000 
    211 H211       -0.7536  -21.4197  -51.9291 H         1 UNK         0.0600 
    212 H212       -2.9198  -21.4425  -54.0974 H         1 UNK         0.0600 
    213 H213       -1.5010  -20.4033  -54.0601 H         1 UNK         0.0600 
    214 H214       -2.7597  -20.2230  -52.8500 H         1 UNK         0.0600 
    215 H215       -0.4777  -24.1209  -51.6653 H         1 UNK         0.3000 
    216 H216        0.6004  -25.9306  -52.3299 H         1 UNK         0.0600 
    217 H217        1.7075  -24.3182  -54.6902 H         1 UNK         0.0600 
    218 H218        2.3294  -25.8426  -54.0787 H         1 UNK         0.0600 
    219 H219        2.4267  -24.3994  -53.0826 H         1 UNK         0.0600 
    220 H220       -1.9274  -26.0019  -52.7047 H         1 UNK         0.3000 
    221 H221       -3.6550  -27.0017  -53.5980 H         1 UNK         0.0600 
    222 H222       -1.6976  -28.5758  -55.3460 H         1 UNK         0.0600 
    223 H223       -2.0937  -28.9576  -53.6704 H         1 UNK         0.0600 
    224 H224       -3.3318  -29.0522  -54.9097 H         1 UNK         0.0600 
    225 H225       -2.5916  -24.5329  -55.0220 H         1 UNK         0.3000 
    226 H226       -3.7484  -24.7550  -57.7205 H         1 UNK         0.0600 
    227 H227       -1.7505  -23.3186  -57.3099 H         1 UNK         0.0600 
    228 H228       -3.1127  -22.3739  -57.8944 H         1 UNK         0.0600 
    229 H229       -2.6814  -22.3271  -56.1919 H         1 UNK         0.0600 
    230 H230       -4.7931  -23.9644  -54.5089 H         1 UNK         0.3000 
    231 H231       -6.7055  -23.5025  -53.5525 H         1 UNK         0.0600 
    232 H232       -7.7481  -25.1699  -55.1105 H         1 UNK         0.0600 
    233 H233       -8.1525  -23.8628  -56.2234 H         1 UNK         0.0600 
    234 H234       -8.8676  -23.9101  -54.6198 H         1 UNK         0.0600 
    235 H235       -5.0251  -21.4192  -54.7358 H         1 UNK         0.3000 
    236 H236       -6.8614  -19.1449  -55.1807 H         1 UNK         0.0600 
    237 H237       -4.7566  -17.8876  -55.5477 H         1 UNK         0.0600 
    238 H238       -3.7969  -19.2843  -55.0845 H         1 UNK         0.0600 
    239 H239       -4.7748  -19.3302  -56.5495 H         1 UNK         0.0600 
    240 H240       -6.8761  -17.3193  -53.7834 H         1 UNK         0.3000 
    241 H241       -5.3921  -17.1110  -51.4066 H         1 UNK         0.0600 
    242 H242       -5.3521  -14.8973  -50.8074 H         1 UNK         0.3800 
    243 H243       -6.3653  -13.7119  -51.5870 H         1 UNK         0.3800 
    244 H244       -8.3321  -17.8943  -51.0440 H         1 UNK         0.0800 
    245 H245       -6.9664  -18.8257  -50.5077 H         1 UNK         0.0800 
    246 H246       -6.0201  -17.3923  -47.1166 H         1 UNK         0.0800 
    247 H247       -6.0647  -18.7810  -48.1767 H         1 UNK         0.0800 
@<TRIPOS>BOND
     1    1    2 1    
     2    1  127 1    
     3    1  128 1    
     4    1  129 1    
     5    2    3 2    
     6    2    4 am   BACKBONE|DICT|INTERRES
     7    4    5 1    
     8    4  130 1    
     9    5    6 1    
    10    5   65 1    
    11    5  131 1    
    12    6    7 1    
    13    6  132 1    
    14    6  133 1    
    15    7    8 1    
    16    8    9 1    
    17    8  134 1    
    18    8  135 1    
    19    9   10 ar   
    20    9   14 ar   
    21   10   11 ar   
    22   10  136 1    
    23   11   12 ar   
    24   11  126 1    
    25   12   13 ar   
    26   12  137 1    
    27   13   14 ar   
    28   13   15 1    
    29   14  138 1    
    30   15   16 1    
    31   15  139 1    
    32   15  140 1    
    33   16   17 1    
    34   17   18 1    
    35   17  141 1    
    36   17  142 1    
    37   18   19 1    
    38   18   67 1    
    39   18  143 1    
    40   19   20 am   BACKBONE|DICT|INTERRES
    41   19  144 1    
    42   20   21 2    
    43   20   22 1    
    44   22   23 1    
    45   22   24 1    
    46   22  145 1    
    47   23  146 1    
    48   23  147 1    
    49   23  148 1    
    50   24   25 am   BACKBONE|DICT|INTERRES
    51   24  149 1    
    52   25   26 2    
    53   25   27 1    
    54   27   28 1    
    55   27   29 1    
    56   27  150 1    
    57   28  151 1    
    58   28  152 1    
    59   28  153 1    
    60   29   30 am   BACKBONE|DICT|INTERRES
    61   29  154 1    
    62   30   31 2    
    63   30   32 1    
    64   32   33 1    
    65   32   34 1    
    66   32  155 1    
    67   33  156 1    
    68   33  157 1    
    69   33  158 1    
    70   34   35 am   BACKBONE|DICT|INTERRES
    71   34  159 1    
    72   35   36 2    
    73   35   37 1    
    74   37   38 1    
    75   37   39 1    
    76   37  160 1    
    77   38  161 1    
    78   38  162 1    
    79   38  163 1    
    80   39   40 am   BACKBONE|DICT|INTERRES
    81   39  164 1    
    82   40   41 2    
    83   40   42 1    
    84   42   43 1    
    85   42   44 1    
    86   42  165 1    
    87   43  166 1    
    88   43  167 1    
    89   43  168 1    
    90   44   45 am   BACKBONE|DICT|INTERRES
    91   44  169 1    
    92   45   46 2    
    93   45   47 1    
    94   47   48 1    
    95   47   49 1    
    96   47  170 1    
    97   48  171 1    
    98   48  172 1    
    99   48  173 1    
   100   49   50 am   BACKBONE|DICT|INTERRES
   101   49  174 1    
   102   50   51 2    
   103   50   52 1    
   104   52   53 1    
   105   52   54 1    
   106   52  175 1    
   107   53  176 1    
   108   53  177 1    
   109   53  178 1    
   110   54   55 am   BACKBONE|DICT|INTERRES
   111   54  179 1    
   112   55   56 2    
   113   55   57 1    
   114   57   58 1    
   115   57   59 1    
   116   57  180 1    
   117   58  181 1    
   118   58  182 1    
   119   58  183 1    
   120   59   60 am   BACKBONE|DICT|INTERRES
   121   59  184 1    
   122   60   61 2    
   123   60   62 1    
   124   62   63 1    
   125   62   64 1    
   126   62  185 1    
   127   63  186 1    
   128   63  187 1    
   129   63  188 1    
   130   64   65 am   BACKBONE|DICT|INTERRES
   131   64  189 1    
   132   65   66 2    
   133   67   68 2    
   134   67   69 am   BACKBONE|DICT|INTERRES
   135   69   70 1    
   136   69  190 1    
   137   70   71 1    
   138   70   72 1    
   139   70  191 1    
   140   71  192 1    
   141   71  193 1    
   142   71  194 1    
   143   72   73 2    
   144   72   74 am   BACKBONE|DICT|INTERRES
   145   74   75 1    
   146   74  195 1    
   147   75   76 1    
   148   75   77 1    
   149   75  196 1    
   150   76  197 1    
   151   76  198 1    
   152   76  199 1    
   153   77   78 2    
   154   77   79 am   BACKBONE|DICT|INTERRES
   155   79   80 1    
   156   79  200 1    
   157   80   81 1    
   158   80   82 1    
   159   80  201 1    
   160   81  202 1    
   161   81  203 1    
   162   81  204 1    
   163   82   83 2    
   164   82   84 am   BACKBONE|DICT|INTERRES
   165   84   85 1    
   166   84  205 1    
   167   85   86 1    
   168   85   87 1    
   169   85  206 1    
   170   86  207 1    
   171   86  208 1    
   172   86  209 1    
   173   87   88 2    
   174   87   89 am   BACKBONE|DICT|INTERRES
   175   89   90 1    
   176   89  210 1    
   177   90   91 1    
   178   90   92 1    
   179   90  211 1    
   180   91  212 1    
   181   91  213 1    
   182   91  214 1    
   183   92   93 2    
   184   92   94 am   BACKBONE|DICT|INTERRES
   185   94   95 1    
   186   94  215 1    
   187   95   96 1    
   188   95   97 1    
   189   95  216 1    
   190   96  217 1    
   191   96  218 1    
   192   96  219 1    
   193   97   98 2    
   194   97   99 am   BACKBONE|DICT|INTERRES
   195   99  100 1    
   196   99  220 1    
   197  100  101 1    
   198  100  102 1    
   199  100  221 1    
   200  101  222 1    
   201  101  223 1    
   202  101  224 1    
   203  102  103 2    
   204  102  104 am   BACKBONE|DICT|INTERRES
   205  104  105 1    
   206  104  225 1    
   207  105  106 1    
   208  105  107 1    
   209  105  226 1    
   210  106  227 1    
   211  106  228 1    
   212  106  229 1    
   213  107  108 2    
   214  107  109 am   BACKBONE|DICT|INTERRES
   215  109  110 1    
   216  109  230 1    
   217  110  111 1    
   218  110  112 1    
   219  110  231 1    
   220  111  232 1    
   221  111  233 1    
   222  111  234 1    
   223  112  113 2    
   224  112  114 am   BACKBONE|DICT|INTERRES
   225  114  115 1    
   226  114  235 1    
   227  115  116 1    
   228  115  117 1    
   229  115  236 1    
   230  116  237 1    
   231  116  238 1    
   232  116  239 1    
   233  117  118 2    
   234  117  119 am   BACKBONE|DICT|INTERRES
   235  119  120 1    
   236  119  240 1    
   237  120  121 1    
   238  120  124 1    
   239  120  241 1    
   240  121  122 am   BACKBONE|DICT|INTERRES
   241  121  123 2    
   242  122  242 1    
   243  122  243 1    
   244  124  125 1    
   245  124  244 1    
   246  124  245 1    
   247  125  126 1    
   248  126  246 1    
   249  126  247 1    
@<TRIPOS>SUBSTRUCTURE
     1 UNK         1 GROUP             0       ****    0 ROOT    
