@<TRIPOS>MOLECULE
3R540
247   249    1
SMALL
USER_CHARGES


@<TRIPOS>ATOM
      1 CA          4.9260  -12.3213  -50.6735 C.3       0 UNK        -0.1800 
      2 C           4.7493  -12.3519  -49.1622 C.2       0 UNK         0.5000 
      3 O           4.9122  -11.3257  -48.5028 O.2       0 UNK        -0.5000 
      4 N           4.4035  -13.5225  -48.6135 N.am      1 UNK        -0.5000 
      5 CA          4.1785  -13.7551  -47.1801 C.3       1 UNK         0.1400 
      6 C6          4.5567  -15.2038  -46.7709 C.3       23 UNK        -0.0398 
      7 S7          3.5469  -16.4987  -47.5729 S.3       23 UNK        -0.2404 
      8 C8          4.6972  -17.1527  -48.8149 C.3       23 UNK        -0.0205 
      9 C9          3.9882  -18.1173  -49.7510 C.ar      23 UNK        -0.0193 
     10 C10         3.4218  -17.6564  -50.9416 C.ar      23 UNK        -0.1150 
     11 C11         2.7890  -18.5428  -51.8181 C.ar      23 UNK        -0.0193 
     12 C12         2.7304  -19.9030  -51.4985 C.ar      23 UNK        -0.1150 
     13 C13         3.2901  -20.3759  -50.3063 C.ar      23 UNK        -0.0193 
     14 C14         3.9107  -19.4753  -49.4355 C.ar      23 UNK        -0.1150 
     15 C15         3.2585  -21.8601  -49.9709 C.3       23 UNK        -0.0205 
     16 S16         1.5637  -22.4660  -49.7185 S.3       23 UNK        -0.2404 
     17 C17         1.8768  -24.0546  -48.8676 C.3       23 UNK        -0.0398 
     18 CA          1.4587  -24.0515  -47.3721 C.3       11 UNK         0.1400 
     19 N           2.1531  -23.0123  -46.6046 N.am      11 UNK        -0.5000 
     20 C           3.2929  -23.2001  -45.9275 C.2       10 UNK         0.5000 
     21 O           3.8557  -24.2924  -45.8416 O.2       10 UNK        -0.5000 
     22 CA          3.9353  -21.9802  -45.2336 C.3       10 UNK         0.1400 
     23 CB          5.2223  -21.5593  -45.9594 C.3       10 UNK        -0.1800 
     24 N           3.0503  -20.8190  -45.1169 N.am      10 UNK        -0.5000 
     25 C           2.0294  -20.7332  -44.2545 C.2       9 UNK         0.5000 
     26 O           1.7078  -21.6404  -43.4865 O.2       9 UNK        -0.5000 
     27 CA          1.2189  -19.4242  -44.2571 C.3       9 UNK         0.1400 
     28 CB          1.8484  -18.4087  -43.2931 C.3       9 UNK        -0.1800 
     29 N           1.0390  -18.7809  -45.5618 N.am      9 UNK        -0.5000 
     30 C           0.5859  -19.3413  -46.6908 C.2       8 UNK         0.5000 
     31 O           0.4537  -20.5546  -46.8426 O.2       8 UNK        -0.5000 
     32 CA          0.1679  -18.3662  -47.8121 C.3       8 UNK         0.1400 
     33 CB         -0.3343  -19.0875  -49.0754 C.3       8 UNK        -0.1800 
     34 N          -0.8743  -17.4447  -47.3523 N.am      8 UNK        -0.5000 
     35 C          -0.6880  -16.3761  -46.5680 C.2       7 UNK         0.5000 
     36 O           0.4119  -16.0340  -46.1383 O.2       7 UNK        -0.5000 
     37 CA         -1.9322  -15.5607  -46.1769 C.3       7 UNK         0.1400 
     38 CB         -2.8740  -15.2799  -47.3641 C.3       7 UNK        -0.1800 
     39 N          -2.6560  -16.1355  -45.0436 N.am      7 UNK        -0.5000 
     40 C          -3.2557  -17.3331  -44.9540 C.2       6 UNK         0.5000 
     41 O          -3.2973  -18.1488  -45.8760 O.2       6 UNK        -0.5000 
     42 CA         -3.9617  -17.6578  -43.6167 C.3       6 UNK         0.1400 
     43 CB         -3.9329  -19.1614  -43.2746 C.3       6 UNK        -0.1800 
     44 N          -3.4927  -16.8470  -42.4841 N.am      6 UNK        -0.5000 
     45 C          -2.2667  -16.8520  -41.9422 C.2       5 UNK         0.5000 
     46 O          -1.3586  -17.6131  -42.2798 O.2       5 UNK        -0.5000 
     47 CA         -2.0076  -15.7989  -40.8485 C.3       5 UNK         0.1400 
     48 CB         -1.9077  -16.4633  -39.4669 C.3       5 UNK        -0.1800 
     49 N          -0.7851  -15.0359  -41.1059 N.am      5 UNK        -0.5000 
     50 C          -0.5570  -14.2863  -42.1932 C.2       4 UNK         0.5000 
     51 O          -1.3871  -14.1161  -43.0909 O.2       4 UNK        -0.5000 
     52 CA          0.8443  -13.6489  -42.2820 C.3       4 UNK         0.1400 
     53 CB          1.9030  -14.7173  -42.5993 C.3       4 UNK        -0.1800 
     54 N           0.9268  -12.5979  -43.2959 N.am      4 UNK        -0.5000 
     55 C           0.3801  -11.3780  -43.1941 C.2       3 UNK         0.5000 
     56 O          -0.2182  -10.9845  -42.1913 O.2       3 UNK        -0.5000 
     57 CA          0.5411  -10.4197  -44.3962 C.3       3 UNK         0.1400 
     58 CB          1.6588   -9.4008  -44.1242 C.3       3 UNK        -0.1800 
     59 N           0.8296  -11.1059  -45.6570 N.am      3 UNK        -0.5000 
     60 C          -0.0519  -11.8464  -46.3399 C.2       2 UNK         0.5000 
     61 O          -1.2463  -11.9114  -46.0488 O.2       2 UNK        -0.5000 
     62 CA          0.4656  -12.6578  -47.5483 C.3       2 UNK         0.1400 
     63 CB         -0.0226  -12.0286  -48.8625 C.3       2 UNK        -0.1800 
     64 N           1.9145  -12.8766  -47.6511 N.am      2 UNK        -0.5000 
     65 C           2.7480  -13.3775  -46.7250 C.2       1 UNK         0.5000 
     66 O           2.4363  -13.5463  -45.5482 O.2       1 UNK        -0.5000 
     67 C          -0.0697  -23.9781  -47.1787 C.2       11 UNK         0.5000 
     68 O          -0.8021  -24.5753  -47.9669 O.2       11 UNK        -0.5000 
     69 N          -0.5350  -23.2575  -46.1473 N.am      12 UNK        -0.5000 
     70 CA         -1.9243  -22.8264  -45.9606 C.3       12 UNK         0.1400 
     71 CB         -2.0307  -21.9965  -44.6748 C.3       12 UNK        -0.1800 
     72 C          -2.9791  -23.9462  -45.9626 C.2       12 UNK         0.5000 
     73 O          -4.0946  -23.7124  -46.4274 O.2       12 UNK        -0.5000 
     74 N          -2.6089  -25.1363  -45.4728 N.am      13 UNK        -0.5000 
     75 CA         -3.4625  -26.3254  -45.4618 C.3       13 UNK         0.1400 
     76 CB         -2.8550  -27.3713  -44.5148 C.3       13 UNK        -0.1800 
     77 C          -3.6797  -26.9285  -46.8638 C.2       13 UNK         0.5000 
     78 O          -4.7572  -27.4604  -47.1315 O.2       13 UNK        -0.5000 
     79 N          -2.6636  -26.8298  -47.7311 N.am      14 UNK        -0.5000 
     80 CA         -2.7041  -27.2982  -49.1171 C.3       14 UNK         0.1400 
     81 CB         -1.2903  -27.7146  -49.5527 C.3       14 UNK        -0.1800 
     82 C          -3.2610  -26.2138  -50.0532 C.2       14 UNK         0.5000 
     83 O          -4.0278  -26.5251  -50.9642 O.2       14 UNK        -0.5000 
     84 N          -2.8815  -24.9559  -49.7925 N.am      15 UNK        -0.5000 
     85 CA         -3.3167  -23.7694  -50.5255 C.3       15 UNK         0.1400 
     86 CB         -2.3170  -22.6310  -50.2679 C.3       15 UNK        -0.1800 
     87 C          -4.7448  -23.3176  -50.1749 C.2       15 UNK         0.5000 
     88 O          -5.2539  -22.4174  -50.8407 O.2       15 UNK        -0.5000 
     89 N          -5.3607  -23.9170  -49.1461 N.am      16 UNK        -0.5000 
     90 CA         -6.7097  -23.6429  -48.6368 C.3       16 UNK         0.1400 
     91 CB         -7.7723  -24.0870  -49.6640 C.3       16 UNK        -0.1800 
     92 C          -6.8768  -22.1768  -48.1845 C.2       16 UNK         0.5000 
     93 O          -7.8569  -21.5226  -48.5415 O.2       16 UNK        -0.5000 
     94 N          -5.8798  -21.6898  -47.4313 N.am      17 UNK        -0.5000 
     95 CA         -5.7031  -20.3041  -46.9816 C.3       17 UNK         0.1400 
     96 CB         -6.7809  -19.9151  -45.9487 C.3       17 UNK        -0.1800 
     97 C          -5.5920  -19.3085  -48.1590 C.2       17 UNK         0.5000 
     98 O          -6.2328  -18.2559  -48.1517 O.2       17 UNK        -0.5000 
     99 N          -4.7707  -19.6872  -49.1490 N.am      18 UNK        -0.5000 
    100 CA        -4.4702  -18.9725  -50.3925 C.3       18 UNK         0.1400 
    101 CB        -3.7688  -17.6280  -50.1139 C.3       18 UNK        -0.1800 
    102 C         -5.6951  -18.8342  -51.3223 C.2       18 UNK         0.5000 
    103 O         -6.0178  -17.7286  -51.7631 O.2       18 UNK        -0.5000 
    104 N         -6.3596  -19.9630  -51.5962 N.am      19 UNK        -0.5000 
    105 CA        -7.5147  -20.0603  -52.4906 C.3       19 UNK         0.1400 
    106 CB        -8.7784  -20.3452  -51.6647 C.3       19 UNK        -0.1800 
    107 C         -7.3177  -21.1393  -53.5692 C.2       19 UNK         0.5000 
    108 O         -7.7139  -20.9218  -54.7149 O.2       19 UNK        -0.5000 
    109 N         -6.7107  -22.2757  -53.2013 N.am      20 UNK        -0.5000 
    110 CA        -6.4130  -23.3942  -54.1009 C.3       20 UNK         0.1400 
    111 CB        -6.5134  -24.7096  -53.3124 C.3       20 UNK        -0.1800 
    112 C         -5.0250  -23.2632  -54.7568 C.2       20 UNK         0.5000 
    113 O         -4.7766  -23.8978  -55.7826 O.2       20 UNK        -0.5000 
    114 N         -4.1539  -22.4395  -54.1668 N.am      21 UNK        -0.5000 
    115 CA        -2.8375  -22.0625  -54.6663 C.3       21 UNK         0.1400 
    116 CB        -1.7808  -23.0710  -54.1834 C.3       21 UNK        -0.1800 
    117 C         -2.5397  -20.6482  -54.1509 C.2       21 UNK         0.5000 
    118 O         -3.1991  -20.1976  -53.2127 O.2       21 UNK        -0.5000 
    119 N         -1.5623  -19.9707  -54.7643 N.am      22 UNK        -0.5000 
    120 CA        -1.1704  -18.5846  -54.4426 C.3       22 UNK         0.1400 
    121 C         -2.2542  -17.5110  -54.7931 C.2       22 UNK         0.5000 
    122 N         -3.1871  -17.7940  -55.6950 N.am      22 UNK        -0.7600 
    123 O         -2.2465  -16.4005  -54.2703 O.2       22 UNK        -0.5000 
    124 C124       -0.5935  -18.4539  -52.9998 C.3       23 UNK        -0.0398 
    125 S125        0.6471  -17.1215  -52.8567 S.3       23 UNK        -0.2404 
    126 C126        2.2053  -18.0233  -53.1224 C.3       23 UNK        -0.0205 
    127 H127        4.7462  -13.2982  -51.1231 H         1 UNK         0.0600 
    128 H128        5.9403  -12.0126  -50.9262 H         1 UNK         0.0600 
    129 H129        4.2310  -11.6090  -51.1184 H         1 UNK         0.0600 
    130 H130        4.2571  -14.3265  -49.2065 H         1 UNK         0.3000 
    131 H131        4.8452  -13.0940  -46.6226 H         1 UNK         0.0600 
    132 H132        5.6108  -15.3820  -46.9871 H         1 UNK         0.0800 
    133 H133        4.4613  -15.3267  -45.6906 H         1 UNK         0.0800 
    134 H134        5.5251  -17.6555  -48.3125 H         1 UNK         0.0800 
    135 H135        5.1351  -16.3333  -49.3862 H         1 UNK         0.0800 
    136 H136        3.4746  -16.6058  -51.1907 H         1 UNK         0.1150 
    137 H137        2.2526  -20.5971  -52.1756 H         1 UNK         0.1150 
    138 H138        4.3487  -19.8271  -48.5147 H         1 UNK         0.1150 
    139 H139        3.7267  -22.4249  -50.7781 H         1 UNK         0.0800 
    140 H140        3.8455  -22.0568  -49.0728 H         1 UNK         0.0800 
    141 H141        2.9349  -24.3064  -48.9459 H         1 UNK         0.0800 
    142 H142        1.3563  -24.8435  -49.4132 H         1 UNK         0.0800 
    143 H143        1.7254  -25.0282  -46.9639 H         1 UNK         0.0600 
    144 H144        1.7429  -22.0833  -46.6589 H         1 UNK         0.3000 
    145 H145        4.2114  -22.2950  -44.2250 H         1 UNK         0.0600 
    146 H146        5.6914  -20.7029  -45.4746 H         1 UNK         0.0600 
    147 H147        5.0316  -21.2984  -46.9985 H         1 UNK         0.0600 
    148 H148        5.9516  -22.3705  -45.9586 H         1 UNK         0.0600 
    149 H149        3.2291  -20.0371  -45.7298 H         1 UNK         0.3000 
    150 H150        0.2217  -19.6617  -43.8832 H         1 UNK         0.0600 
    151 H151        2.8204  -18.0635  -43.6476 H         1 UNK         0.0600 
    152 H152        1.9896  -18.8404  -42.3014 H         1 UNK         0.0600 
    153 H153        1.2047  -17.5379  -43.1753 H         1 UNK         0.0600 
    154 H154        1.0903  -17.7658  -45.5630 H         1 UNK         0.3000 
    155 H155        1.0488  -17.7902  -48.0953 H         1 UNK         0.0600 
    156 H156        0.4321  -19.7527  -49.4715 H         1 UNK         0.0600 
    157 H157       -0.5739  -18.3758  -49.8648 H         1 UNK         0.0600 
    158 H158       -1.2225  -19.6884  -48.8758 H         1 UNK         0.0600 
    159 H159       -1.8308  -17.7271  -47.5214 H         1 UNK         0.3000 
    160 H160       -1.5626  -14.5965  -45.8276 H         1 UNK         0.0600 
    161 H161       -3.4322  -16.1650  -47.6634 H         1 UNK         0.0600 
    162 H162       -2.3190  -14.9256  -48.2338 H         1 UNK         0.0600 
    163 H163       -3.5991  -14.5078  -47.1071 H         1 UNK         0.0600 
    164 H164       -2.6228  -15.5655  -44.2066 H         1 UNK         0.3000 
    165 H165       -5.0067  -17.3827  -43.7660 H         1 UNK         0.0600 
    166 H166       -4.4406  -19.3618  -42.3313 H         1 UNK         0.0600 
    167 H167       -4.4385  -19.7465  -44.0422 H         1 UNK         0.0600 
    168 H168       -2.9136  -19.5387  -43.1942 H         1 UNK         0.0600 
    169 H169       -4.1632  -16.1762  -42.1341 H         1 UNK         0.3000 
    170 H170       -2.8394  -15.0917  -40.8295 H         1 UNK         0.0600 
    171 H171       -1.0694  -17.1594  -39.4151 H         1 UNK         0.0600 
    172 H172       -1.7782  -15.7211  -38.6791 H         1 UNK         0.0600 
    173 H173       -2.8145  -17.0247  -39.2379 H         1 UNK         0.0600 
    174 H174       -0.0428  -15.1509  -40.4318 H         1 UNK         0.3000 
    175 H175        1.0784  -13.2054  -41.3121 H         1 UNK         0.0600 
    176 H176        1.6975  -15.2091  -43.5512 H         1 UNK         0.0600 
    177 H177        2.9000  -14.2806  -42.6595 H         1 UNK         0.0600 
    178 H178        1.9340  -15.4892  -41.8296 H         1 UNK         0.0600 
    179 H179        1.3894  -12.8587  -44.1638 H         1 UNK         0.3000 
    180 H180       -0.3981   -9.8740  -44.5082 H         1 UNK         0.0600 
    181 H181        1.7362   -8.6741  -44.9331 H         1 UNK         0.0600 
    182 H182        2.6285   -9.8881  -44.0150 H         1 UNK         0.0600 
    183 H183        1.4657   -8.8441  -43.2062 H         1 UNK         0.0600 
    184 H184        1.7938  -11.1239  -45.9550 H         1 UNK         0.3000 
    185 H185        0.0139  -13.6459  -47.4699 H         1 UNK         0.0600 
    186 H186        0.4360  -11.0538  -49.0333 H         1 UNK         0.0600 
    187 H187        0.2098  -12.6649  -49.7167 H         1 UNK         0.0600 
    188 H188       -1.1042  -11.8862  -48.8540 H         1 UNK         0.0600 
    189 H189        2.3036  -12.7495  -48.5732 H         1 UNK         0.3000 
    190 H190        0.1451  -22.8137  -45.5475 H         1 UNK         0.3000 
    191 H191       -2.1645  -22.1682  -46.7975 H         1 UNK         0.0600 
    192 H192       -1.4671  -21.0685  -44.7622 H         1 UNK         0.0600 
    193 H193       -1.6549  -22.5421  -43.8086 H         1 UNK         0.0600 
    194 H194       -3.0666  -21.7256  -44.4695 H         1 UNK         0.0600 
    195 H195       -1.6707  -25.2382  -45.1147 H         1 UNK         0.3000 
    196 H196       -4.4411  -26.0399  -45.0696 H         1 UNK         0.0600 
    197 H197       -2.7667  -26.9811  -43.5007 H         1 UNK         0.0600 
    198 H198       -1.8629  -27.6842  -44.8427 H         1 UNK         0.0600 
    199 H199       -3.4810  -28.2633  -44.4652 H         1 UNK         0.0600 
    200 H200       -1.8429  -26.3013  -47.4612 H         1 UNK         0.3000 
    201 H201       -3.3518  -28.1746  -49.1893 H         1 UNK         0.0600 
    202 H202       -0.9029  -28.5125  -48.9191 H         1 UNK         0.0600 
    203 H203       -0.5890  -26.8806  -49.5071 H         1 UNK         0.0600 
    204 H204       -1.2924  -28.0857  -50.5784 H         1 UNK         0.0600 
    205 H205       -2.1972  -24.8016  -49.0539 H         1 UNK         0.3000 
    206 H206       -3.3072  -24.0010  -51.5920 H         1 UNK         0.0600 
    207 H207       -1.3067  -22.9282  -50.5476 H         1 UNK         0.0600 
    208 H208       -2.2977  -22.3375  -49.2184 H         1 UNK         0.0600 
    209 H209       -2.5642  -21.7466  -50.8558 H         1 UNK         0.0600 
    210 H210       -4.8296  -24.5979  -48.6218 H         1 UNK         0.3000 
    211 H211       -6.8339  -24.2567  -47.7435 H         1 UNK         0.0600 
    212 H212       -7.7342  -23.4891  -50.5742 H         1 UNK         0.0600 
    213 H213       -8.7775  -23.9913  -49.2525 H         1 UNK         0.0600 
    214 H214       -7.6345  -25.1310  -49.9454 H         1 UNK         0.0600 
    215 H215       -5.1519  -22.3450  -47.1539 H         1 UNK         0.3000 
    216 H216       -4.7397  -20.2803  -46.4718 H         1 UNK         0.0600 
    217 H217       -6.5755  -18.9309  -45.5264 H         1 UNK         0.0600 
    218 H218       -6.8071  -20.6239  -45.1212 H         1 UNK         0.0600 
    219 H219       -7.7758  -19.8791  -46.3931 H         1 UNK         0.0600 
    220 H220       -4.3497  -20.6002  -49.0694 H         1 UNK         0.3000 
    221 H221       -3.7494  -19.6020  -50.9077 H         1 UNK         0.0600 
    222 H222       -4.4473  -16.9047  -49.6618 H         1 UNK         0.0600 
    223 H223       -2.9178  -17.7566  -49.4481 H         1 UNK         0.0600 
    224 H224       -3.3946  -17.1881  -51.0392 H         1 UNK         0.0600 
    225 H225       -6.0110  -20.8329  -51.2005 H         1 UNK         0.3000 
    226 H226       -7.6645  -19.1157  -53.0173 H         1 UNK         0.0600 
    227 H227       -8.9460  -19.5660  -50.9210 H         1 UNK         0.0600 
    228 H228       -9.6621  -20.3851  -52.3025 H         1 UNK         0.0600 
    229 H229       -8.7092  -21.2974  -51.1386 H         1 UNK         0.0600 
    230 H230       -6.3665  -22.3696  -52.2495 H         1 UNK         0.3000 
    231 H231       -7.1550  -23.4264  -54.9014 H         1 UNK         0.0600 
    232 H232       -6.3569  -25.5684  -53.9662 H         1 UNK         0.0600 
    233 H233       -5.7685  -24.7663  -52.5191 H         1 UNK         0.0600 
    234 H234       -7.4975  -24.8236  -52.8576 H         1 UNK         0.0600 
    235 H235       -4.4523  -21.8980  -53.3643 H         1 UNK         0.3000 
    236 H236       -2.8549  -22.0371  -55.7578 H         1 UNK         0.0600 
    237 H237       -1.6765  -23.0583  -53.0989 H         1 UNK         0.0600 
    238 H238       -2.0350  -24.0874  -54.4842 H         1 UNK         0.0600 
    239 H239       -0.8019  -22.8431  -54.6064 H         1 UNK         0.0600 
    240 H240       -1.0680  -20.4021  -55.5324 H         1 UNK         0.3000 
    241 H241       -0.3544  -18.3763  -55.1355 H         1 UNK         0.0600 
    242 H242       -3.8791  -17.0978  -55.9232 H         1 UNK         0.3800 
    243 H243       -3.2107  -18.6918  -56.1503 H         1 UNK         0.3800 
    244 H244       -0.1242  -19.3878  -52.6873 H         1 UNK         0.0800 
    245 H245       -1.3930  -18.2745  -52.2795 H         1 UNK         0.0800 
    246 H246        2.9237  -17.3461  -53.5866 H         1 UNK         0.0800 
    247 H247        2.0526  -18.8348  -53.8356 H         1 UNK         0.0800 
@<TRIPOS>BOND
     1    1    2 1    
     2    1  127 1    
     3    1  128 1    
     4    1  129 1    
     5    2    3 2    
     6    2    4 am   BACKBONE|DICT|INTERRES
     7    4    5 1    
     8    4  130 1    
     9    5    6 1    
    10    5   65 1    
    11    5  131 1    
    12    6    7 1    
    13    6  132 1    
    14    6  133 1    
    15    7    8 1    
    16    8    9 1    
    17    8  134 1    
    18    8  135 1    
    19    9   10 ar   
    20    9   14 ar   
    21   10   11 ar   
    22   10  136 1    
    23   11   12 ar   
    24   11  126 1    
    25   12   13 ar   
    26   12  137 1    
    27   13   14 ar   
    28   13   15 1    
    29   14  138 1    
    30   15   16 1    
    31   15  139 1    
    32   15  140 1    
    33   16   17 1    
    34   17   18 1    
    35   17  141 1    
    36   17  142 1    
    37   18   19 1    
    38   18   67 1    
    39   18  143 1    
    40   19   20 am   BACKBONE|DICT|INTERRES
    41   19  144 1    
    42   20   21 2    
    43   20   22 1    
    44   22   23 1    
    45   22   24 1    
    46   22  145 1    
    47   23  146 1    
    48   23  147 1    
    49   23  148 1    
    50   24   25 am   BACKBONE|DICT|INTERRES
    51   24  149 1    
    52   25   26 2    
    53   25   27 1    
    54   27   28 1    
    55   27   29 1    
    56   27  150 1    
    57   28  151 1    
    58   28  152 1    
    59   28  153 1    
    60   29   30 am   BACKBONE|DICT|INTERRES
    61   29  154 1    
    62   30   31 2    
    63   30   32 1    
    64   32   33 1    
    65   32   34 1    
    66   32  155 1    
    67   33  156 1    
    68   33  157 1    
    69   33  158 1    
    70   34   35 am   BACKBONE|DICT|INTERRES
    71   34  159 1    
    72   35   36 2    
    73   35   37 1    
    74   37   38 1    
    75   37   39 1    
    76   37  160 1    
    77   38  161 1    
    78   38  162 1    
    79   38  163 1    
    80   39   40 am   BACKBONE|DICT|INTERRES
    81   39  164 1    
    82   40   41 2    
    83   40   42 1    
    84   42   43 1    
    85   42   44 1    
    86   42  165 1    
    87   43  166 1    
    88   43  167 1    
    89   43  168 1    
    90   44   45 am   BACKBONE|DICT|INTERRES
    91   44  169 1    
    92   45   46 2    
    93   45   47 1    
    94   47   48 1    
    95   47   49 1    
    96   47  170 1    
    97   48  171 1    
    98   48  172 1    
    99   48  173 1    
   100   49   50 am   BACKBONE|DICT|INTERRES
   101   49  174 1    
   102   50   51 2    
   103   50   52 1    
   104   52   53 1    
   105   52   54 1    
   106   52  175 1    
   107   53  176 1    
   108   53  177 1    
   109   53  178 1    
   110   54   55 am   BACKBONE|DICT|INTERRES
   111   54  179 1    
   112   55   56 2    
   113   55   57 1    
   114   57   58 1    
   115   57   59 1    
   116   57  180 1    
   117   58  181 1    
   118   58  182 1    
   119   58  183 1    
   120   59   60 am   BACKBONE|DICT|INTERRES
   121   59  184 1    
   122   60   61 2    
   123   60   62 1    
   124   62   63 1    
   125   62   64 1    
   126   62  185 1    
   127   63  186 1    
   128   63  187 1    
   129   63  188 1    
   130   64   65 am   BACKBONE|DICT|INTERRES
   131   64  189 1    
   132   65   66 2    
   133   67   68 2    
   134   67   69 am   BACKBONE|DICT|INTERRES
   135   69   70 1    
   136   69  190 1    
   137   70   71 1    
   138   70   72 1    
   139   70  191 1    
   140   71  192 1    
   141   71  193 1    
   142   71  194 1    
   143   72   73 2    
   144   72   74 am   BACKBONE|DICT|INTERRES
   145   74   75 1    
   146   74  195 1    
   147   75   76 1    
   148   75   77 1    
   149   75  196 1    
   150   76  197 1    
   151   76  198 1    
   152   76  199 1    
   153   77   78 2    
   154   77   79 am   BACKBONE|DICT|INTERRES
   155   79   80 1    
   156   79  200 1    
   157   80   81 1    
   158   80   82 1    
   159   80  201 1    
   160   81  202 1    
   161   81  203 1    
   162   81  204 1    
   163   82   83 2    
   164   82   84 am   BACKBONE|DICT|INTERRES
   165   84   85 1    
   166   84  205 1    
   167   85   86 1    
   168   85   87 1    
   169   85  206 1    
   170   86  207 1    
   171   86  208 1    
   172   86  209 1    
   173   87   88 2    
   174   87   89 am   BACKBONE|DICT|INTERRES
   175   89   90 1    
   176   89  210 1    
   177   90   91 1    
   178   90   92 1    
   179   90  211 1    
   180   91  212 1    
   181   91  213 1    
   182   91  214 1    
   183   92   93 2    
   184   92   94 am   BACKBONE|DICT|INTERRES
   185   94   95 1    
   186   94  215 1    
   187   95   96 1    
   188   95   97 1    
   189   95  216 1    
   190   96  217 1    
   191   96  218 1    
   192   96  219 1    
   193   97   98 2    
   194   97   99 am   BACKBONE|DICT|INTERRES
   195   99  100 1    
   196   99  220 1    
   197  100  101 1    
   198  100  102 1    
   199  100  221 1    
   200  101  222 1    
   201  101  223 1    
   202  101  224 1    
   203  102  103 2    
   204  102  104 am   BACKBONE|DICT|INTERRES
   205  104  105 1    
   206  104  225 1    
   207  105  106 1    
   208  105  107 1    
   209  105  226 1    
   210  106  227 1    
   211  106  228 1    
   212  106  229 1    
   213  107  108 2    
   214  107  109 am   BACKBONE|DICT|INTERRES
   215  109  110 1    
   216  109  230 1    
   217  110  111 1    
   218  110  112 1    
   219  110  231 1    
   220  111  232 1    
   221  111  233 1    
   222  111  234 1    
   223  112  113 2    
   224  112  114 am   BACKBONE|DICT|INTERRES
   225  114  115 1    
   226  114  235 1    
   227  115  116 1    
   228  115  117 1    
   229  115  236 1    
   230  116  237 1    
   231  116  238 1    
   232  116  239 1    
   233  117  118 2    
   234  117  119 am   BACKBONE|DICT|INTERRES
   235  119  120 1    
   236  119  240 1    
   237  120  121 1    
   238  120  124 1    
   239  120  241 1    
   240  121  122 am   BACKBONE|DICT|INTERRES
   241  121  123 2    
   242  122  242 1    
   243  122  243 1    
   244  124  125 1    
   245  124  244 1    
   246  124  245 1    
   247  125  126 1    
   248  126  246 1    
   249  126  247 1    
@<TRIPOS>SUBSTRUCTURE
     1 UNK         1 GROUP             0       ****    0 ROOT    
