@<TRIPOS>MOLECULE
3R540
247   249    1
SMALL
USER_CHARGES


@<TRIPOS>ATOM
      1 CA         -5.8914  -15.4546  -43.8745 C.3       0 UNK        -0.1800 
      2 C          -4.8332  -14.3833  -43.6500 C.2       0 UNK         0.5000 
      3 O          -5.0509  -13.4594  -42.8661 O.2       0 UNK        -0.5000 
      4 N          -3.6955  -14.5007  -44.3434 N.am      1 UNK        -0.5000 
      5 CA         -2.5302  -13.6191  -44.2372 C.3       1 UNK         0.1400 
      6 C6         -1.5303  -13.8033  -45.4127 C.3       23 UNK        -0.0398 
      7 S7         -1.4118  -15.4996  -46.0995 S.3       23 UNK        -0.2404 
      8 C8         -1.7177  -15.1556  -47.8627 C.3       23 UNK        -0.0205 
      9 C9         -1.5037  -16.3550  -48.7800 C.ar      23 UNK        -0.0193 
     10 C10        -2.4135  -16.6072  -49.8101 C.ar      23 UNK        -0.1150 
     11 C11        -2.1806  -17.6281  -50.7360 C.ar      23 UNK        -0.0193 
     12 C12        -1.0341  -18.4194  -50.6124 C.ar      23 UNK        -0.1150 
     13 C13        -0.1208  -18.1901  -49.5787 C.ar      23 UNK        -0.0193 
     14 C14        -0.3625  -17.1556  -48.6696 C.ar      23 UNK        -0.1150 
     15 C15         1.1609  -19.0098  -49.4834 C.3       23 UNK        -0.0205 
     16 S16         0.8879  -20.7175  -48.9090 S.3       23 UNK        -0.2404 
     17 C17         0.3041  -20.4589  -47.1997 C.3       23 UNK        -0.0398 
     18 CA         -0.9071  -21.3479  -46.8257 C.3       11 UNK         0.1400 
     19 N          -1.1631  -21.3159  -45.3840 N.am      11 UNK        -0.5000 
     20 C          -1.9484  -22.1783  -44.7224 C.2       10 UNK         0.5000 
     21 O          -2.5117  -23.1309  -45.2564 O.2       10 UNK        -0.5000 
     22 CA         -2.1844  -21.9098  -43.2221 C.3       10 UNK         0.1400 
     23 CB         -1.0891  -22.5768  -42.3773 C.3       10 UNK        -0.1800 
     24 N          -2.2423  -20.4848  -42.8955 N.am      10 UNK        -0.5000 
     25 C          -3.1422  -19.6246  -43.3906 C.2       9 UNK         0.5000 
     26 O          -4.0886  -19.9652  -44.0984 O.2       9 UNK        -0.5000 
     27 CA         -2.9291  -18.1283  -43.0960 C.3       9 UNK         0.1400 
     28 CB         -3.8116  -17.6915  -41.9178 C.3       9 UNK        -0.1800 
     29 N          -1.5454  -17.7242  -42.8254 N.am      9 UNK        -0.5000 
     30 C          -0.4763  -17.9521  -43.5987 C.2       8 UNK         0.5000 
     31 O          -0.4908  -18.6651  -44.6047 O.2       8 UNK        -0.5000 
     32 CA          0.8373  -17.3016  -43.1455 C.3       8 UNK         0.1400 
     33 CB          1.5513  -18.1908  -42.1164 C.3       8 UNK        -0.1800 
     34 N           1.7089  -17.1272  -44.3011 N.am      8 UNK        -0.5000 
     35 C           1.9673  -15.9636  -44.9023 C.2       7 UNK         0.5000 
     36 O           1.6617  -14.8635  -44.4371 O.2       7 UNK        -0.5000 
     37 CA          2.7125  -16.0657  -46.2436 C.3       7 UNK         0.1400 
     38 CB          2.4916  -14.8421  -47.1480 C.3       7 UNK        -0.1800 
     39 N           4.1415  -16.2604  -46.0182 N.am      7 UNK        -0.5000 
     40 C           4.7118  -17.4525  -45.7903 C.2       6 UNK         0.5000 
     41 O           4.0824  -18.5117  -45.7799 O.2       6 UNK        -0.5000 
     42 CA          6.2325  -17.4826  -45.5355 C.3       6 UNK         0.1400 
     43 CB          6.9829  -17.8666  -46.8200 C.3       6 UNK        -0.1800 
     44 N           6.7695  -16.2169  -45.0344 N.am      6 UNK        -0.5000 
     45 C           6.5436  -15.7238  -43.8104 C.2       5 UNK         0.5000 
     46 O           5.8787  -16.3064  -42.9521 O.2       5 UNK        -0.5000 
     47 CA          7.1282  -14.3338  -43.4862 C.3       5 UNK         0.1400 
     48 CB          8.1729  -13.8205  -44.5037 C.3       5 UNK        -0.1800 
     49 N           6.0496  -13.3610  -43.3026 N.am      5 UNK        -0.5000 
     50 C           5.1215  -13.0038  -44.2012 C.2       4 UNK         0.5000 
     51 O           5.1096  -13.3928  -45.3708 O.2       4 UNK        -0.5000 
     52 CA          3.9801  -12.1233  -43.6597 C.3       4 UNK         0.1400 
     53 CB          3.1759  -11.4244  -44.7692 C.3       4 UNK        -0.1800 
     54 N           3.0711  -12.9444  -42.8657 N.am      4 UNK        -0.5000 
     55 C           3.2857  -13.3357  -41.6050 C.2       3 UNK         0.5000 
     56 O           4.2493  -12.9621  -40.9315 O.2       3 UNK        -0.5000 
     57 CA          2.2433  -14.3102  -41.0215 C.3       3 UNK         0.1400 
     58 CB          2.5454  -14.7199  -39.5656 C.3       3 UNK        -0.1800 
     59 N           0.8648  -13.8161  -41.1393 N.am      3 UNK        -0.5000 
     60 C           0.3694  -12.6695  -40.6528 C.2       2 UNK         0.5000 
     61 O           1.0482  -11.8213  -40.0709 O.2       2 UNK        -0.5000 
     62 CA         -1.1477  -12.4465  -40.8349 C.3       2 UNK         0.1400 
     63 CB         -1.6144  -11.0783  -40.3037 C.3       2 UNK        -0.1800 
     64 N          -1.5965  -12.5793  -42.2229 N.am      2 UNK        -0.5000 
     65 C          -1.8559  -13.7324  -42.8513 C.2       1 UNK         0.5000 
     66 O          -1.5962  -14.8372  -42.3698 O.2       1 UNK        -0.5000 
     67 C          -2.1759  -20.9714  -47.6174 C.2       11 UNK         0.5000 
     68 O          -2.5040  -21.6437  -48.5967 O.2       11 UNK        -0.5000 
     69 N          -2.8926  -19.9417  -47.1436 N.am      12 UNK        -0.5000 
     70 CA         -4.1649  -19.4964  -47.7092 C.3       12 UNK         0.1400 
     71 CB         -4.5805  -18.1609  -47.0724 C.3       12 UNK        -0.1800 
     72 C          -5.2678  -20.5604  -47.5561 C.2       12 UNK         0.5000 
     73 O          -5.9608  -20.8660  -48.5266 O.2       12 UNK        -0.5000 
     74 N          -5.3726  -21.1442  -46.3533 N.am      13 UNK        -0.5000 
     75 CA         -6.3045  -22.2231  -46.0164 C.3       13 UNK         0.1400 
     76 CB         -6.2372  -22.4984  -44.5070 C.3       13 UNK        -0.1800 
     77 C          -6.0534  -23.5176  -46.8133 C.2       13 UNK         0.5000 
     78 O          -7.0109  -24.1943  -47.1890 O.2       13 UNK        -0.5000 
     79 N          -4.7771  -23.8195  -47.0865 N.am      14 UNK        -0.5000 
     80 CA         -4.3376  -24.9481  -47.9082 C.3       14 UNK         0.1400 
     81 CB         -2.8982  -25.3208  -47.5170 C.3       14 UNK        -0.1800 
     82 C          -4.4351  -24.6862  -49.4250 C.2       14 UNK         0.5000 
     83 O          -4.0416  -25.5600  -50.1977 O.2       14 UNK        -0.5000 
     84 N          -4.9178  -23.5029  -49.8353 N.am      15 UNK        -0.5000 
     85 CA         -5.0650  -23.0438  -51.2200 C.3       15 UNK         0.1400 
     86 CB         -6.1495  -23.8584  -51.9550 C.3       15 UNK        -0.1800 
     87 C          -3.7179  -23.0223  -51.9680 C.2       15 UNK         0.5000 
     88 O          -3.5979  -23.5905  -53.0560 O.2       15 UNK        -0.5000 
     89 N          -2.7174  -22.3928  -51.3369 N.am      16 UNK        -0.5000 
     90 CA         -1.3303  -22.2701  -51.7867 C.3       16 UNK         0.1400 
     91 CB         -1.2468  -21.4753  -53.1055 C.3       16 UNK        -0.1800 
     92 C          -0.6250  -23.6384  -51.8519 C.2       16 UNK         0.5000 
     93 O           0.0855  -23.9226  -52.8156 O.2       16 UNK        -0.5000 
     94 N          -0.8731  -24.4747  -50.8320 N.am      17 UNK        -0.5000 
     95 CA         -0.4255  -25.8674  -50.7076 C.3       17 UNK         0.1400 
     96 CB          1.1049  -25.9396  -50.5251 C.3       17 UNK        -0.1800 
     97 C          -0.9487  -26.7459  -51.8647 C.2       17 UNK         0.5000 
     98 O          -0.1803  -27.4657  -52.5046 O.2       17 UNK        -0.5000 
     99 N          -2.2604  -26.6340  -52.1161 N.am      18 UNK        -0.5000 
    100 CA        -3.0516  -27.3074  -53.1496 C.3       18 UNK         0.1400 
    101 CB        -3.0422  -28.8363  -52.9421 C.3       18 UNK        -0.1800 
    102 C         -2.7073  -26.9063  -54.6009 C.2       18 UNK         0.5000 
    103 O         -3.1681  -27.5711  -55.5307 O.2       18 UNK        -0.5000 
    104 N         -1.9416  -25.8217  -54.7919 N.am      19 UNK        -0.5000 
    105 CA        -1.6240  -25.2657  -56.1107 C.3       19 UNK         0.1400 
    106 CB        -0.3709  -24.3839  -56.0088 C.3       19 UNK        -0.1800 
    107 C         -2.7938  -24.4684  -56.7205 C.2       19 UNK         0.5000 
    108 O         -2.8153  -24.2717  -57.9356 O.2       19 UNK        -0.5000 
    109 N         -3.7291  -24.0166  -55.8699 N.am      20 UNK        -0.5000 
    110 CA        -4.9315  -23.2355  -56.1800 C.3       20 UNK         0.1400 
    111 CB        -5.8665  -23.9926  -57.1454 C.3       20 UNK        -0.1800 
    112 C         -4.6369  -21.7926  -56.6387 C.2       20 UNK         0.5000 
    113 O         -5.5233  -21.1309  -57.1824 O.2       20 UNK        -0.5000 
    114 N         -3.4191  -21.3000  -56.3645 N.am      21 UNK        -0.5000 
    115 CA        -2.9588  -19.9462  -56.6948 C.3       21 UNK         0.1400 
    116 CB        -1.4458  -19.8480  -56.4485 C.3       21 UNK        -0.1800 
    117 C         -3.7129  -18.8318  -55.9397 C.2       21 UNK         0.5000 
    118 O         -3.6940  -17.6828  -56.3824 O.2       21 UNK        -0.5000 
    119 N         -4.3867  -19.1946  -54.8399 N.am      22 UNK        -0.5000 
    120 CA        -5.3488  -18.3445  -54.1237 C.3       22 UNK         0.1400 
    121 C         -6.6731  -18.0762  -54.9029 C.2       22 UNK         0.5000 
    122 N         -6.9839  -18.7936  -55.9778 N.am      22 UNK        -0.7600 
    123 O         -7.4354  -17.1917  -54.5233 O.2       22 UNK        -0.5000 
    124 C124       -5.6704  -18.8983  -52.7086 C.3       23 UNK        -0.0398 
    125 S125       -4.2433  -19.2481  -51.6208 S.3       23 UNK        -0.2404 
    126 C126       -3.1428  -17.8292  -51.8969 C.3       23 UNK        -0.0205 
    127 H127       -6.1992  -15.8845  -42.9214 H         1 UNK         0.0600 
    128 H128       -5.5236  -16.2622  -44.5078 H         1 UNK         0.0600 
    129 H129       -6.7694  -15.0198  -44.3519 H         1 UNK         0.0600 
    130 H130       -3.5631  -15.2873  -44.9625 H         1 UNK         0.3000 
    131 H131       -2.9150  -12.5996  -44.3143 H         1 UNK         0.0600 
    132 H132       -1.8336  -13.1329  -46.2177 H         1 UNK         0.0800 
    133 H133       -0.5275  -13.4688  -45.1411 H         1 UNK         0.0800 
    134 H134       -2.7343  -14.7729  -47.9664 H         1 UNK         0.0800 
    135 H135       -1.0490  -14.3592  -48.1917 H         1 UNK         0.0800 
    136 H136       -3.2892  -15.9823  -49.9151 H         1 UNK         0.1150 
    137 H137       -0.8411  -19.2012  -51.3312 H         1 UNK         0.1150 
    138 H138        0.3503  -16.9533  -47.8862 H         1 UNK         0.1150 
    139 H139        1.6305  -19.0457  -50.4673 H         1 UNK         0.0800 
    140 H140        1.8825  -18.5250  -48.8238 H         1 UNK         0.0800 
    141 H141        0.0707  -19.4067  -47.0382 H         1 UNK         0.0800 
    142 H142        1.1420  -20.6802  -46.5371 H         1 UNK         0.0800 
    143 H143       -0.6565  -22.3790  -47.0851 H         1 UNK         0.0600 
    144 H144       -0.8035  -20.5025  -44.8914 H         1 UNK         0.3000 
    145 H145       -3.1443  -22.3542  -42.9520 H         1 UNK         0.0600 
    146 H146       -1.2887  -22.4636  -41.3116 H         1 UNK         0.0600 
    147 H147       -1.0336  -23.6463  -42.5848 H         1 UNK         0.0600 
    148 H148       -0.1062  -22.1506  -42.5829 H         1 UNK         0.0600 
    149 H149       -1.4953  -20.1159  -42.3264 H         1 UNK         0.3000 
    150 H150       -3.2490  -17.5810  -43.9843 H         1 UNK         0.0600 
    151 H151       -3.5117  -18.1804  -40.9902 H         1 UNK         0.0600 
    152 H152       -4.8582  -17.9411  -42.0974 H         1 UNK         0.0600 
    153 H153       -3.7573  -16.6142  -41.7603 H         1 UNK         0.0600 
    154 H154       -1.4385  -17.0625  -42.0677 H         1 UNK         0.3000 
    155 H155        0.6035  -16.3403  -42.6887 H         1 UNK         0.0600 
    156 H156        2.4989  -17.7501  -41.8059 H         1 UNK         0.0600 
    157 H157        1.7618  -19.1830  -42.5180 H         1 UNK         0.0600 
    158 H158        0.9438  -18.3195  -41.2198 H         1 UNK         0.0600 
    159 H159        2.0001  -17.9795  -44.7620 H         1 UNK         0.3000 
    160 H160        2.3147  -16.9308  -46.7765 H         1 UNK         0.0600 
    161 H161        2.9378  -13.9417  -46.7313 H         1 UNK         0.0600 
    162 H162        1.4281  -14.6462  -47.2885 H         1 UNK         0.0600 
    163 H163        2.9260  -15.0016  -48.1347 H         1 UNK         0.0600 
    164 H164        4.7028  -15.4188  -45.9469 H         1 UNK         0.3000 
    165 H165        6.4227  -18.2543  -44.7866 H         1 UNK         0.0600 
    166 H166        8.0529  -17.9678  -46.6373 H         1 UNK         0.0600 
    167 H167        6.6292  -18.8227  -47.2083 H         1 UNK         0.0600 
    168 H168        6.8439  -17.1221  -47.6050 H         1 UNK         0.0600 
    169 H169        7.3039  -15.6606  -45.6860 H         1 UNK         0.3000 
    170 H170        7.6284  -14.4299  -42.5215 H         1 UNK         0.0600 
    171 H171        9.0044  -14.5201  -44.5976 H         1 UNK         0.0600 
    172 H172        7.7526  -13.6682  -45.4980 H         1 UNK         0.0600 
    173 H173        8.5929  -12.8687  -44.1782 H         1 UNK         0.0600 
    174 H174        5.8963  -13.0603  -42.3466 H         1 UNK         0.3000 
    175 H175        4.4207  -11.3478  -43.0294 H         1 UNK         0.0600 
    176 H176        2.6173  -12.1361  -45.3761 H         1 UNK         0.0600 
    177 H177        2.4598  -10.7200  -44.3459 H         1 UNK         0.0600 
    178 H178        3.8316  -10.8619  -45.4349 H         1 UNK         0.0600 
    179 H179        2.3198  -13.3965  -43.3806 H         1 UNK         0.3000 
    180 H180        2.3116  -15.2114  -41.6294 H         1 UNK         0.0600 
    181 H181        2.5227  -13.8644  -38.8898 H         1 UNK         0.0600 
    182 H182        3.5335  -15.1745  -39.4856 H         1 UNK         0.0600 
    183 H183        1.8227  -15.4519  -39.2051 H         1 UNK         0.0600 
    184 H184        0.2107  -14.4146  -41.6327 H         1 UNK         0.3000 
    185 H185       -1.6474  -13.2118  -40.2369 H         1 UNK         0.0600 
    186 H186       -1.3601  -10.9577  -39.2498 H         1 UNK         0.0600 
    187 H187       -1.1531  -10.2551  -40.8507 H         1 UNK         0.0600 
    188 H188       -2.6963  -10.9716  -40.3861 H         1 UNK         0.0600 
    189 H189       -1.8038  -11.7120  -42.6964 H         1 UNK         0.3000 
    190 H190       -2.5633  -19.4598  -46.3201 H         1 UNK         0.3000 
    191 H191       -4.0066  -19.3246  -48.7738 H         1 UNK         0.0600 
    192 H192       -3.8029  -17.4073  -47.1928 H         1 UNK         0.0600 
    193 H193       -5.4839  -17.7730  -47.5442 H         1 UNK         0.0600 
    194 H194       -4.7861  -18.2623  -46.0074 H         1 UNK         0.0600 
    195 H195       -4.7892  -20.7990  -45.5941 H         1 UNK         0.3000 
    196 H196       -7.3119  -21.8769  -46.2562 H         1 UNK         0.0600 
    197 H197       -6.9471  -23.2746  -44.2184 H         1 UNK         0.0600 
    198 H198       -6.4797  -21.6048  -43.9315 H         1 UNK         0.0600 
    199 H199       -5.2441  -22.8317  -44.2048 H         1 UNK         0.0600 
    200 H200       -4.0430  -23.2436  -46.6894 H         1 UNK         0.3000 
    201 H201       -4.9754  -25.8074  -47.6919 H         1 UNK         0.0600 
    202 H202       -2.5588  -26.2051  -48.0568 H         1 UNK         0.0600 
    203 H203       -2.8277  -25.5524  -46.4542 H         1 UNK         0.0600 
    204 H204       -2.2003  -24.5105  -47.7314 H         1 UNK         0.0600 
    205 H205       -5.1835  -22.8270  -49.1293 H         1 UNK         0.3000 
    206 H206       -5.4091  -22.0106  -51.1661 H         1 UNK         0.0600 
    207 H207       -5.8530  -24.8980  -52.0977 H         1 UNK         0.0600 
    208 H208       -7.0889  -23.8506  -51.4023 H         1 UNK         0.0600 
    209 H209       -6.3503  -23.4379  -52.9405 H         1 UNK         0.0600 
    210 H210       -2.8953  -22.0098  -50.4105 H         1 UNK         0.3000 
    211 H211       -0.8144  -21.6924  -51.0215 H         1 UNK         0.0600 
    212 H212       -0.2105  -21.2504  -53.3594 H         1 UNK         0.0600 
    213 H213       -1.7785  -20.5276  -53.0303 H         1 UNK         0.0600 
    214 H214       -1.6757  -22.0278  -53.9400 H         1 UNK         0.0600 
    215 H215       -1.4982  -24.1471  -50.1099 H         1 UNK         0.3000 
    216 H216       -0.8806  -26.2597  -49.7979 H         1 UNK         0.0600 
    217 H217        1.4239  -26.9617  -50.3184 H         1 UNK         0.0600 
    218 H218        1.4308  -25.3222  -49.6881 H         1 UNK         0.0600 
    219 H219        1.6384  -25.6058  -51.4155 H         1 UNK         0.0600 
    220 H220       -2.8097  -26.0380  -51.4994 H         1 UNK         0.3000 
    221 H221       -4.0756  -26.9659  -52.9911 H         1 UNK         0.0600 
    222 H222       -2.0643  -29.2688  -53.1546 H         1 UNK         0.0600 
    223 H223       -3.3103  -29.0965  -51.9181 H         1 UNK         0.0600 
    224 H224       -3.7634  -29.3259  -53.5975 H         1 UNK         0.0600 
    225 H225       -1.5941  -25.3206  -53.9849 H         1 UNK         0.3000 
    226 H226       -1.3974  -26.0902  -56.7900 H         1 UNK         0.0600 
    227 H227        0.4656  -24.9334  -55.5766 H         1 UNK         0.0600 
    228 H228       -0.0580  -24.0364  -56.9941 H         1 UNK         0.0600 
    229 H229       -0.5458  -23.5019  -55.3940 H         1 UNK         0.0600 
    230 H230       -3.5810  -24.1744  -54.8754 H         1 UNK         0.3000 
    231 H231       -5.4630  -23.1351  -55.2332 H         1 UNK         0.0600 
    232 H232       -5.4502  -24.0552  -58.1509 H         1 UNK         0.0600 
    233 H233       -6.8325  -23.4929  -57.2256 H         1 UNK         0.0600 
    234 H234       -6.0561  -25.0074  -56.7955 H         1 UNK         0.0600 
    235 H235       -2.7565  -21.9084  -55.9084 H         1 UNK         0.3000 
    236 H236       -3.1379  -19.7911  -57.7608 H         1 UNK         0.0600 
    237 H237       -1.0582  -18.8908  -56.7997 H         1 UNK         0.0600 
    238 H238       -1.2018  -19.9254  -55.3903 H         1 UNK         0.0600 
    239 H239       -0.9041  -20.6310  -56.9797 H         1 UNK         0.0600 
    240 H240       -4.3285  -20.1547  -54.5384 H         1 UNK         0.3000 
    241 H241       -4.8862  -17.3640  -54.0066 H         1 UNK         0.0600 
    242 H242       -7.8438  -18.5972  -56.4651 H         1 UNK         0.3800 
    243 H243       -6.3788  -19.5321  -56.3204 H         1 UNK         0.3800 
    244 H244       -6.3132  -18.1977  -52.1726 H         1 UNK         0.0800 
    245 H245       -6.2448  -19.8225  -52.7924 H         1 UNK         0.0800 
    246 H246       -2.5827  -17.9768  -52.8213 H         1 UNK         0.0800 
    247 H247       -3.7405  -16.9274  -52.0351 H         1 UNK         0.0800 
@<TRIPOS>BOND
     1    1    2 1    
     2    1  127 1    
     3    1  128 1    
     4    1  129 1    
     5    2    3 2    
     6    2    4 am   BACKBONE|DICT|INTERRES
     7    4    5 1    
     8    4  130 1    
     9    5    6 1    
    10    5   65 1    
    11    5  131 1    
    12    6    7 1    
    13    6  132 1    
    14    6  133 1    
    15    7    8 1    
    16    8    9 1    
    17    8  134 1    
    18    8  135 1    
    19    9   10 ar   
    20    9   14 ar   
    21   10   11 ar   
    22   10  136 1    
    23   11   12 ar   
    24   11  126 1    
    25   12   13 ar   
    26   12  137 1    
    27   13   14 ar   
    28   13   15 1    
    29   14  138 1    
    30   15   16 1    
    31   15  139 1    
    32   15  140 1    
    33   16   17 1    
    34   17   18 1    
    35   17  141 1    
    36   17  142 1    
    37   18   19 1    
    38   18   67 1    
    39   18  143 1    
    40   19   20 am   BACKBONE|DICT|INTERRES
    41   19  144 1    
    42   20   21 2    
    43   20   22 1    
    44   22   23 1    
    45   22   24 1    
    46   22  145 1    
    47   23  146 1    
    48   23  147 1    
    49   23  148 1    
    50   24   25 am   BACKBONE|DICT|INTERRES
    51   24  149 1    
    52   25   26 2    
    53   25   27 1    
    54   27   28 1    
    55   27   29 1    
    56   27  150 1    
    57   28  151 1    
    58   28  152 1    
    59   28  153 1    
    60   29   30 am   BACKBONE|DICT|INTERRES
    61   29  154 1    
    62   30   31 2    
    63   30   32 1    
    64   32   33 1    
    65   32   34 1    
    66   32  155 1    
    67   33  156 1    
    68   33  157 1    
    69   33  158 1    
    70   34   35 am   BACKBONE|DICT|INTERRES
    71   34  159 1    
    72   35   36 2    
    73   35   37 1    
    74   37   38 1    
    75   37   39 1    
    76   37  160 1    
    77   38  161 1    
    78   38  162 1    
    79   38  163 1    
    80   39   40 am   BACKBONE|DICT|INTERRES
    81   39  164 1    
    82   40   41 2    
    83   40   42 1    
    84   42   43 1    
    85   42   44 1    
    86   42  165 1    
    87   43  166 1    
    88   43  167 1    
    89   43  168 1    
    90   44   45 am   BACKBONE|DICT|INTERRES
    91   44  169 1    
    92   45   46 2    
    93   45   47 1    
    94   47   48 1    
    95   47   49 1    
    96   47  170 1    
    97   48  171 1    
    98   48  172 1    
    99   48  173 1    
   100   49   50 am   BACKBONE|DICT|INTERRES
   101   49  174 1    
   102   50   51 2    
   103   50   52 1    
   104   52   53 1    
   105   52   54 1    
   106   52  175 1    
   107   53  176 1    
   108   53  177 1    
   109   53  178 1    
   110   54   55 am   BACKBONE|DICT|INTERRES
   111   54  179 1    
   112   55   56 2    
   113   55   57 1    
   114   57   58 1    
   115   57   59 1    
   116   57  180 1    
   117   58  181 1    
   118   58  182 1    
   119   58  183 1    
   120   59   60 am   BACKBONE|DICT|INTERRES
   121   59  184 1    
   122   60   61 2    
   123   60   62 1    
   124   62   63 1    
   125   62   64 1    
   126   62  185 1    
   127   63  186 1    
   128   63  187 1    
   129   63  188 1    
   130   64   65 am   BACKBONE|DICT|INTERRES
   131   64  189 1    
   132   65   66 2    
   133   67   68 2    
   134   67   69 am   BACKBONE|DICT|INTERRES
   135   69   70 1    
   136   69  190 1    
   137   70   71 1    
   138   70   72 1    
   139   70  191 1    
   140   71  192 1    
   141   71  193 1    
   142   71  194 1    
   143   72   73 2    
   144   72   74 am   BACKBONE|DICT|INTERRES
   145   74   75 1    
   146   74  195 1    
   147   75   76 1    
   148   75   77 1    
   149   75  196 1    
   150   76  197 1    
   151   76  198 1    
   152   76  199 1    
   153   77   78 2    
   154   77   79 am   BACKBONE|DICT|INTERRES
   155   79   80 1    
   156   79  200 1    
   157   80   81 1    
   158   80   82 1    
   159   80  201 1    
   160   81  202 1    
   161   81  203 1    
   162   81  204 1    
   163   82   83 2    
   164   82   84 am   BACKBONE|DICT|INTERRES
   165   84   85 1    
   166   84  205 1    
   167   85   86 1    
   168   85   87 1    
   169   85  206 1    
   170   86  207 1    
   171   86  208 1    
   172   86  209 1    
   173   87   88 2    
   174   87   89 am   BACKBONE|DICT|INTERRES
   175   89   90 1    
   176   89  210 1    
   177   90   91 1    
   178   90   92 1    
   179   90  211 1    
   180   91  212 1    
   181   91  213 1    
   182   91  214 1    
   183   92   93 2    
   184   92   94 am   BACKBONE|DICT|INTERRES
   185   94   95 1    
   186   94  215 1    
   187   95   96 1    
   188   95   97 1    
   189   95  216 1    
   190   96  217 1    
   191   96  218 1    
   192   96  219 1    
   193   97   98 2    
   194   97   99 am   BACKBONE|DICT|INTERRES
   195   99  100 1    
   196   99  220 1    
   197  100  101 1    
   198  100  102 1    
   199  100  221 1    
   200  101  222 1    
   201  101  223 1    
   202  101  224 1    
   203  102  103 2    
   204  102  104 am   BACKBONE|DICT|INTERRES
   205  104  105 1    
   206  104  225 1    
   207  105  106 1    
   208  105  107 1    
   209  105  226 1    
   210  106  227 1    
   211  106  228 1    
   212  106  229 1    
   213  107  108 2    
   214  107  109 am   BACKBONE|DICT|INTERRES
   215  109  110 1    
   216  109  230 1    
   217  110  111 1    
   218  110  112 1    
   219  110  231 1    
   220  111  232 1    
   221  111  233 1    
   222  111  234 1    
   223  112  113 2    
   224  112  114 am   BACKBONE|DICT|INTERRES
   225  114  115 1    
   226  114  235 1    
   227  115  116 1    
   228  115  117 1    
   229  115  236 1    
   230  116  237 1    
   231  116  238 1    
   232  116  239 1    
   233  117  118 2    
   234  117  119 am   BACKBONE|DICT|INTERRES
   235  119  120 1    
   236  119  240 1    
   237  120  121 1    
   238  120  124 1    
   239  120  241 1    
   240  121  122 am   BACKBONE|DICT|INTERRES
   241  121  123 2    
   242  122  242 1    
   243  122  243 1    
   244  124  125 1    
   245  124  244 1    
   246  124  245 1    
   247  125  126 1    
   248  126  246 1    
   249  126  247 1    
@<TRIPOS>SUBSTRUCTURE
     1 UNK         1 GROUP             0       ****    0 ROOT    
