@<TRIPOS>MOLECULE
3R540
247   249    1
SMALL
USER_CHARGES


@<TRIPOS>ATOM
      1 CA         -3.6983  -11.3391  -49.4253 C.3       0 UNK        -0.1800 
      2 C          -3.0808  -12.3619  -48.4841 C.2       0 UNK         0.5000 
      3 O          -3.3884  -12.3574  -47.2921 O.2       0 UNK        -0.5000 
      4 N          -2.2283  -13.2489  -49.0197 N.am      1 UNK        -0.5000 
      5 CA         -1.4902  -14.3036  -48.3058 C.3       1 UNK         0.1400 
      6 C6         -0.6533  -15.1730  -49.2847 C.3       23 UNK        -0.0398 
      7 S7          0.9193  -15.7871  -48.5877 S.3       23 UNK        -0.2404 
      8 C8          0.4650  -17.3047  -47.6822 C.3       23 UNK        -0.0205 
      9 C9          0.0139  -18.4444  -48.5826 C.ar      23 UNK        -0.0193 
     10 C10        -1.3264  -18.5695  -48.9593 C.ar      23 UNK        -0.1150 
     11 C11        -1.7580  -19.6532  -49.7307 C.ar      23 UNK        -0.0193 
     12 C12        -0.8286  -20.6250  -50.1164 C.ar      23 UNK        -0.1150 
     13 C13         0.5136  -20.5109  -49.7458 C.ar      23 UNK        -0.0193 
     14 C14         0.9306  -19.4157  -48.9863 C.ar      23 UNK        -0.1150 
     15 C15         1.5172  -21.5669  -50.1712 C.3       23 UNK        -0.0205 
     16 S16         1.2390  -23.1759  -49.3613 S.3       23 UNK        -0.2404 
     17 C17         1.4416  -22.7828  -47.5861 C.3       23 UNK        -0.0398 
     18 CA          0.2350  -23.2715  -46.7488 C.3       11 UNK         0.1400 
     19 N           0.5600  -23.4445  -45.3323 N.am      11 UNK        -0.5000 
     20 C          -0.1772  -24.1663  -44.4756 C.2       10 UNK         0.5000 
     21 O          -1.1831  -24.7961  -44.8018 O.2       10 UNK        -0.5000 
     22 CA          0.2500  -24.1320  -42.9972 C.3       10 UNK         0.1400 
     23 CB          1.4255  -25.0881  -42.7463 C.3       10 UNK        -0.1800 
     24 N           0.6125  -22.7847  -42.5565 N.am      10 UNK        -0.5000 
     25 C          -0.2476  -21.7592  -42.4841 C.2       9 UNK         0.5000 
     26 O          -1.4509  -21.8604  -42.7211 O.2       9 UNK        -0.5000 
     27 CA          0.3405  -20.3806  -42.1292 C.3       9 UNK         0.1400 
     28 CB          0.3300  -20.1698  -40.6080 C.3       9 UNK        -0.1800 
     29 N           1.6956  -20.1462  -42.6372 N.am      9 UNK        -0.5000 
     30 C           2.0821  -20.2147  -43.9205 C.2       8 UNK         0.5000 
     31 O           1.3455  -20.5842  -44.8359 O.2       8 UNK        -0.5000 
     32 CA          3.5297  -19.7837  -44.2111 C.3       8 UNK         0.1400 
     33 CB          3.8014  -19.5801  -45.7128 C.3       8 UNK        -0.1800 
     34 N           3.7980  -18.5359  -43.5021 N.am      8 UNK        -0.5000 
     35 C           4.8022  -18.3079  -42.6464 C.2       7 UNK         0.5000 
     36 O           5.6581  -19.1496  -42.3696 O.2       7 UNK        -0.5000 
     37 CA          4.8357  -16.9265  -41.9495 C.3       7 UNK         0.1400 
     38 CB          6.2723  -16.4217  -41.6980 C.3       7 UNK        -0.1800 
     39 N           4.0194  -15.9014  -42.6144 N.am      7 UNK        -0.5000 
     40 C           4.1989  -15.3821  -43.8391 C.2       6 UNK         0.5000 
     41 O           5.1637  -15.6426  -44.5595 O.2       6 UNK        -0.5000 
     42 CA          3.0906  -14.4313  -44.3456 C.3       6 UNK         0.1400 
     43 CB          3.0488  -14.3488  -45.8845 C.3       6 UNK        -0.1800 
     44 N           1.7497  -14.7394  -43.8279 N.am      6 UNK        -0.5000 
     45 C           1.0688  -15.8899  -43.9365 C.2       5 UNK         0.5000 
     46 O           1.5450  -16.9207  -44.4092 O.2       5 UNK        -0.5000 
     47 CA         -0.3874  -15.9048  -43.4334 C.3       5 UNK         0.1400 
     48 CB         -0.4612  -16.2697  -41.9395 C.3       5 UNK        -0.1800 
     49 N          -1.1459  -14.6857  -43.7433 N.am      5 UNK        -0.5000 
     50 C          -1.0027  -13.4447  -43.2586 C.2       4 UNK         0.5000 
     51 O          -0.1777  -13.1392  -42.3967 O.2       4 UNK        -0.5000 
     52 CA         -1.8813  -12.3411  -43.8769 C.3       4 UNK         0.1400 
     53 CB         -1.0834  -11.5696  -44.9398 C.3       4 UNK        -0.1800 
     54 N          -3.1220  -12.8278  -44.4833 N.am      4 UNK        -0.5000 
     55 C          -4.1957  -13.2460  -43.7986 C.2       3 UNK         0.5000 
     56 O          -4.2338  -13.3270  -42.5704 O.2       3 UNK        -0.5000 
     57 CA         -5.4400  -13.6235  -44.6210 C.3       3 UNK         0.1400 
     58 CB         -6.2133  -12.3619  -45.0367 C.3       3 UNK        -0.1800 
     59 N          -5.0773  -14.3788  -45.8190 N.am      3 UNK        -0.5000 
     60 C          -5.1130  -15.7153  -45.9148 C.2       2 UNK         0.5000 
     61 O          -5.5272  -16.4541  -45.0213 O.2       2 UNK        -0.5000 
     62 CA         -4.5867  -16.3442  -47.2234 C.3       2 UNK         0.1400 
     63 CB         -5.7460  -16.6454  -48.1853 C.3       2 UNK        -0.1800 
     64 N          -3.5891  -15.5300  -47.9229 N.am      2 UNK        -0.5000 
     65 C          -2.3960  -15.1851  -47.4190 C.2       1 UNK         0.5000 
     66 O          -2.0282  -15.4927  -46.2882 O.2       1 UNK        -0.5000 
     67 C          -1.0049  -22.3756  -46.9254 C.2       11 UNK         0.5000 
     68 O          -1.8488  -22.6929  -47.7586 O.2       11 UNK        -0.5000 
     69 N          -1.1352  -21.3232  -46.1044 N.am      12 UNK        -0.5000 
     70 CA         -2.3013  -20.4361  -46.0824 C.3       12 UNK         0.1400 
     71 CB         -2.0442  -19.2584  -45.1310 C.3       12 UNK        -0.1800 
     72 C          -3.6149  -21.1621  -45.7380 C.2       12 UNK         0.5000 
     73 O          -4.6519  -20.8432  -46.3201 O.2       12 UNK        -0.5000 
     74 N          -3.5396  -22.1413  -44.8277 N.am      13 UNK        -0.5000 
     75 CA         -4.6464  -23.0237  -44.4724 C.3       13 UNK         0.1400 
     76 CB         -4.3433  -23.7003  -43.1261 C.3       13 UNK        -0.1800 
     77 C          -4.9370  -24.0744  -45.5611 C.2       13 UNK         0.5000 
     78 O          -6.0970  -24.2520  -45.9351 O.2       13 UNK        -0.5000 
     79 N          -3.8916  -24.7727  -46.0265 N.am      14 UNK        -0.5000 
     80 CA         -4.0135  -25.9185  -46.9314 C.3       14 UNK         0.1400 
     81 CB         -2.7573  -26.7933  -46.7958 C.3       14 UNK        -0.1800 
     82 C          -4.2309  -25.5487  -48.4102 C.2       14 UNK         0.5000 
     83 O          -4.8114  -26.3507  -49.1427 O.2       14 UNK        -0.5000 
     84 N          -3.7171  -24.3837  -48.8323 N.am      15 UNK        -0.5000 
     85 CA         -3.5658  -23.9232  -50.2193 C.3       15 UNK         0.1400 
     86 CB         -4.9370  -23.6812  -50.8822 C.3       15 UNK        -0.1800 
     87 C          -2.6419  -24.8476  -51.0450 C.2       15 UNK         0.5000 
     88 O          -2.8724  -25.0466  -52.2379 O.2       15 UNK        -0.5000 
     89 N          -1.6285  -25.4197  -50.3761 N.am      16 UNK        -0.5000 
     90 CA         -0.8005  -26.5268  -50.8591 C.3       16 UNK         0.1400 
     91 CB          0.1139  -27.0132  -49.7229 C.3       16 UNK        -0.1800 
     92 C           0.0109  -26.2090  -52.1267 C.2       16 UNK         0.5000 
     93 O          -0.0886  -26.9454  -53.1090 O.2       16 UNK        -0.5000 
     94 N           0.7891  -25.1196  -52.0851 N.am      17 UNK        -0.5000 
     95 CA          1.6076  -24.6559  -53.2113 C.3       17 UNK         0.1400 
     96 CB          2.9507  -24.1229  -52.6856 C.3       17 UNK        -0.1800 
     97 C           0.8804  -23.6167  -54.0895 C.2       17 UNK         0.5000 
     98 O           1.4235  -23.2342  -55.1258 O.2       17 UNK        -0.5000 
     99 N          -0.3314  -23.2109  -53.6764 N.am      18 UNK        -0.5000 
    100 CA        -1.2819  -22.3390  -54.3737 C.3       18 UNK         0.1400 
    101 CB        -1.8719  -23.0675  -55.5978 C.3       18 UNK        -0.1800 
    102 C         -0.6993  -20.9564  -54.7332 C.2       18 UNK         0.5000 
    103 O         -0.3481  -20.7061  -55.8891 O.2       18 UNK        -0.5000 
    104 N         -0.6160  -20.0757  -53.7274 N.am      19 UNK        -0.5000 
    105 CA        -0.3141  -18.6525  -53.9001 C.3       19 UNK         0.1400 
    106 CB        -0.0359  -18.0343  -52.5199 C.3       19 UNK        -0.1800 
    107 C         -1.4700  -17.9056  -54.5990 C.2       19 UNK         0.5000 
    108 O         -2.5712  -18.4429  -54.7248 O.2       19 UNK        -0.5000 
    109 N         -1.2212  -16.6521  -55.0017 N.am      20 UNK        -0.5000 
    110 CA        -2.1794  -15.7850  -55.7035 C.3       20 UNK         0.1400 
    111 CB        -1.4740  -14.4735  -56.0821 C.3       20 UNK        -0.1800 
    112 C         -3.4834  -15.4891  -54.9283 C.2       20 UNK         0.5000 
    113 O         -4.4911  -15.1439  -55.5463 O.2       20 UNK        -0.5000 
    114 N         -3.4446  -15.6394  -53.5981 N.am      21 UNK        -0.5000 
    115 CA        -4.5912  -15.5079  -52.6989 C.3       21 UNK         0.1400 
    116 CB        -4.0650  -15.1419  -51.3034 C.3       21 UNK        -0.1800 
    117 C         -5.4730  -16.7737  -52.6260 C.2       21 UNK         0.5000 
    118 O         -6.5229  -16.7286  -51.9836 O.2       21 UNK        -0.5000 
    119 N         -5.0418  -17.8766  -53.2470 N.am      22 UNK        -0.5000 
    120 CA        -5.7096  -19.1826  -53.2265 C.3       22 UNK         0.1400 
    121 C         -5.5767  -19.9059  -54.5995 C.2       22 UNK         0.5000 
    122 N         -5.4626  -21.2277  -54.6409 N.am      22 UNK        -0.7600 
    123 O         -5.6467  -19.2759  -55.6527 O.2       22 UNK        -0.5000 
    124 C124       -5.3232  -20.0184  -51.9719 C.3       23 UNK        -0.0398 
    125 S125       -3.5252  -20.3101  -51.8037 S.3       23 UNK        -0.2404 
    126 C126       -3.2360  -19.7804  -50.0846 C.3       23 UNK        -0.0205 
    127 H127       -3.3548  -11.4708  -50.4515 H         1 UNK         0.0600 
    128 H128       -3.4369  -10.3308  -49.1044 H         1 UNK         0.0600 
    129 H129       -4.7843  -11.4304  -49.4154 H         1 UNK         0.0600 
    130 H130       -2.0176  -13.1671  -50.0035 H         1 UNK         0.3000 
    131 H131       -0.8033  -13.7803  -47.6380 H         1 UNK         0.0600 
    132 H132       -1.2305  -15.9865  -49.7215 H         1 UNK         0.0800 
    133 H133       -0.3546  -14.5650  -50.1397 H         1 UNK         0.0800 
    134 H134        1.3373  -17.6220  -47.1102 H         1 UNK         0.0800 
    135 H135       -0.2935  -17.0997  -46.9326 H         1 UNK         0.0800 
    136 H136       -2.0455  -17.8396  -48.6212 H         1 UNK         0.1150 
    137 H137       -1.1491  -21.4840  -50.6869 H         1 UNK         0.1150 
    138 H138        1.9665  -19.3282  -48.6900 H         1 UNK         0.1150 
    139 H139        1.4357  -21.6887  -51.2511 H         1 UNK         0.0800 
    140 H140        2.5391  -21.2393  -49.9741 H         1 UNK         0.0800 
    141 H141        1.6227  -21.7178  -47.4351 H         1 UNK         0.0800 
    142 H142        2.3496  -23.2877  -47.2545 H         1 UNK         0.0800 
    143 H143       -0.0365  -24.2620  -47.1219 H         1 UNK         0.0600 
    144 H144        1.3099  -22.8729  -44.9697 H         1 UNK         0.3000 
    145 H145       -0.5985  -24.4687  -42.3976 H         1 UNK         0.0600 
    146 H146        1.6826  -25.1268  -41.6876 H         1 UNK         0.0600 
    147 H147        1.1743  -26.1036  -43.0559 H         1 UNK         0.0600 
    148 H148        2.3172  -24.7877  -43.2979 H         1 UNK         0.0600 
    149 H149        1.5838  -22.6150  -42.3419 H         1 UNK         0.3000 
    150 H150       -0.3033  -19.6240  -42.5791 H         1 UNK         0.0600 
    151 H151        0.9791  -20.8833  -40.0988 H         1 UNK         0.0600 
    152 H152       -0.6756  -20.2941  -40.2037 H         1 UNK         0.0600 
    153 H153        0.6627  -19.1663  -40.3428 H         1 UNK         0.0600 
    154 H154        2.3770  -19.8373  -41.9598 H         1 UNK         0.3000 
    155 H155        4.1771  -20.5841  -43.8484 H         1 UNK         0.0600 
    156 H156        3.1555  -18.8094  -46.1337 H         1 UNK         0.0600 
    157 H157        3.6300  -20.4994  -46.2737 H         1 UNK         0.0600 
    158 H158        4.8346  -19.2801  -45.8872 H         1 UNK         0.0600 
    159 H159        3.1191  -17.7995  -43.6784 H         1 UNK         0.3000 
    160 H160        4.3739  -17.0814  -40.9735 H         1 UNK         0.0600 
    161 H161        6.8397  -16.3292  -42.6242 H         1 UNK         0.0600 
    162 H162        6.8198  -17.1071  -41.0502 H         1 UNK         0.0600 
    163 H163        6.2686  -15.4485  -41.2070 H         1 UNK         0.0600 
    164 H164        3.1896  -15.6162  -42.1136 H         1 UNK         0.3000 
    165 H165        3.3438  -13.4403  -43.9668 H         1 UNK         0.0600 
    166 H166        2.2494  -13.6908  -46.2258 H         1 UNK         0.0600 
    167 H167        3.9846  -13.9567  -46.2841 H         1 UNK         0.0600 
    168 H168        2.8884  -15.3307  -46.3308 H         1 UNK         0.0600 
    169 H169        1.2692  -13.9768  -43.3587 H         1 UNK         0.3000 
    170 H170       -0.8907  -16.7001  -43.9844 H         1 UNK         0.0600 
    171 H171        0.0214  -17.2291  -41.7533 H         1 UNK         0.0600 
    172 H172        0.0353  -15.5315  -41.3098 H         1 UNK         0.0600 
    173 H173       -1.4955  -16.3553  -41.6064 H         1 UNK         0.0600 
    174 H174       -1.7804  -14.8000  -44.5296 H         1 UNK         0.3000 
    175 H175       -2.1429  -11.6453  -43.0770 H         1 UNK         0.0600 
    176 H176       -0.7922  -12.2147  -45.7691 H         1 UNK         0.0600 
    177 H177       -1.6657  -10.7432  -45.3479 H         1 UNK         0.0600 
    178 H178       -0.1714  -11.1467  -44.5165 H         1 UNK         0.0600 
    179 H179       -3.1880  -12.7500  -45.4952 H         1 UNK         0.3000 
    180 H180       -6.0953  -14.2197  -43.9824 H         1 UNK         0.0600 
    181 H181       -5.6181  -11.7152  -45.6827 H         1 UNK         0.0600 
    182 H182       -6.5038  -11.7767  -44.1633 H         1 UNK         0.0600 
    183 H183       -7.1264  -12.6203  -45.5732 H         1 UNK         0.0600 
    184 H184       -4.6751  -13.8449  -46.5801 H         1 UNK         0.3000 
    185 H185       -4.1120  -17.2915  -46.9599 H         1 UNK         0.0600 
    186 H186       -6.4885  -17.2889  -47.7115 H         1 UNK         0.0600 
    187 H187       -6.2553  -15.7336  -48.4997 H         1 UNK         0.0600 
    188 H188       -5.3978  -17.1608  -49.0805 H         1 UNK         0.0600 
    189 H189       -3.8437  -15.1874  -48.8366 H         1 UNK         0.3000 
    190 H190       -0.3643  -21.0947  -45.4829 H         1 UNK         0.3000 
    191 H191       -2.4234  -20.0373  -47.0858 H         1 UNK         0.0600 
    192 H192       -1.0828  -18.7868  -45.3345 H         1 UNK         0.0600 
    193 H193       -2.8138  -18.4939  -45.2409 H         1 UNK         0.0600 
    194 H194       -2.0515  -19.5762  -44.0897 H         1 UNK         0.0600 
    195 H195       -2.6607  -22.2886  -44.3436 H         1 UNK         0.3000 
    196 H196       -5.5449  -22.4158  -44.3458 H         1 UNK         0.0600 
    197 H197       -5.1570  -24.3629  -42.8290 H         1 UNK         0.0600 
    198 H198       -4.2193  -22.9610  -42.3345 H         1 UNK         0.0600 
    199 H199       -3.4311  -24.2967  -43.1684 H         1 UNK         0.0600 
    200 H200       -2.9668  -24.5918  -45.6476 H         1 UNK         0.3000 
    201 H201       -4.8707  -26.5175  -46.6164 H         1 UNK         0.0600 
    202 H202       -2.8194  -27.6743  -47.4360 H         1 UNK         0.0600 
    203 H203       -2.6304  -27.1447  -45.7716 H         1 UNK         0.0600 
    204 H204       -1.8560  -26.2466  -47.0748 H         1 UNK         0.0600 
    205 H205       -3.2256  -23.8025  -48.1555 H         1 UNK         0.3000 
    206 H206       -3.0565  -22.9610  -50.1664 H         1 UNK         0.0600 
    207 H207       -5.5439  -22.9979  -50.2883 H         1 UNK         0.0600 
    208 H208       -4.8166  -23.2361  -51.8698 H         1 UNK         0.0600 
    209 H209       -5.4984  -24.6065  -51.0112 H         1 UNK         0.0600 
    210 H210       -1.5060  -25.1585  -49.4094 H         1 UNK         0.3000 
    211 H211       -1.4785  -27.3455  -51.1096 H         1 UNK         0.0600 
    212 H212        0.7659  -26.2200  -49.3561 H         1 UNK         0.0600 
    213 H213        0.7514  -27.8325  -50.0578 H         1 UNK         0.0600 
    214 H214       -0.4687  -27.3839  -48.8798 H         1 UNK         0.0600 
    215 H215        0.8287  -24.5741  -51.2334 H         1 UNK         0.3000 
    216 H216        1.8387  -25.5008  -53.8635 H         1 UNK         0.0600 
    217 H217        3.6065  -23.8389  -53.5094 H         1 UNK         0.0600 
    218 H218        3.4737  -24.8831  -52.1051 H         1 UNK         0.0600 
    219 H219        2.8293  -23.2475  -52.0528 H         1 UNK         0.0600 
    220 H220       -0.6756  -23.6250  -52.8228 H         1 UNK         0.3000 
    221 H221       -2.1068  -22.1675  -53.6812 H         1 UNK         0.0600 
    222 H222       -1.1076  -23.3107  -56.3366 H         1 UNK         0.0600 
    223 H223       -2.3602  -23.9964  -55.3023 H         1 UNK         0.0600 
    224 H224       -2.6218  -22.4489  -56.0925 H         1 UNK         0.0600 
    225 H225       -0.9713  -20.3407  -52.8207 H         1 UNK         0.3000 
    226 H226        0.5820  -18.5597  -54.5170 H         1 UNK         0.0600 
    227 H227        0.7483  -18.5776  -51.9927 H         1 UNK         0.0600 
    228 H228        0.2964  -16.9995  -52.6066 H         1 UNK         0.0600 
    229 H229       -0.9276  -18.0378  -51.8930 H         1 UNK         0.0600 
    230 H230       -0.2997  -16.2664  -54.8535 H         1 UNK         0.3000 
    231 H231       -2.4667  -16.2958  -56.6249 H         1 UNK         0.0600 
    232 H232       -1.1335  -13.9315  -55.1990 H         1 UNK         0.0600 
    233 H233       -2.1440  -13.8131  -56.6343 H         1 UNK         0.0600 
    234 H234       -0.6084  -14.6592  -56.7184 H         1 UNK         0.0600 
    235 H235       -2.5744  -15.9350  -53.1827 H         1 UNK         0.3000 
    236 H236       -5.2238  -14.6895  -53.0491 H         1 UNK         0.0600 
    237 H237       -3.4570  -14.2391  -51.3449 H         1 UNK         0.0600 
    238 H238       -4.8892  -14.9468  -50.6166 H         1 UNK         0.0600 
    239 H239       -3.4590  -15.9456  -50.8834 H         1 UNK         0.0600 
    240 H240       -4.1830  -17.8560  -53.7902 H         1 UNK         0.3000 
    241 H241       -6.7831  -18.9997  -53.1544 H         1 UNK         0.0600 
    242 H242       -5.4055  -21.7796  -53.8017 H         1 UNK         0.3800 
    243 H243       -5.4105  -21.6810  -55.5392 H         1 UNK         0.3800 
    244 H244       -5.6842  -19.4989  -51.0836 H         1 UNK         0.0800 
    245 H245       -5.8445  -20.9754  -51.9644 H         1 UNK         0.0800 
    246 H246       -3.7353  -18.8232  -49.9291 H         1 UNK         0.0800 
    247 H247       -3.7018  -20.4949  -49.4042 H         1 UNK         0.0800 
@<TRIPOS>BOND
     1    1    2 1    
     2    1  127 1    
     3    1  128 1    
     4    1  129 1    
     5    2    3 2    
     6    2    4 am   BACKBONE|DICT|INTERRES
     7    4    5 1    
     8    4  130 1    
     9    5    6 1    
    10    5   65 1    
    11    5  131 1    
    12    6    7 1    
    13    6  132 1    
    14    6  133 1    
    15    7    8 1    
    16    8    9 1    
    17    8  134 1    
    18    8  135 1    
    19    9   10 ar   
    20    9   14 ar   
    21   10   11 ar   
    22   10  136 1    
    23   11   12 ar   
    24   11  126 1    
    25   12   13 ar   
    26   12  137 1    
    27   13   14 ar   
    28   13   15 1    
    29   14  138 1    
    30   15   16 1    
    31   15  139 1    
    32   15  140 1    
    33   16   17 1    
    34   17   18 1    
    35   17  141 1    
    36   17  142 1    
    37   18   19 1    
    38   18   67 1    
    39   18  143 1    
    40   19   20 am   BACKBONE|DICT|INTERRES
    41   19  144 1    
    42   20   21 2    
    43   20   22 1    
    44   22   23 1    
    45   22   24 1    
    46   22  145 1    
    47   23  146 1    
    48   23  147 1    
    49   23  148 1    
    50   24   25 am   BACKBONE|DICT|INTERRES
    51   24  149 1    
    52   25   26 2    
    53   25   27 1    
    54   27   28 1    
    55   27   29 1    
    56   27  150 1    
    57   28  151 1    
    58   28  152 1    
    59   28  153 1    
    60   29   30 am   BACKBONE|DICT|INTERRES
    61   29  154 1    
    62   30   31 2    
    63   30   32 1    
    64   32   33 1    
    65   32   34 1    
    66   32  155 1    
    67   33  156 1    
    68   33  157 1    
    69   33  158 1    
    70   34   35 am   BACKBONE|DICT|INTERRES
    71   34  159 1    
    72   35   36 2    
    73   35   37 1    
    74   37   38 1    
    75   37   39 1    
    76   37  160 1    
    77   38  161 1    
    78   38  162 1    
    79   38  163 1    
    80   39   40 am   BACKBONE|DICT|INTERRES
    81   39  164 1    
    82   40   41 2    
    83   40   42 1    
    84   42   43 1    
    85   42   44 1    
    86   42  165 1    
    87   43  166 1    
    88   43  167 1    
    89   43  168 1    
    90   44   45 am   BACKBONE|DICT|INTERRES
    91   44  169 1    
    92   45   46 2    
    93   45   47 1    
    94   47   48 1    
    95   47   49 1    
    96   47  170 1    
    97   48  171 1    
    98   48  172 1    
    99   48  173 1    
   100   49   50 am   BACKBONE|DICT|INTERRES
   101   49  174 1    
   102   50   51 2    
   103   50   52 1    
   104   52   53 1    
   105   52   54 1    
   106   52  175 1    
   107   53  176 1    
   108   53  177 1    
   109   53  178 1    
   110   54   55 am   BACKBONE|DICT|INTERRES
   111   54  179 1    
   112   55   56 2    
   113   55   57 1    
   114   57   58 1    
   115   57   59 1    
   116   57  180 1    
   117   58  181 1    
   118   58  182 1    
   119   58  183 1    
   120   59   60 am   BACKBONE|DICT|INTERRES
   121   59  184 1    
   122   60   61 2    
   123   60   62 1    
   124   62   63 1    
   125   62   64 1    
   126   62  185 1    
   127   63  186 1    
   128   63  187 1    
   129   63  188 1    
   130   64   65 am   BACKBONE|DICT|INTERRES
   131   64  189 1    
   132   65   66 2    
   133   67   68 2    
   134   67   69 am   BACKBONE|DICT|INTERRES
   135   69   70 1    
   136   69  190 1    
   137   70   71 1    
   138   70   72 1    
   139   70  191 1    
   140   71  192 1    
   141   71  193 1    
   142   71  194 1    
   143   72   73 2    
   144   72   74 am   BACKBONE|DICT|INTERRES
   145   74   75 1    
   146   74  195 1    
   147   75   76 1    
   148   75   77 1    
   149   75  196 1    
   150   76  197 1    
   151   76  198 1    
   152   76  199 1    
   153   77   78 2    
   154   77   79 am   BACKBONE|DICT|INTERRES
   155   79   80 1    
   156   79  200 1    
   157   80   81 1    
   158   80   82 1    
   159   80  201 1    
   160   81  202 1    
   161   81  203 1    
   162   81  204 1    
   163   82   83 2    
   164   82   84 am   BACKBONE|DICT|INTERRES
   165   84   85 1    
   166   84  205 1    
   167   85   86 1    
   168   85   87 1    
   169   85  206 1    
   170   86  207 1    
   171   86  208 1    
   172   86  209 1    
   173   87   88 2    
   174   87   89 am   BACKBONE|DICT|INTERRES
   175   89   90 1    
   176   89  210 1    
   177   90   91 1    
   178   90   92 1    
   179   90  211 1    
   180   91  212 1    
   181   91  213 1    
   182   91  214 1    
   183   92   93 2    
   184   92   94 am   BACKBONE|DICT|INTERRES
   185   94   95 1    
   186   94  215 1    
   187   95   96 1    
   188   95   97 1    
   189   95  216 1    
   190   96  217 1    
   191   96  218 1    
   192   96  219 1    
   193   97   98 2    
   194   97   99 am   BACKBONE|DICT|INTERRES
   195   99  100 1    
   196   99  220 1    
   197  100  101 1    
   198  100  102 1    
   199  100  221 1    
   200  101  222 1    
   201  101  223 1    
   202  101  224 1    
   203  102  103 2    
   204  102  104 am   BACKBONE|DICT|INTERRES
   205  104  105 1    
   206  104  225 1    
   207  105  106 1    
   208  105  107 1    
   209  105  226 1    
   210  106  227 1    
   211  106  228 1    
   212  106  229 1    
   213  107  108 2    
   214  107  109 am   BACKBONE|DICT|INTERRES
   215  109  110 1    
   216  109  230 1    
   217  110  111 1    
   218  110  112 1    
   219  110  231 1    
   220  111  232 1    
   221  111  233 1    
   222  111  234 1    
   223  112  113 2    
   224  112  114 am   BACKBONE|DICT|INTERRES
   225  114  115 1    
   226  114  235 1    
   227  115  116 1    
   228  115  117 1    
   229  115  236 1    
   230  116  237 1    
   231  116  238 1    
   232  116  239 1    
   233  117  118 2    
   234  117  119 am   BACKBONE|DICT|INTERRES
   235  119  120 1    
   236  119  240 1    
   237  120  121 1    
   238  120  124 1    
   239  120  241 1    
   240  121  122 am   BACKBONE|DICT|INTERRES
   241  121  123 2    
   242  122  242 1    
   243  122  243 1    
   244  124  125 1    
   245  124  244 1    
   246  124  245 1    
   247  125  126 1    
   248  126  246 1    
   249  126  247 1    
@<TRIPOS>SUBSTRUCTURE
     1 UNK         1 GROUP             0       ****    0 ROOT    
