@<TRIPOS>MOLECULE
3R540
247   249    1
SMALL
USER_CHARGES


@<TRIPOS>ATOM
      1 CA         -3.9580   -7.9691  -47.2379 C.3       0 UNK        -0.1800 
      2 C          -3.1773   -9.2098  -46.8273 C.2       0 UNK         0.5000 
      3 O          -2.0742   -9.0909  -46.2934 O.2       0 UNK        -0.5000 
      4 N          -3.7394  -10.3971  -47.0828 N.am      1 UNK        -0.5000 
      5 CA         -3.1597  -11.6929  -46.7148 C.3       1 UNK         0.1400 
      6 C6         -3.8269  -12.8563  -47.4871 C.3       23 UNK        -0.0398 
      7 S7         -3.4736  -12.7639  -49.2723 S.3       23 UNK        -0.2404 
      8 C8         -4.4965  -14.1295  -49.9064 C.3       23 UNK        -0.0205 
      9 C9         -4.0224  -15.4895  -49.4128 C.ar      23 UNK        -0.0193 
     10 C10        -2.7842  -15.9930  -49.8233 C.ar      23 UNK        -0.1150 
     11 C11        -2.3517  -17.2488  -49.3904 C.ar      23 UNK        -0.0193 
     12 C12        -3.1770  -18.0120  -48.5624 C.ar      23 UNK        -0.1150 
     13 C13        -4.4154  -17.5207  -48.1394 C.ar      23 UNK        -0.0193 
     14 C14        -4.8292  -16.2540  -48.5634 C.ar      23 UNK        -0.1150 
     15 C15        -5.3256  -18.3743  -47.2659 C.3       23 UNK        -0.0205 
     16 S16        -4.9706  -18.2282  -45.4795 S.3       23 UNK        -0.2404 
     17 C17        -3.2622  -18.8547  -45.3049 C.3       23 UNK        -0.0398 
     18 CA         -3.0684  -20.3318  -45.7329 C.3       11 UNK         0.1400 
     19 N          -1.6840  -20.6208  -46.1161 N.am      11 UNK        -0.5000 
     20 C          -1.2780  -21.7312  -46.7459 C.2       10 UNK         0.5000 
     21 O          -2.0454  -22.6181  -47.1145 O.2       10 UNK        -0.5000 
     22 CA          0.2328  -21.9053  -46.9778 C.3       10 UNK         0.1400 
     23 CB          0.6769  -21.1662  -48.2433 C.3       10 UNK        -0.1800 
     24 N           1.0334  -21.4659  -45.8363 N.am      10 UNK        -0.5000 
     25 C           1.0159  -22.0644  -44.6371 C.2       9 UNK         0.5000 
     26 O           0.3774  -23.0885  -44.3968 O.2       9 UNK        -0.5000 
     27 CA          1.7977  -21.3763  -43.5039 C.3       9 UNK         0.1400 
     28 CB          3.2919  -21.7227  -43.5811 C.3       9 UNK        -0.1800 
     29 N           1.6286  -19.9228  -43.5067 N.am      9 UNK        -0.5000 
     30 C           0.4607  -19.2894  -43.3270 C.2       8 UNK         0.5000 
     31 O          -0.6020  -19.8636  -43.0891 O.2       8 UNK        -0.5000 
     32 CA          0.4696  -17.7614  -43.5052 C.3       8 UNK         0.1400 
     33 CB          1.0206  -17.0634  -42.2529 C.3       8 UNK        -0.1800 
     34 N           1.2291  -17.3440  -44.6854 N.am      8 UNK        -0.5000 
     35 C           0.8992  -17.6553  -45.9472 C.2       7 UNK         0.5000 
     36 O          -0.1035  -18.2965  -46.2490 O.2       7 UNK        -0.5000 
     37 CA          1.8747  -17.2274  -47.0552 C.3       7 UNK         0.1400 
     38 CB          1.6047  -15.7834  -47.5054 C.3       7 UNK        -0.1800 
     39 N           3.2667  -17.3798  -46.6358 N.am      7 UNK        -0.5000 
     40 C           3.8643  -18.5660  -46.4484 C.2       6 UNK         0.5000 
     41 O           3.3170  -19.6485  -46.6607 O.2       6 UNK        -0.5000 
     42 CA          5.2953  -18.5337  -45.8811 C.3       6 UNK         0.1400 
     43 CB          6.3177  -18.2874  -47.0004 C.3       6 UNK        -0.1800 
     44 N           5.4595  -17.5175  -44.8397 N.am      6 UNK        -0.5000 
     45 C           4.8531  -17.5544  -43.6444 C.2       5 UNK         0.5000 
     46 O           4.1331  -18.4809  -43.2747 O.2       5 UNK        -0.5000 
     47 CA          5.0405  -16.3281  -42.7297 C.3       5 UNK         0.1400 
     48 CB          6.2808  -16.5041  -41.8414 C.3       5 UNK        -0.1800 
     49 N           5.1425  -15.0614  -43.4621 N.am      5 UNK        -0.5000 
     50 C           4.1844  -14.5563  -44.2497 C.2       4 UNK         0.5000 
     51 O           3.0991  -15.1102  -44.4486 O.2       4 UNK        -0.5000 
     52 CA          4.5170  -13.2463  -44.9759 C.3       4 UNK         0.1400 
     53 CB          5.5696  -13.4866  -46.0761 C.3       4 UNK        -0.1800 
     54 N           3.2950  -12.7160  -45.5698 N.am      4 UNK        -0.5000 
     55 C           3.0982  -11.4580  -45.9790 C.2       3 UNK         0.5000 
     56 O           3.9417  -10.5671  -45.8692 O.2       3 UNK        -0.5000 
     57 CA          1.7429  -11.1344  -46.6396 C.3       3 UNK         0.1400 
     58 CB          1.9038  -11.0361  -48.1648 C.3       3 UNK        -0.1800 
     59 N           0.6965  -12.1171  -46.3468 N.am      3 UNK        -0.5000 
     60 C          -0.0101  -12.1483  -45.2111 C.2       2 UNK         0.5000 
     61 O           0.1724  -11.3828  -44.2627 O.2       2 UNK        -0.5000 
     62 CA         -1.1034  -13.2269  -45.1224 C.3       2 UNK         0.1400 
     63 CB         -0.6332  -14.3874  -44.2384 C.3       2 UNK        -0.1800 
     64 N          -2.3375  -12.6763  -44.5608 N.am      2 UNK        -0.5000 
     65 C          -3.2599  -11.9298  -45.1862 C.2       1 UNK         0.5000 
     66 O          -4.2209  -11.4643  -44.5710 O.2       1 UNK        -0.5000 
     67 C          -3.5998  -21.3313  -44.6867 C.2       11 UNK         0.5000 
     68 O          -4.7143  -21.8318  -44.8427 O.2       11 UNK        -0.5000 
     69 N          -2.7640  -21.6736  -43.6950 N.am      12 UNK        -0.5000 
     70 CA         -3.0209  -22.7296  -42.7108 C.3       12 UNK         0.1400 
     71 CB         -1.9236  -22.7030  -41.6367 C.3       12 UNK        -0.1800 
     72 C          -3.1381  -24.1329  -43.3429 C.2       12 UNK         0.5000 
     73 O          -3.8896  -24.9658  -42.8367 O.2       12 UNK        -0.5000 
     74 N          -2.4443  -24.3474  -44.4686 N.am      13 UNK        -0.5000 
     75 CA         -2.5299  -25.5315  -45.3251 C.3       13 UNK         0.1400 
     76 CB         -1.1512  -25.7876  -45.9598 C.3       13 UNK        -0.1800 
     77 C          -3.6440  -25.4158  -46.3916 C.2       13 UNK         0.5000 
     78 O          -3.5399  -26.0446  -47.4456 O.2       13 UNK        -0.5000 
     79 N          -4.6861  -24.6182  -46.1114 N.am      14 UNK        -0.5000 
     80 CA         -5.8882  -24.3983  -46.9213 C.3       14 UNK         0.1400 
     81 CB         -6.7237  -25.6928  -47.0181 C.3       14 UNK        -0.1800 
     82 C          -5.5796  -23.7778  -48.2975 C.2       14 UNK         0.5000 
     83 O          -6.0486  -24.2782  -49.3193 O.2       14 UNK        -0.5000 
     84 N          -4.7751  -22.7062  -48.2931 N.am      15 UNK        -0.5000 
     85 CA         -4.2889  -21.9648  -49.4648 C.3       15 UNK         0.1400 
     86 CB         -5.4522  -21.2641  -50.1970 C.3       15 UNK        -0.1800 
     87 C          -3.4361  -22.8572  -50.3890 C.2       15 UNK         0.5000 
     88 O          -3.6659  -22.9086  -51.6001 O.2       15 UNK        -0.5000 
     89 N          -2.4859  -23.5690  -49.7656 N.am      16 UNK        -0.5000 
     90 CA         -1.5841  -24.5625  -50.3518 C.3       16 UNK         0.1400 
     91 CB         -0.5659  -23.8817  -51.2912 C.3       16 UNK        -0.1800 
     92 C          -2.3572  -25.7177  -51.0201 C.2       16 UNK         0.5000 
     93 O          -2.1599  -25.9929  -52.2037 O.2       16 UNK        -0.5000 
     94 N          -3.2516  -26.3486  -50.2448 N.am      17 UNK        -0.5000 
     95 CA         -4.1574  -27.4325  -50.6400 C.3       17 UNK         0.1400 
     96 CB         -3.3666  -28.7249  -50.9317 C.3       17 UNK        -0.1800 
     97 C          -5.1045  -27.0232  -51.7881 C.2       17 UNK         0.5000 
     98 O          -5.2523  -27.7553  -52.7686 O.2       17 UNK        -0.5000 
     99 N          -5.7164  -25.8408  -51.6354 N.am      18 UNK        -0.5000 
    100 CA        -6.6580  -25.1859  -52.5465 C.3       18 UNK         0.1400 
    101 CB        -7.9561  -26.0096  -52.6793 C.3       18 UNK        -0.1800 
    102 C         -6.0573  -24.7888  -53.9119 C.2       18 UNK         0.5000 
    103 O         -6.8097  -24.5858  -54.8669 O.2       18 UNK        -0.5000 
    104 N         -4.7253  -24.6551  -53.9894 N.am      19 UNK        -0.5000 
    105 CA        -4.0223  -24.1570  -55.1726 C.3       19 UNK         0.1400 
    106 CB        -2.5285  -24.4971  -55.0730 C.3       19 UNK        -0.1800 
    107 C         -4.2176  -22.6426  -55.3594 C.2       19 UNK         0.5000 
    108 O         -4.3639  -22.1883  -56.4946 O.2       19 UNK        -0.5000 
    109 N         -4.2245  -21.9017  -54.2391 N.am      20 UNK        -0.5000 
    110 CA        -4.4381  -20.4538  -54.1322 C.3       20 UNK         0.1400 
    111 CB        -5.8992  -20.0985  -54.4757 C.3       20 UNK        -0.1800 
    112 C         -3.4073  -19.6046  -54.9086 C.2       20 UNK         0.5000 
    113 O         -3.7320  -18.5088  -55.3701 O.2       20 UNK        -0.5000 
    114 N         -2.1804  -20.1283  -55.0289 N.am      21 UNK        -0.5000 
    115 CA        -1.0178  -19.4374  -55.5773 C.3       21 UNK         0.1400 
    116 CB        -0.0812  -20.4759  -56.2272 C.3       21 UNK        -0.1800 
    117 C         -0.3655  -18.6275  -54.4425 C.2       21 UNK         0.5000 
    118 O         -0.8276  -17.5229  -54.1582 O.2       21 UNK        -0.5000 
    119 N          0.6578  -19.2152  -53.8064 N.am      22 UNK        -0.5000 
    120 CA         1.3262  -18.8651  -52.5334 C.3       22 UNK         0.1400 
    121 C          1.7846  -17.3968  -52.2610 C.2       22 UNK         0.5000 
    122 N          1.4438  -16.4144  -53.0784 N.am      22 UNK        -0.7600 
    123 O          2.5067  -17.1534  -51.2982 O.2       22 UNK        -0.5000 
    124 C124        0.6302  -19.5117  -51.3021 C.3       23 UNK        -0.0398 
    125 S125       -1.1290  -19.0779  -51.0614 S.3       23 UNK        -0.2404 
    126 C126       -0.9890  -17.7803  -49.7982 C.3       23 UNK        -0.0205 
    127 H127       -3.3769   -7.3770  -47.9449 H         1 UNK         0.0600 
    128 H128       -4.1668   -7.3515  -46.3645 H         1 UNK         0.0600 
    129 H129       -4.9077   -8.2248  -47.7086 H         1 UNK         0.0600 
    130 H130       -4.6531  -10.4320  -47.5109 H         1 UNK         0.3000 
    131 H131       -2.1110  -11.6505  -47.0070 H         1 UNK         0.0600 
    132 H132       -3.4666  -13.8217  -47.1273 H         1 UNK         0.0800 
    133 H133       -4.9074  -12.8557  -47.3323 H         1 UNK         0.0800 
    134 H134       -5.5384  -13.9552  -49.6333 H         1 UNK         0.0800 
    135 H135       -4.4612  -14.1178  -50.9966 H         1 UNK         0.0800 
    136 H136       -2.1563  -15.4020  -50.4753 H         1 UNK         0.1150 
    137 H137       -2.8436  -18.9894  -48.2489 H         1 UNK         0.1150 
    138 H138       -5.7891  -15.8715  -48.2458 H         1 UNK         0.1150 
    139 H139       -6.3625  -18.0746  -47.4251 H         1 UNK         0.0800 
    140 H140       -5.2829  -19.4157  -47.5810 H         1 UNK         0.0800 
    141 H141       -2.9382  -18.7057  -44.2735 H         1 UNK         0.0800 
    142 H142       -2.6270  -18.1974  -45.8965 H         1 UNK         0.0800 
    143 H143       -3.6511  -20.5052  -46.6348 H         1 UNK         0.0600 
    144 H144       -0.9984  -19.8963  -45.9165 H         1 UNK         0.3000 
    145 H145        0.4202  -22.9698  -47.1309 H         1 UNK         0.0600 
    146 H146        1.7066  -21.4120  -48.5033 H         1 UNK         0.0600 
    147 H147        0.0483  -21.4357  -49.0920 H         1 UNK         0.0600 
    148 H148        0.6142  -20.0873  -48.1166 H         1 UNK         0.0600 
    149 H149        1.6249  -20.6535  -45.9738 H         1 UNK         0.3000 
    150 H150        1.4091  -21.7542  -42.5560 H         1 UNK         0.0600 
    151 H151        3.4443  -22.8026  -43.5648 H         1 UNK         0.0600 
    152 H152        3.8369  -21.3040  -42.7349 H         1 UNK         0.0600 
    153 H153        3.7482  -21.3392  -44.4941 H         1 UNK         0.0600 
    154 H154        2.4691  -19.3681  -43.6448 H         1 UNK         0.3000 
    155 H155       -0.5639  -17.4396  -43.6457 H         1 UNK         0.0600 
    156 H156        0.3922  -17.2721  -41.3864 H         1 UNK         0.0600 
    157 H157        1.0527  -15.9816  -42.3797 H         1 UNK         0.0600 
    158 H158        2.0279  -17.4003  -42.0117 H         1 UNK         0.0600 
    159 H159        2.0473  -16.7645  -44.5263 H         1 UNK         0.3000 
    160 H160        1.7110  -17.8794  -47.9154 H         1 UNK         0.0600 
    161 H161        1.7576  -15.0691  -46.6985 H         1 UNK         0.0600 
    162 H162        0.5760  -15.6717  -47.8511 H         1 UNK         0.0600 
    163 H163        2.2565  -15.5018  -48.3328 H         1 UNK         0.0600 
    164 H164        3.7626  -16.5382  -46.3843 H         1 UNK         0.3000 
    165 H165        5.5005  -19.5110  -45.4387 H         1 UNK         0.0600 
    166 H166        7.3381  -18.3387  -46.6202 H         1 UNK         0.0600 
    167 H167        6.2259  -19.0402  -47.7845 H         1 UNK         0.0600 
    168 H168        6.1811  -17.3103  -47.4656 H         1 UNK         0.0600 
    169 H169        6.0407  -16.7229  -45.0610 H         1 UNK         0.3000 
    170 H170        4.1648  -16.2646  -42.0812 H         1 UNK         0.0600 
    171 H171        6.2213  -17.4297  -41.2672 H         1 UNK         0.0600 
    172 H172        7.1975  -16.5418  -42.4312 H         1 UNK         0.0600 
    173 H173        6.3737  -15.6860  -41.1268 H         1 UNK         0.0600 
    174 H174        6.0070  -14.5506  -43.3541 H         1 UNK         0.3000 
    175 H175        4.8998  -12.5349  -44.2413 H         1 UNK         0.0600 
    176 H176        5.2113  -14.1931  -46.8260 H         1 UNK         0.0600 
    177 H177        5.8266  -12.5601  -46.5896 H         1 UNK         0.0600 
    178 H178        6.4953  -13.8867  -45.6615 H         1 UNK         0.0600 
    179 H179        2.5381  -13.3842  -45.6210 H         1 UNK         0.3000 
    180 H180        1.4223  -10.1577  -46.2699 H         1 UNK         0.0600 
    181 H181        2.2198  -11.9856  -48.5988 H         1 UNK         0.0600 
    182 H182        2.6517  -10.2883  -48.4322 H         1 UNK         0.0600 
    183 H183        0.9686  -10.7419  -48.6419 H         1 UNK         0.0600 
    184 H184        0.4937  -12.7792  -47.0814 H         1 UNK         0.3000 
    185 H185       -1.2974  -13.6328  -46.1165 H         1 UNK         0.0600 
    186 H186       -1.3578  -15.2017  -44.2398 H         1 UNK         0.0600 
    187 H187       -0.4784  -14.0739  -43.2053 H         1 UNK         0.0600 
    188 H188        0.3126  -14.7880  -44.6008 H         1 UNK         0.0600 
    189 H189       -2.4331  -12.7921  -43.5631 H         1 UNK         0.3000 
    190 H190       -1.8791  -21.1791  -43.6096 H         1 UNK         0.3000 
    191 H191       -3.9746  -22.5067  -42.2280 H         1 UNK         0.0600 
    192 H192       -0.9405  -22.9101  -42.0591 H         1 UNK         0.0600 
    193 H193       -1.8773  -21.7314  -41.1444 H         1 UNK         0.0600 
    194 H194       -2.1137  -23.4505  -40.8655 H         1 UNK         0.0600 
    195 H195       -1.8316  -23.6115  -44.7964 H         1 UNK         0.3000 
    196 H196       -2.7744  -26.3983  -44.7083 H         1 UNK         0.0600 
    197 H197       -0.3723  -25.8498  -45.1996 H         1 UNK         0.0600 
    198 H198       -0.8750  -24.9970  -46.6565 H         1 UNK         0.0600 
    199 H199       -1.1401  -26.7285  -46.5111 H         1 UNK         0.0600 
    200 H200       -4.6485  -24.0864  -45.2518 H         1 UNK         0.3000 
    201 H201       -6.4871  -23.6615  -46.3843 H         1 UNK         0.0600 
    202 H202       -7.6753  -25.5060  -47.5172 H         1 UNK         0.0600 
    203 H203       -6.9497  -26.0908  -46.0290 H         1 UNK         0.0600 
    204 H204       -6.2076  -26.4700  -47.5826 H         1 UNK         0.0600 
    205 H205       -4.3614  -22.4481  -47.4075 H         1 UNK         0.3000 
    206 H206       -3.6226  -21.1882  -49.0878 H         1 UNK         0.0600 
    207 H207       -6.0941  -21.9743  -50.7193 H         1 UNK         0.0600 
    208 H208       -5.0730  -20.5594  -50.9358 H         1 UNK         0.0600 
    209 H209       -6.0752  -20.6990  -49.5046 H         1 UNK         0.0600 
    210 H210       -2.3981  -23.4355  -48.7609 H         1 UNK         0.3000 
    211 H211       -1.0266  -25.0035  -49.5241 H         1 UNK         0.0600 
    212 H212        0.0251  -23.1386  -50.7579 H         1 UNK         0.0600 
    213 H213        0.1314  -24.6104  -51.7060 H         1 UNK         0.0600 
    214 H214       -1.0525  -23.3811  -52.1279 H         1 UNK         0.0600 
    215 H215       -3.3390  -26.0594  -49.2717 H         1 UNK         0.3000 
    216 H216       -4.7936  -27.6254  -49.7749 H         1 UNK         0.0600 
    217 H217       -4.0414  -29.5623  -51.1121 H         1 UNK         0.0600 
    218 H218       -2.7304  -28.6226  -51.8113 H         1 UNK         0.0600 
    219 H219       -2.7320  -28.9961  -50.0881 H         1 UNK         0.0600 
    220 H220       -5.5534  -25.3226  -50.7742 H         1 UNK         0.3000 
    221 H221       -6.9207  -24.2447  -52.0617 H         1 UNK         0.0600 
    222 H222       -8.7226  -25.4504  -53.2169 H         1 UNK         0.0600 
    223 H223       -7.7917  -26.9410  -53.2216 H         1 UNK         0.0600 
    224 H224       -8.3665  -26.2577  -51.7004 H         1 UNK         0.0600 
    225 H225       -4.1683  -24.8249  -53.1616 H         1 UNK         0.3000 
    226 H226       -4.4251  -24.6609  -56.0537 H         1 UNK         0.0600 
    227 H227       -2.3744  -25.5735  -54.9956 H         1 UNK         0.0600 
    228 H228       -1.9889  -24.1531  -55.9563 H         1 UNK         0.0600 
    229 H229       -2.0671  -24.0297  -54.2031 H         1 UNK         0.0600 
    230 H230       -4.0701  -22.3792  -53.3524 H         1 UNK         0.3000 
    231 H231       -4.2793  -20.2067  -53.0827 H         1 UNK         0.0600 
    232 H232       -6.1094  -19.0499  -54.2625 H         1 UNK         0.0600 
    233 H233       -6.5968  -20.6935  -53.8862 H         1 UNK         0.0600 
    234 H234       -6.1191  -20.2698  -55.5298 H         1 UNK         0.0600 
    235 H235       -2.0114  -21.0260  -54.6005 H         1 UNK         0.3000 
    236 H236       -1.3304  -18.7339  -56.3519 H         1 UNK         0.0600 
    237 H237       -0.5637  -20.9436  -57.0857 H         1 UNK         0.0600 
    238 H238        0.8340  -20.0067  -56.5909 H         1 UNK         0.0600 
    239 H239        0.1993  -21.2737  -55.5385 H         1 UNK         0.0600 
    240 H240        0.9635  -20.0962  -54.1925 H         1 UNK         0.3000 
    241 H241        2.2817  -19.3834  -52.6235 H         1 UNK         0.0600 
    242 H242        1.7583  -15.4743  -52.9009 H         1 UNK         0.3800 
    243 H243        0.7197  -16.5965  -53.7671 H         1 UNK         0.3800 
    244 H244        1.1892  -19.3017  -50.3892 H         1 UNK         0.0800 
    245 H245        0.6692  -20.5959  -51.4122 H         1 UNK         0.0800 
    246 H246       -0.4895  -18.1825  -48.9184 H         1 UNK         0.0800 
    247 H247       -0.3593  -16.9721  -50.1728 H         1 UNK         0.0800 
@<TRIPOS>BOND
     1    1    2 1    
     2    1  127 1    
     3    1  128 1    
     4    1  129 1    
     5    2    3 2    
     6    2    4 am   BACKBONE|DICT|INTERRES
     7    4    5 1    
     8    4  130 1    
     9    5    6 1    
    10    5   65 1    
    11    5  131 1    
    12    6    7 1    
    13    6  132 1    
    14    6  133 1    
    15    7    8 1    
    16    8    9 1    
    17    8  134 1    
    18    8  135 1    
    19    9   10 ar   
    20    9   14 ar   
    21   10   11 ar   
    22   10  136 1    
    23   11   12 ar   
    24   11  126 1    
    25   12   13 ar   
    26   12  137 1    
    27   13   14 ar   
    28   13   15 1    
    29   14  138 1    
    30   15   16 1    
    31   15  139 1    
    32   15  140 1    
    33   16   17 1    
    34   17   18 1    
    35   17  141 1    
    36   17  142 1    
    37   18   19 1    
    38   18   67 1    
    39   18  143 1    
    40   19   20 am   BACKBONE|DICT|INTERRES
    41   19  144 1    
    42   20   21 2    
    43   20   22 1    
    44   22   23 1    
    45   22   24 1    
    46   22  145 1    
    47   23  146 1    
    48   23  147 1    
    49   23  148 1    
    50   24   25 am   BACKBONE|DICT|INTERRES
    51   24  149 1    
    52   25   26 2    
    53   25   27 1    
    54   27   28 1    
    55   27   29 1    
    56   27  150 1    
    57   28  151 1    
    58   28  152 1    
    59   28  153 1    
    60   29   30 am   BACKBONE|DICT|INTERRES
    61   29  154 1    
    62   30   31 2    
    63   30   32 1    
    64   32   33 1    
    65   32   34 1    
    66   32  155 1    
    67   33  156 1    
    68   33  157 1    
    69   33  158 1    
    70   34   35 am   BACKBONE|DICT|INTERRES
    71   34  159 1    
    72   35   36 2    
    73   35   37 1    
    74   37   38 1    
    75   37   39 1    
    76   37  160 1    
    77   38  161 1    
    78   38  162 1    
    79   38  163 1    
    80   39   40 am   BACKBONE|DICT|INTERRES
    81   39  164 1    
    82   40   41 2    
    83   40   42 1    
    84   42   43 1    
    85   42   44 1    
    86   42  165 1    
    87   43  166 1    
    88   43  167 1    
    89   43  168 1    
    90   44   45 am   BACKBONE|DICT|INTERRES
    91   44  169 1    
    92   45   46 2    
    93   45   47 1    
    94   47   48 1    
    95   47   49 1    
    96   47  170 1    
    97   48  171 1    
    98   48  172 1    
    99   48  173 1    
   100   49   50 am   BACKBONE|DICT|INTERRES
   101   49  174 1    
   102   50   51 2    
   103   50   52 1    
   104   52   53 1    
   105   52   54 1    
   106   52  175 1    
   107   53  176 1    
   108   53  177 1    
   109   53  178 1    
   110   54   55 am   BACKBONE|DICT|INTERRES
   111   54  179 1    
   112   55   56 2    
   113   55   57 1    
   114   57   58 1    
   115   57   59 1    
   116   57  180 1    
   117   58  181 1    
   118   58  182 1    
   119   58  183 1    
   120   59   60 am   BACKBONE|DICT|INTERRES
   121   59  184 1    
   122   60   61 2    
   123   60   62 1    
   124   62   63 1    
   125   62   64 1    
   126   62  185 1    
   127   63  186 1    
   128   63  187 1    
   129   63  188 1    
   130   64   65 am   BACKBONE|DICT|INTERRES
   131   64  189 1    
   132   65   66 2    
   133   67   68 2    
   134   67   69 am   BACKBONE|DICT|INTERRES
   135   69   70 1    
   136   69  190 1    
   137   70   71 1    
   138   70   72 1    
   139   70  191 1    
   140   71  192 1    
   141   71  193 1    
   142   71  194 1    
   143   72   73 2    
   144   72   74 am   BACKBONE|DICT|INTERRES
   145   74   75 1    
   146   74  195 1    
   147   75   76 1    
   148   75   77 1    
   149   75  196 1    
   150   76  197 1    
   151   76  198 1    
   152   76  199 1    
   153   77   78 2    
   154   77   79 am   BACKBONE|DICT|INTERRES
   155   79   80 1    
   156   79  200 1    
   157   80   81 1    
   158   80   82 1    
   159   80  201 1    
   160   81  202 1    
   161   81  203 1    
   162   81  204 1    
   163   82   83 2    
   164   82   84 am   BACKBONE|DICT|INTERRES
   165   84   85 1    
   166   84  205 1    
   167   85   86 1    
   168   85   87 1    
   169   85  206 1    
   170   86  207 1    
   171   86  208 1    
   172   86  209 1    
   173   87   88 2    
   174   87   89 am   BACKBONE|DICT|INTERRES
   175   89   90 1    
   176   89  210 1    
   177   90   91 1    
   178   90   92 1    
   179   90  211 1    
   180   91  212 1    
   181   91  213 1    
   182   91  214 1    
   183   92   93 2    
   184   92   94 am   BACKBONE|DICT|INTERRES
   185   94   95 1    
   186   94  215 1    
   187   95   96 1    
   188   95   97 1    
   189   95  216 1    
   190   96  217 1    
   191   96  218 1    
   192   96  219 1    
   193   97   98 2    
   194   97   99 am   BACKBONE|DICT|INTERRES
   195   99  100 1    
   196   99  220 1    
   197  100  101 1    
   198  100  102 1    
   199  100  221 1    
   200  101  222 1    
   201  101  223 1    
   202  101  224 1    
   203  102  103 2    
   204  102  104 am   BACKBONE|DICT|INTERRES
   205  104  105 1    
   206  104  225 1    
   207  105  106 1    
   208  105  107 1    
   209  105  226 1    
   210  106  227 1    
   211  106  228 1    
   212  106  229 1    
   213  107  108 2    
   214  107  109 am   BACKBONE|DICT|INTERRES
   215  109  110 1    
   216  109  230 1    
   217  110  111 1    
   218  110  112 1    
   219  110  231 1    
   220  111  232 1    
   221  111  233 1    
   222  111  234 1    
   223  112  113 2    
   224  112  114 am   BACKBONE|DICT|INTERRES
   225  114  115 1    
   226  114  235 1    
   227  115  116 1    
   228  115  117 1    
   229  115  236 1    
   230  116  237 1    
   231  116  238 1    
   232  116  239 1    
   233  117  118 2    
   234  117  119 am   BACKBONE|DICT|INTERRES
   235  119  120 1    
   236  119  240 1    
   237  120  121 1    
   238  120  124 1    
   239  120  241 1    
   240  121  122 am   BACKBONE|DICT|INTERRES
   241  121  123 2    
   242  122  242 1    
   243  122  243 1    
   244  124  125 1    
   245  124  244 1    
   246  124  245 1    
   247  125  126 1    
   248  126  246 1    
   249  126  247 1    
@<TRIPOS>SUBSTRUCTURE
     1 UNK         1 GROUP             0       ****    0 ROOT    
