@<TRIPOS>MOLECULE
3R540
247   249    1
SMALL
USER_CHARGES


@<TRIPOS>ATOM
      1 CA         -0.3005  -13.3099  -44.3039 C.3       0 UNK        -0.1800 
      2 C           0.4278  -12.7922  -45.5343 C.2       0 UNK         0.5000 
      3 O           1.6553  -12.8422  -45.5820 O.2       0 UNK        -0.5000 
      4 N          -0.3333  -12.2916  -46.5169 N.am      1 UNK        -0.5000 
      5 CA          0.1189  -11.6734  -47.7698 C.3       1 UNK         0.1400 
      6 C6          0.4536  -12.7019  -48.8938 C.3       23 UNK        -0.0398 
      7 S7          1.9677  -13.7171  -48.6987 S.3       23 UNK        -0.2404 
      8 C8          1.2900  -15.3727  -48.3219 C.3       23 UNK        -0.0205 
      9 C9          0.4132  -15.9918  -49.4127 C.ar      23 UNK        -0.0193 
     10 C10         0.5427  -15.6485  -50.7658 C.ar      23 UNK        -0.1150 
     11 C11        -0.2928  -16.2063  -51.7388 C.ar      23 UNK        -0.0193 
     12 C12        -1.2608  -17.1347  -51.3400 C.ar      23 UNK        -0.1150 
     13 C13        -1.3716  -17.5283  -50.0058 C.ar      23 UNK        -0.0193 
     14 C14        -0.5386  -16.9479  -49.0467 C.ar      23 UNK        -0.1150 
     15 C15        -2.3919  -18.5862  -49.6182 C.3       23 UNK        -0.0205 
     16 S16        -1.6742  -20.2565  -49.7206 S.3       23 UNK        -0.2404 
     17 C17        -0.8824  -20.4055  -48.0868 C.3       23 UNK        -0.0398 
     18 CA         -0.7291  -21.8556  -47.5627 C.3       11 UNK         0.1400 
     19 N           0.0451  -21.8681  -46.3177 N.am      11 UNK        -0.5000 
     20 C           0.4465  -22.9605  -45.6533 C.2       10 UNK         0.5000 
     21 O           0.2452  -24.1104  -46.0390 O.2       10 UNK        -0.5000 
     22 CA          1.1513  -22.7307  -44.3046 C.3       10 UNK         0.1400 
     23 CB          2.6191  -22.3321  -44.5169 C.3       10 UNK        -0.1800 
     24 N           0.4775  -21.7263  -43.4792 N.am      10 UNK        -0.5000 
     25 C          -0.7682  -21.8517  -42.9976 C.2       9 UNK         0.5000 
     26 O          -1.4682  -22.8491  -43.1655 O.2       9 UNK        -0.5000 
     27 CA         -1.3558  -20.6400  -42.2514 C.3       9 UNK         0.1400 
     28 CB         -0.8065  -20.5525  -40.8202 C.3       9 UNK        -0.1800 
     29 N          -1.1145  -19.3804  -42.9549 N.am      9 UNK        -0.5000 
     30 C          -1.5758  -19.0988  -44.1818 C.2       8 UNK         0.5000 
     31 O          -2.3009  -19.8509  -44.8326 O.2       8 UNK        -0.5000 
     32 CA         -1.0975  -17.7829  -44.8161 C.3       8 UNK         0.1400 
     33 CB         -1.9420  -16.5934  -44.3398 C.3       8 UNK        -0.1800 
     34 N           0.3238  -17.5347  -44.5677 N.am      8 UNK        -0.5000 
     35 C           1.3127  -18.2863  -45.0738 C.2       7 UNK         0.5000 
     36 O           1.1293  -19.2177  -45.8560 O.2       7 UNK        -0.5000 
     37 CA          2.7370  -17.9830  -44.5835 C.3       7 UNK         0.1400 
     38 CB          3.3503  -16.8201  -45.3772 C.3       7 UNK        -0.1800 
     39 N           2.7626  -17.6802  -43.1526 N.am      7 UNK        -0.5000 
     40 C           2.5819  -18.5956  -42.1887 C.2       6 UNK         0.5000 
     41 O           2.4010  -19.7911  -42.4162 O.2       6 UNK        -0.5000 
     42 CA          2.5630  -18.0992  -40.7285 C.3       6 UNK         0.1400 
     43 CB          3.9783  -18.1327  -40.1336 C.3       6 UNK        -0.1800 
     44 N           2.0118  -16.7529  -40.5750 N.am      6 UNK        -0.5000 
     45 C           0.7656  -16.3894  -40.9063 C.2       5 UNK         0.5000 
     46 O          -0.0877  -17.1778  -41.3143 O.2       5 UNK        -0.5000 
     47 CA          0.4320  -14.8853  -40.8266 C.3       5 UNK         0.1400 
     48 CB         -0.2361  -14.5590  -39.4830 C.3       5 UNK        -0.1800 
     49 N           1.5695  -13.9748  -41.0311 N.am      5 UNK        -0.5000 
     50 C           2.4053  -13.9846  -42.0791 C.2       4 UNK         0.5000 
     51 O           2.3801  -14.8442  -42.9637 O.2       4 UNK        -0.5000 
     52 CA          3.4602  -12.8717  -42.1367 C.3       4 UNK         0.1400 
     53 CB          4.5775  -13.1107  -41.1058 C.3       4 UNK        -0.1800 
     54 N           4.0235  -12.8633  -43.4799 N.am      4 UNK        -0.5000 
     55 C           4.5907  -11.8304  -44.1075 C.2       3 UNK         0.5000 
     56 O           4.7407  -10.7207  -43.5927 O.2       3 UNK        -0.5000 
     57 CA          5.0856  -12.0739  -45.5468 C.3       3 UNK         0.1400 
     58 CB          5.1575  -13.5628  -45.9448 C.3       3 UNK        -0.1800 
     59 N           4.2098  -11.3900  -46.4913 N.am      3 UNK        -0.5000 
     60 C           4.4379  -10.1878  -47.0371 C.2       2 UNK         0.5000 
     61 O           5.4308   -9.5040  -46.7824 O.2       2 UNK        -0.5000 
     62 CA          3.4150   -9.6638  -48.0695 C.3       2 UNK         0.1400 
     63 CB          4.0835   -9.4546  -49.4388 C.3       2 UNK        -0.1800 
     64 N           2.2793  -10.5692  -48.2496 N.am      2 UNK        -0.5000 
     65 C           1.1528  -10.5438  -47.5299 C.2       1 UNK         0.5000 
     66 O           0.9042   -9.6709  -46.6946 O.2       1 UNK        -0.5000 
     67 C          -2.0825  -22.5871  -47.4016 C.2       11 UNK         0.5000 
     68 O          -2.4255  -23.4307  -48.2332 O.2       11 UNK        -0.5000 
     69 N          -2.8000  -22.2929  -46.3080 N.am      12 UNK        -0.5000 
     70 CA         -4.0500  -22.9529  -45.9365 C.3       12 UNK         0.1400 
     71 CB         -4.7003  -22.2048  -44.7635 C.3       12 UNK        -0.1800 
     72 C          -3.8621  -24.4453  -45.6073 C.2       12 UNK         0.5000 
     73 O          -4.6212  -25.2711  -46.1143 O.2       12 UNK        -0.5000 
     74 N          -2.8415  -24.7712  -44.8004 N.am      13 UNK        -0.5000 
     75 CA         -2.4970  -26.1382  -44.3950 C.3       13 UNK         0.1400 
     76 CB         -1.3979  -26.0968  -43.3230 C.3       13 UNK        -0.1800 
     77 C          -2.0704  -27.0374  -45.5704 C.2       13 UNK         0.5000 
     78 O          -2.4247  -28.2165  -45.5940 O.2       13 UNK        -0.5000 
     79 N          -1.3489  -26.4583  -46.5386 N.am      14 UNK        -0.5000 
     80 CA         -0.9457  -27.1057  -47.7882 C.3       14 UNK         0.1400 
     81 CB          0.1962  -26.2907  -48.4175 C.3       14 UNK        -0.1800 
     82 C          -2.0986  -27.2666  -48.8002 C.2       14 UNK         0.5000 
     83 O          -1.9190  -27.9646  -49.7988 O.2       14 UNK        -0.5000 
     84 N          -3.2370  -26.6009  -48.5473 N.am      15 UNK        -0.5000 
     85 CA         -4.4080  -26.4711  -49.4211 C.3       15 UNK         0.1400 
     86 CB         -5.0996  -27.8333  -49.6368 C.3       15 UNK        -0.1800 
     87 C          -4.0827  -25.7346  -50.7386 C.2       15 UNK         0.5000 
     88 O          -4.6869  -26.0155  -51.7746 O.2       15 UNK        -0.5000 
     89 N          -3.1295  -24.7971  -50.6652 N.am      16 UNK        -0.5000 
     90 CA         -2.7020  -23.9382  -51.7666 C.3       16 UNK         0.1400 
     91 CB         -1.2108  -23.6170  -51.5806 C.3       16 UNK        -0.1800 
     92 C          -3.5383  -22.6477  -51.8465 C.2       16 UNK         0.5000 
     93 O          -3.4860  -21.9633  -52.8643 O.2       16 UNK        -0.5000 
     94 N          -4.2906  -22.3412  -50.7828 N.am      17 UNK        -0.5000 
     95 CA         -5.1801  -21.1885  -50.6777 C.3       17 UNK         0.1400 
     96 CB         -5.4481  -20.9364  -49.1821 C.3       17 UNK        -0.1800 
     97 C          -6.5018  -21.3833  -51.4502 C.2       17 UNK         0.5000 
     98 O          -6.7748  -22.4677  -51.9736 O.2       17 UNK        -0.5000 
     99 N          -7.3242  -20.3239  -51.4583 N.am      18 UNK        -0.5000 
    100 CA        -8.6865  -20.2621  -51.9966 C.3       18 UNK         0.1400 
    101 CB        -9.6432  -21.1281  -51.1451 C.3       18 UNK        -0.1800 
    102 C         -8.7251  -20.5722  -53.5059 C.2       18 UNK         0.5000 
    103 O         -8.1554  -19.8081  -54.2856 O.2       18 UNK        -0.5000 
    104 N         -9.3739  -21.6777  -53.8969 N.am      19 UNK        -0.5000 
    105 CA        -9.5350  -22.1258  -55.2837 C.3       19 UNK         0.1400 
    106 CB       -10.4684  -23.3458  -55.3067 C.3       19 UNK        -0.1800 
    107 C         -8.2104  -22.4469  -56.0057 C.2       19 UNK         0.5000 
    108 O         -8.1559  -22.3538  -57.2324 O.2       19 UNK        -0.5000 
    109 N         -7.1669  -22.7940  -55.2405 N.am      20 UNK        -0.5000 
    110 CA        -5.8097  -23.0249  -55.7384 C.3       20 UNK         0.1400 
    111 CB        -5.1439  -24.1026  -54.8683 C.3       20 UNK        -0.1800 
    112 C         -4.9639  -21.7335  -55.8217 C.2       20 UNK         0.5000 
    113 O         -3.8123  -21.8038  -56.2569 O.2       20 UNK        -0.5000 
    114 N         -5.5443  -20.5850  -55.4357 N.am      21 UNK        -0.5000 
    115 CA        -4.9743  -19.2358  -55.4240 C.3       21 UNK         0.1400 
    116 CB        -4.6815  -18.7397  -56.8571 C.3       21 UNK        -0.1800 
    117 C         -3.7684  -19.1176  -54.4744 C.2       21 UNK         0.5000 
    118 O         -3.9587  -18.7834  -53.3038 O.2       21 UNK        -0.5000 
    119 N         -2.5692  -19.3844  -55.0019 N.am      22 UNK        -0.5000 
    120 CA        -1.2935  -19.4271  -54.2722 C.3       22 UNK         0.1400 
    121 C         -0.5402  -20.7756  -54.4756 C.2       22 UNK         0.5000 
    122 N         -1.1188  -21.7823  -55.1220 N.am      22 UNK        -0.7600 
    123 O          0.5988  -20.9178  -54.0390 O.2       22 UNK        -0.5000 
    124 C124       -0.3772  -18.2163  -54.6176 C.3       23 UNK        -0.0398 
    125 S125       -1.1696  -16.5760  -54.4408 S.3       23 UNK        -0.2404 
    126 C126       -0.1144  -15.7553  -53.1913 C.3       23 UNK        -0.0205 
    127 H127       -1.3830  -13.2882  -44.4297 H         1 UNK         0.0600 
    128 H128       -0.0465  -12.7009  -43.4368 H         1 UNK         0.0600 
    129 H129        0.0006  -14.3368  -44.1024 H         1 UNK         0.0600 
    130 H130       -1.3332  -12.2671  -46.3774 H         1 UNK         0.3000 
    131 H131       -0.7623  -11.1379  -48.1266 H         1 UNK         0.0600 
    132 H132       -0.4014  -13.3669  -49.0192 H         1 UNK         0.0800 
    133 H133        0.5358  -12.1797  -49.8482 H         1 UNK         0.0800 
    134 H134        2.1248  -16.0480  -48.1357 H         1 UNK         0.0800 
    135 H135        0.7315  -15.3069  -47.3867 H         1 UNK         0.0800 
    136 H136        1.2902  -14.9310  -51.0719 H         1 UNK         0.1150 
    137 H137       -1.9373  -17.5674  -52.0593 H         1 UNK         0.1150 
    138 H138       -0.6279  -17.2452  -48.0126 H         1 UNK         0.1150 
    139 H139       -2.7894  -18.3957  -48.6204 H         1 UNK         0.0800 
    140 H140       -3.2452  -18.5334  -50.2959 H         1 UNK         0.0800 
    141 H141       -1.4376  -19.8084  -47.3643 H         1 UNK         0.0800 
    142 H142        0.1006  -19.9408  -48.1711 H         1 UNK         0.0800 
    143 H143       -0.1491  -22.4164  -48.2984 H         1 UNK         0.0600 
    144 H144        0.3018  -20.9577  -45.9465 H         1 UNK         0.3000 
    145 H145        1.1344  -23.6752  -43.7572 H         1 UNK         0.0600 
    146 H146        3.1482  -22.2596  -43.5666 H         1 UNK         0.0600 
    147 H147        2.7073  -21.3702  -45.0224 H         1 UNK         0.0600 
    148 H148        3.1413  -23.0725  -45.1241 H         1 UNK         0.0600 
    149 H149        1.0126  -20.8935  -43.2524 H         1 UNK         0.3000 
    150 H150       -2.4369  -20.7804  -42.1902 H         1 UNK         0.0600 
    151 H151       -1.0364  -21.4594  -40.2598 H         1 UNK         0.0600 
    152 H152       -1.2455  -19.7141  -40.2790 H         1 UNK         0.0600 
    153 H153        0.2757  -20.4277  -40.8098 H         1 UNK         0.0600 
    154 H154       -0.5691  -18.6776  -42.4646 H         1 UNK         0.3000 
    155 H155       -1.2419  -17.8764  -45.8929 H         1 UNK         0.0600 
    156 H156       -3.0074  -16.8119  -44.4233 H         1 UNK         0.0600 
    157 H157       -1.7504  -15.7140  -44.9527 H         1 UNK         0.0600 
    158 H158       -1.7401  -16.3379  -43.2996 H         1 UNK         0.0600 
    159 H159        0.5598  -16.8134  -43.9015 H         1 UNK         0.3000 
    160 H160        3.3513  -18.8695  -44.7555 H         1 UNK         0.0600 
    161 H161        2.7203  -15.9301  -45.3479 H         1 UNK         0.0600 
    162 H162        3.4789  -17.0947  -46.4243 H         1 UNK         0.0600 
    163 H163        4.3329  -16.5503  -44.9902 H         1 UNK         0.0600 
    164 H164        2.8265  -16.6973  -42.9028 H         1 UNK         0.3000 
    165 H165        1.9348  -18.7824  -40.1542 H         1 UNK         0.0600 
    166 H166        3.9690  -17.8662  -39.0766 H         1 UNK         0.0600 
    167 H167        4.4111  -19.1311  -40.2120 H         1 UNK         0.0600 
    168 H168        4.6478  -17.4429  -40.6491 H         1 UNK         0.0600 
    169 H169        2.6475  -16.0352  -40.2605 H         1 UNK         0.3000 
    170 H170       -0.2900  -14.6810  -41.6189 H         1 UNK         0.0600 
    171 H171        0.4513  -14.7001  -38.6480 H         1 UNK         0.0600 
    172 H172       -1.1006  -15.2014  -39.3091 H         1 UNK         0.0600 
    173 H173       -0.5903  -13.5283  -39.4575 H         1 UNK         0.0600 
    174 H174        1.6771  -13.2470  -40.3393 H         1 UNK         0.3000 
    175 H175        2.9663  -11.9176  -41.9421 H         1 UNK         0.0600 
    176 H176        5.0792  -14.0649  -41.2728 H         1 UNK         0.0600 
    177 H177        5.3318  -12.3250  -41.1515 H         1 UNK         0.0600 
    178 H178        4.1827  -13.1190  -40.0894 H         1 UNK         0.0600 
    179 H179        3.8299  -13.7109  -44.0001 H         1 UNK         0.3000 
    180 H180        6.0980  -11.6696  -45.6075 H         1 UNK         0.0600 
    181 H181        5.6129  -13.6782  -46.9285 H         1 UNK         0.0600 
    182 H182        4.1688  -14.0206  -45.9903 H         1 UNK         0.0600 
    183 H183        5.7644  -14.1348  -45.2418 H         1 UNK         0.0600 
    184 H184        3.3251  -11.8497  -46.6731 H         1 UNK         0.3000 
    185 H185        3.0606   -8.6940  -47.7142 H         1 UNK         0.0600 
    186 H186        3.3768   -9.0527  -50.1651 H         1 UNK         0.0600 
    187 H187        4.9110   -8.7474  -49.3690 H         1 UNK         0.0600 
    188 H188        4.4817  -10.3881  -49.8384 H         1 UNK         0.0600 
    189 H189        2.4252  -11.3477  -48.8790 H         1 UNK         0.3000 
    190 H190       -2.4714  -21.5611  -45.6835 H         1 UNK         0.3000 
    191 H191       -4.7257  -22.8874  -46.7914 H         1 UNK         0.0600 
    192 H192       -4.9155  -21.1698  -45.0296 H         1 UNK         0.0600 
    193 H193       -4.0564  -22.1949  -43.8837 H         1 UNK         0.0600 
    194 H194       -5.6437  -22.6709  -44.4768 H         1 UNK         0.0600 
    195 H195       -2.2804  -24.0266  -44.3932 H         1 UNK         0.3000 
    196 H196       -3.3883  -26.5835  -43.9484 H         1 UNK         0.0600 
    197 H197       -1.7266  -25.5441  -42.4428 H         1 UNK         0.0600 
    198 H198       -0.4905  -25.6220  -43.6973 H         1 UNK         0.0600 
    199 H199       -1.1322  -27.1024  -42.9946 H         1 UNK         0.0600 
    200 H200       -1.0328  -25.5008  -46.4059 H         1 UNK         0.3000 
    201 H201       -0.5688  -28.1041  -47.5573 H         1 UNK         0.0600 
    202 H202        1.0489  -26.2200  -47.7420 H         1 UNK         0.0600 
    203 H203       -0.1234  -25.2764  -48.6611 H         1 UNK         0.0600 
    204 H204        0.5509  -26.7538  -49.3391 H         1 UNK         0.0600 
    205 H205       -3.2846  -26.0651  -47.6893 H         1 UNK         0.3000 
    206 H206       -5.1103  -25.8303  -48.8863 H         1 UNK         0.0600 
    207 H207       -4.4911  -28.5088  -50.2383 H         1 UNK         0.0600 
    208 H208       -5.3073  -28.3240  -48.6858 H         1 UNK         0.0600 
    209 H209       -6.0528  -27.7089  -50.1518 H         1 UNK         0.0600 
    210 H210       -2.7254  -24.5848  -49.7568 H         1 UNK         0.3000 
    211 H211       -2.8203  -24.4686  -52.7136 H         1 UNK         0.0600 
    212 H212       -1.0251  -23.0960  -50.6416 H         1 UNK         0.0600 
    213 H213       -0.8438  -22.9804  -52.3857 H         1 UNK         0.0600 
    214 H214       -0.6088  -24.5258  -51.5834 H         1 UNK         0.0600 
    215 H215       -4.2628  -22.9671  -49.9926 H         1 UNK         0.3000 
    216 H216       -4.6701  -20.3197  -51.0973 H         1 UNK         0.0600 
    217 H217       -6.0232  -20.0232  -49.0271 H         1 UNK         0.0600 
    218 H218       -4.5175  -20.8233  -48.6256 H         1 UNK         0.0600 
    219 H219       -6.0076  -21.7573  -48.7318 H         1 UNK         0.0600 
    220 H220       -6.9943  -19.4660  -51.0394 H         1 UNK         0.3000 
    221 H221       -9.0106  -19.2252  -51.8961 H         1 UNK         0.0600 
    222 H222       -9.3753  -22.1851  -51.1626 H         1 UNK         0.0600 
    223 H223       -9.6318  -20.8063  -50.1037 H         1 UNK         0.0600 
    224 H224      -10.6728  -21.0379  -51.4941 H         1 UNK         0.0600 
    225 H225       -9.7892  -22.2620  -53.1858 H         1 UNK         0.3000 
    226 H226      -10.0166  -21.3170  -55.8371 H         1 UNK         0.0600 
    227 H227      -11.4437  -23.1057  -54.8828 H         1 UNK         0.0600 
    228 H228      -10.6361  -23.6913  -56.3278 H         1 UNK         0.0600 
    229 H229      -10.0517  -24.1809  -54.7420 H         1 UNK         0.0600 
    230 H230       -7.2873  -22.8252  -54.2350 H         1 UNK         0.3000 
    231 H231       -5.8603  -23.4188  -56.7555 H         1 UNK         0.0600 
    232 H232       -4.0887  -24.2258  -55.1149 H         1 UNK         0.0600 
    233 H233       -5.6247  -25.0702  -55.0113 H         1 UNK         0.0600 
    234 H234       -5.2120  -23.8599  -53.8093 H         1 UNK         0.0600 
    235 H235       -6.4908  -20.6331  -55.0752 H         1 UNK         0.3000 
    236 H236       -5.7488  -18.5858  -55.0142 H         1 UNK         0.0600 
    237 H237       -3.9791  -19.3807  -57.3898 H         1 UNK         0.0600 
    238 H238       -5.5976  -18.6968  -57.4461 H         1 UNK         0.0600 
    239 H239       -4.2605  -17.7335  -56.8410 H         1 UNK         0.0600 
    240 H240       -2.5324  -19.6959  -55.9617 H         1 UNK         0.3000 
    241 H241       -1.4992  -19.4064  -53.2020 H         1 UNK         0.0600 
    242 H242       -0.6106  -22.6421  -55.2467 H         1 UNK         0.3800 
    243 H243       -2.0856  -21.7239  -55.4315 H         1 UNK         0.3800 
    244 H244        0.5190  -18.2402  -53.9955 H         1 UNK         0.0800 
    245 H245       -0.0276  -18.2978  -55.6480 H         1 UNK         0.0800 
    246 H246       -0.3221  -14.6854  -53.2372 H         1 UNK         0.0800 
    247 H247        0.9309  -15.8742  -53.4805 H         1 UNK         0.0800 
@<TRIPOS>BOND
     1    1    2 1    
     2    1  127 1    
     3    1  128 1    
     4    1  129 1    
     5    2    3 2    
     6    2    4 am   BACKBONE|DICT|INTERRES
     7    4    5 1    
     8    4  130 1    
     9    5    6 1    
    10    5   65 1    
    11    5  131 1    
    12    6    7 1    
    13    6  132 1    
    14    6  133 1    
    15    7    8 1    
    16    8    9 1    
    17    8  134 1    
    18    8  135 1    
    19    9   10 ar   
    20    9   14 ar   
    21   10   11 ar   
    22   10  136 1    
    23   11   12 ar   
    24   11  126 1    
    25   12   13 ar   
    26   12  137 1    
    27   13   14 ar   
    28   13   15 1    
    29   14  138 1    
    30   15   16 1    
    31   15  139 1    
    32   15  140 1    
    33   16   17 1    
    34   17   18 1    
    35   17  141 1    
    36   17  142 1    
    37   18   19 1    
    38   18   67 1    
    39   18  143 1    
    40   19   20 am   BACKBONE|DICT|INTERRES
    41   19  144 1    
    42   20   21 2    
    43   20   22 1    
    44   22   23 1    
    45   22   24 1    
    46   22  145 1    
    47   23  146 1    
    48   23  147 1    
    49   23  148 1    
    50   24   25 am   BACKBONE|DICT|INTERRES
    51   24  149 1    
    52   25   26 2    
    53   25   27 1    
    54   27   28 1    
    55   27   29 1    
    56   27  150 1    
    57   28  151 1    
    58   28  152 1    
    59   28  153 1    
    60   29   30 am   BACKBONE|DICT|INTERRES
    61   29  154 1    
    62   30   31 2    
    63   30   32 1    
    64   32   33 1    
    65   32   34 1    
    66   32  155 1    
    67   33  156 1    
    68   33  157 1    
    69   33  158 1    
    70   34   35 am   BACKBONE|DICT|INTERRES
    71   34  159 1    
    72   35   36 2    
    73   35   37 1    
    74   37   38 1    
    75   37   39 1    
    76   37  160 1    
    77   38  161 1    
    78   38  162 1    
    79   38  163 1    
    80   39   40 am   BACKBONE|DICT|INTERRES
    81   39  164 1    
    82   40   41 2    
    83   40   42 1    
    84   42   43 1    
    85   42   44 1    
    86   42  165 1    
    87   43  166 1    
    88   43  167 1    
    89   43  168 1    
    90   44   45 am   BACKBONE|DICT|INTERRES
    91   44  169 1    
    92   45   46 2    
    93   45   47 1    
    94   47   48 1    
    95   47   49 1    
    96   47  170 1    
    97   48  171 1    
    98   48  172 1    
    99   48  173 1    
   100   49   50 am   BACKBONE|DICT|INTERRES
   101   49  174 1    
   102   50   51 2    
   103   50   52 1    
   104   52   53 1    
   105   52   54 1    
   106   52  175 1    
   107   53  176 1    
   108   53  177 1    
   109   53  178 1    
   110   54   55 am   BACKBONE|DICT|INTERRES
   111   54  179 1    
   112   55   56 2    
   113   55   57 1    
   114   57   58 1    
   115   57   59 1    
   116   57  180 1    
   117   58  181 1    
   118   58  182 1    
   119   58  183 1    
   120   59   60 am   BACKBONE|DICT|INTERRES
   121   59  184 1    
   122   60   61 2    
   123   60   62 1    
   124   62   63 1    
   125   62   64 1    
   126   62  185 1    
   127   63  186 1    
   128   63  187 1    
   129   63  188 1    
   130   64   65 am   BACKBONE|DICT|INTERRES
   131   64  189 1    
   132   65   66 2    
   133   67   68 2    
   134   67   69 am   BACKBONE|DICT|INTERRES
   135   69   70 1    
   136   69  190 1    
   137   70   71 1    
   138   70   72 1    
   139   70  191 1    
   140   71  192 1    
   141   71  193 1    
   142   71  194 1    
   143   72   73 2    
   144   72   74 am   BACKBONE|DICT|INTERRES
   145   74   75 1    
   146   74  195 1    
   147   75   76 1    
   148   75   77 1    
   149   75  196 1    
   150   76  197 1    
   151   76  198 1    
   152   76  199 1    
   153   77   78 2    
   154   77   79 am   BACKBONE|DICT|INTERRES
   155   79   80 1    
   156   79  200 1    
   157   80   81 1    
   158   80   82 1    
   159   80  201 1    
   160   81  202 1    
   161   81  203 1    
   162   81  204 1    
   163   82   83 2    
   164   82   84 am   BACKBONE|DICT|INTERRES
   165   84   85 1    
   166   84  205 1    
   167   85   86 1    
   168   85   87 1    
   169   85  206 1    
   170   86  207 1    
   171   86  208 1    
   172   86  209 1    
   173   87   88 2    
   174   87   89 am   BACKBONE|DICT|INTERRES
   175   89   90 1    
   176   89  210 1    
   177   90   91 1    
   178   90   92 1    
   179   90  211 1    
   180   91  212 1    
   181   91  213 1    
   182   91  214 1    
   183   92   93 2    
   184   92   94 am   BACKBONE|DICT|INTERRES
   185   94   95 1    
   186   94  215 1    
   187   95   96 1    
   188   95   97 1    
   189   95  216 1    
   190   96  217 1    
   191   96  218 1    
   192   96  219 1    
   193   97   98 2    
   194   97   99 am   BACKBONE|DICT|INTERRES
   195   99  100 1    
   196   99  220 1    
   197  100  101 1    
   198  100  102 1    
   199  100  221 1    
   200  101  222 1    
   201  101  223 1    
   202  101  224 1    
   203  102  103 2    
   204  102  104 am   BACKBONE|DICT|INTERRES
   205  104  105 1    
   206  104  225 1    
   207  105  106 1    
   208  105  107 1    
   209  105  226 1    
   210  106  227 1    
   211  106  228 1    
   212  106  229 1    
   213  107  108 2    
   214  107  109 am   BACKBONE|DICT|INTERRES
   215  109  110 1    
   216  109  230 1    
   217  110  111 1    
   218  110  112 1    
   219  110  231 1    
   220  111  232 1    
   221  111  233 1    
   222  111  234 1    
   223  112  113 2    
   224  112  114 am   BACKBONE|DICT|INTERRES
   225  114  115 1    
   226  114  235 1    
   227  115  116 1    
   228  115  117 1    
   229  115  236 1    
   230  116  237 1    
   231  116  238 1    
   232  116  239 1    
   233  117  118 2    
   234  117  119 am   BACKBONE|DICT|INTERRES
   235  119  120 1    
   236  119  240 1    
   237  120  121 1    
   238  120  124 1    
   239  120  241 1    
   240  121  122 am   BACKBONE|DICT|INTERRES
   241  121  123 2    
   242  122  242 1    
   243  122  243 1    
   244  124  125 1    
   245  124  244 1    
   246  124  245 1    
   247  125  126 1    
   248  126  246 1    
   249  126  247 1    
@<TRIPOS>SUBSTRUCTURE
     1 UNK         1 GROUP             0       ****    0 ROOT    
