@<TRIPOS>MOLECULE
3R540
247   249    1
SMALL
USER_CHARGES


@<TRIPOS>ATOM
      1 CA          5.3385  -17.0371  -41.8513 C.3       0 UNK        -0.1800 
      2 C           4.1318  -16.1788  -42.2035 C.2       0 UNK         0.5000 
      3 O           3.3259  -15.8654  -41.3271 O.2       0 UNK        -0.5000 
      4 N           3.9971  -15.8127  -43.4836 N.am      1 UNK        -0.5000 
      5 CA          2.9217  -14.9671  -44.0091 C.3       1 UNK         0.1400 
      6 C6          2.8934  -14.9604  -45.5571 C.3       23 UNK        -0.0398 
      7 S7          2.6503  -16.6196  -46.2678 S.3       23 UNK        -0.2404 
      8 C8          2.6793  -16.2293  -48.0461 C.3       23 UNK        -0.0205 
      9 C9          1.8397  -17.2117  -48.8502 C.ar      23 UNK        -0.0193 
     10 C10         0.7088  -16.7665  -49.5396 C.ar      23 UNK        -0.1150 
     11 C11        -0.0728  -17.6610  -50.2726 C.ar      23 UNK        -0.0193 
     12 C12         0.2814  -19.0122  -50.3095 C.ar      23 UNK        -0.1150 
     13 C13         1.4118  -19.4783  -49.6313 C.ar      23 UNK        -0.0193 
     14 C14         2.1932  -18.5633  -48.9111 C.ar      23 UNK        -0.1150 
     15 C15         1.7552  -20.9656  -49.7398 C.3       23 UNK        -0.0205 
     16 S16         2.9724  -21.6002  -48.5345 S.3       23 UNK        -0.2404 
     17 C17         2.0092  -21.6054  -46.9853 C.3       23 UNK        -0.0398 
     18 CA          1.4975  -23.0236  -46.6280 C.3       11 UNK         0.1400 
     19 N           1.4452  -23.2569  -45.1839 N.am      11 UNK        -0.5000 
     20 C           1.3449  -24.4688  -44.6193 C.2       10 UNK         0.5000 
     21 O           1.3202  -25.5214  -45.2575 O.2       10 UNK        -0.5000 
     22 CA          1.2069  -24.5045  -43.0864 C.3       10 UNK         0.1400 
     23 CB          2.5878  -24.4431  -42.4168 C.3       10 UNK        -0.1800 
     24 N           0.3699  -23.4179  -42.5745 N.am      10 UNK        -0.5000 
     25 C          -0.9462  -23.3095  -42.8036 C.2       9 UNK         0.5000 
     26 O          -1.5989  -24.1351  -43.4411 O.2       9 UNK        -0.5000 
     27 CA         -1.6370  -22.0382  -42.2772 C.3       9 UNK         0.1400 
     28 CB         -2.0502  -22.2166  -40.8088 C.3       9 UNK        -0.1800 
     29 N          -0.8230  -20.8250  -42.4114 N.am      9 UNK        -0.5000 
     30 C          -0.3757  -20.3327  -43.5739 C.2       8 UNK         0.5000 
     31 O          -0.5283  -20.8950  -44.6609 O.2       8 UNK        -0.5000 
     32 CA          0.4133  -19.0151  -43.5122 C.3       8 UNK         0.1400 
     33 CB          1.9213  -19.2968  -43.4403 C.3       8 UNK        -0.1800 
     34 N           0.1382  -18.2043  -44.6957 N.am      8 UNK        -0.5000 
     35 C          -0.9950  -17.5249  -44.8963 C.2       7 UNK         0.5000 
     36 O          -1.8889  -17.4112  -44.0532 O.2       7 UNK        -0.5000 
     37 CA         -1.1675  -16.8691  -46.2710 C.3       7 UNK         0.1400 
     38 CB         -2.0804  -17.7209  -47.1666 C.3       7 UNK        -0.1800 
     39 N          -1.7596  -15.5519  -46.0701 N.am      7 UNK        -0.5000 
     40 C          -1.2970  -14.4146  -46.5967 C.2       6 UNK         0.5000 
     41 O          -0.3789  -14.3600  -47.4165 O.2       6 UNK        -0.5000 
     42 CA         -1.9546  -13.1243  -46.0824 C.3       6 UNK         0.1400 
     43 CB         -1.4723  -12.8155  -44.6563 C.3       6 UNK        -0.1800 
     44 N          -1.5884  -12.0009  -46.9390 N.am      6 UNK        -0.5000 
     45 C          -2.4251  -11.3254  -47.7363 C.2       5 UNK         0.5000 
     46 O          -3.6351  -11.5480  -47.8007 O.2       5 UNK        -0.5000 
     47 CA         -1.8258  -10.1997  -48.6061 C.3       5 UNK         0.1400 
     48 CB         -2.1497   -8.8249  -48.0003 C.3       5 UNK        -0.1800 
     49 N          -0.3766  -10.3039  -48.7741 N.am      5 UNK        -0.5000 
     50 C           0.2492  -11.2172  -49.5285 C.2       4 UNK         0.5000 
     51 O          -0.3393  -12.0126  -50.2612 O.2       4 UNK        -0.5000 
     52 CA          1.7911  -11.2515  -49.4526 C.3       4 UNK         0.1400 
     53 CB          2.4064  -10.6853  -50.7420 C.3       4 UNK        -0.1800 
     54 N           2.3637  -10.5363  -48.3038 N.am      4 UNK        -0.5000 
     55 C           2.2010  -10.8859  -47.0207 C.2       3 UNK         0.5000 
     56 O           1.5066  -11.8414  -46.6695 O.2       3 UNK        -0.5000 
     57 CA          2.9456  -10.0250  -45.9778 C.3       3 UNK         0.1400 
     58 CB          2.5263   -8.5405  -46.0410 C.3       3 UNK        -0.1800 
     59 N           2.8201  -10.5686  -44.6203 N.am      3 UNK        -0.5000 
     60 C           1.7306  -10.6188  -43.8402 C.2       2 UNK         0.5000 
     61 O           0.6709  -10.0388  -44.0838 O.2       2 UNK        -0.5000 
     62 CA          1.8468  -11.5356  -42.6035 C.3       2 UNK         0.1400 
     63 CB          0.6564  -11.3896  -41.6384 C.3       2 UNK        -0.1800 
     64 N           1.9522  -12.9391  -43.0126 N.am      2 UNK        -0.5000 
     65 C           3.0607  -13.5240  -43.4836 C.2       1 UNK         0.5000 
     66 O           4.1532  -12.9534  -43.5531 O.2       1 UNK        -0.5000 
     67 C           0.1371  -23.3250  -47.2826 C.2       11 UNK         0.5000 
     68 O           0.0986  -23.9755  -48.3243 O.2       11 UNK        -0.5000 
     69 N          -0.9562  -22.8967  -46.6360 N.am      12 UNK        -0.5000 
     70 CA         -2.3284  -23.1787  -47.0537 C.3       12 UNK         0.1400 
     71 CB         -3.3101  -22.3718  -46.1930 C.3       12 UNK        -0.1800 
     72 C          -2.6675  -24.6787  -47.0327 C.2       12 UNK         0.5000 
     73 O          -3.3254  -25.1579  -47.9567 O.2       12 UNK        -0.5000 
     74 N          -2.1767  -25.3987  -46.0144 N.am      13 UNK        -0.5000 
     75 CA         -2.2709  -26.8542  -45.9104 C.3       13 UNK         0.1400 
     76 CB         -1.7951  -27.3107  -44.5231 C.3       13 UNK        -0.1800 
     77 C          -1.4904  -27.5702  -47.0275 C.2       13 UNK         0.5000 
     78 O          -2.0404  -28.4683  -47.6652 O.2       13 UNK        -0.5000 
     79 N          -0.2480  -27.1309  -47.2804 N.am      14 UNK        -0.5000 
     80 CA          0.6114  -27.6367  -48.3562 C.3       14 UNK         0.1400 
     81 CB          2.0177  -27.0350  -48.2158 C.3       14 UNK        -0.1800 
     82 C           0.0408  -27.3697  -49.7634 C.2       14 UNK         0.5000 
     83 O           0.1452  -28.2300  -50.6381 O.2       14 UNK        -0.5000 
     84 N          -0.5864  -26.2000  -49.9410 N.am      15 UNK        -0.5000 
     85 CA         -1.2928  -25.7856  -51.1537 C.3       15 UNK         0.1400 
     86 CB         -1.4593  -24.2560  -51.1271 C.3       15 UNK        -0.1800 
     87 C          -2.6642  -26.4676  -51.3387 C.2       15 UNK         0.5000 
     88 O          -3.2888  -26.2642  -52.3789 O.2       15 UNK        -0.5000 
     89 N          -3.1314  -27.2270  -50.3355 N.am      16 UNK        -0.5000 
     90 CA         -4.4321  -27.9027  -50.2701 C.3       16 UNK         0.1400 
     91 CB         -4.5025  -29.0542  -51.2944 C.3       16 UNK        -0.1800 
     92 C          -5.6119  -26.9130  -50.3808 C.2       16 UNK         0.5000 
     93 O          -6.5592  -27.1494  -51.1320 O.2       16 UNK        -0.5000 
     94 N          -5.4999  -25.8025  -49.6383 N.am      17 UNK        -0.5000 
     95 CA         -6.4274  -24.6710  -49.5378 C.3       17 UNK         0.1400 
     96 CB         -7.8374  -25.1222  -49.1054 C.3       17 UNK        -0.1800 
     97 C          -6.4647  -23.7470  -50.7728 C.2       17 UNK         0.5000 
     98 O          -7.2048  -22.7623  -50.7519 O.2       17 UNK        -0.5000 
     99 N          -5.6344  -24.0044  -51.7977 N.am      18 UNK        -0.5000 
    100 CA        -5.5127  -23.1588  -52.9949 C.3       18 UNK         0.1400 
    101 CB        -4.6603  -23.8695  -54.0544 C.3       18 UNK        -0.1800 
    102 C         -4.9469  -21.7543  -52.7020 C.2       18 UNK         0.5000 
    103 O         -5.1616  -20.8328  -53.4905 O.2       18 UNK        -0.5000 
    104 N         -4.2904  -21.5951  -51.5438 N.am      19 UNK        -0.5000 
    105 CA        -3.8139  -20.3266  -50.9901 C.3       19 UNK         0.1400 
    106 CB        -3.0097  -20.6151  -49.7160 C.3       19 UNK        -0.1800 
    107 C         -4.9305  -19.3000  -50.6992 C.2       19 UNK         0.5000 
    108 O         -4.6294  -18.1150  -50.5642 O.2       19 UNK        -0.5000 
    109 N         -6.1951  -19.7477  -50.6416 N.am      20 UNK        -0.5000 
    110 CA        -7.3734  -18.8790  -50.5888 C.3       20 UNK         0.1400 
    111 CB        -8.6234  -19.7356  -50.3395 C.3       20 UNK        -0.1800 
    112 C         -7.5439  -18.0284  -51.8655 C.2       20 UNK         0.5000 
    113 O         -8.0401  -16.9045  -51.7797 O.2       20 UNK        -0.5000 
    114 N         -7.1087  -18.5679  -53.0131 N.am      21 UNK        -0.5000 
    115 CA        -7.0063  -17.8519  -54.2832 C.3       21 UNK         0.1400 
    116 CB        -7.3992  -18.7951  -55.4315 C.3       21 UNK        -0.1800 
    117 C         -5.5798  -17.3117  -54.4863 C.2       21 UNK         0.5000 
    118 O         -5.4200  -16.1674  -54.9118 O.2       21 UNK        -0.5000 
    119 N         -4.5749  -18.1410  -54.1673 N.am      22 UNK        -0.5000 
    120 CA        -3.1351  -17.8614  -54.3109 C.3       22 UNK         0.1400 
    121 C         -2.6396  -17.7887  -55.7910 C.2       22 UNK         0.5000 
    122 N         -3.3659  -18.3453  -56.7535 N.am      22 UNK        -0.7600 
    123 O         -1.5775  -17.2449  -56.0802 O.2       22 UNK        -0.5000 
    124 C124       -2.6650  -16.6643  -53.4304 C.3       23 UNK        -0.0398 
    125 S125       -0.9732  -16.8893  -52.7729 S.3       23 UNK        -0.2404 
    126 C126       -1.3098  -17.1758  -51.0096 C.3       23 UNK        -0.0205 
    127 H127        5.9520  -16.5337  -41.1042 H         1 UNK         0.0600 
    128 H128        5.9611  -17.2387  -42.7234 H         1 UNK         0.0600 
    129 H129        5.0114  -17.9919  -41.4395 H         1 UNK         0.0600 
    130 H130        4.6945  -16.0946  -44.1571 H         1 UNK         0.3000 
    131 H131        1.9734  -15.3781  -43.6546 H         1 UNK         0.0600 
    132 H132        3.8152  -14.5385  -45.9622 H         1 UNK         0.0800 
    133 H133        2.0791  -14.3272  -45.9143 H         1 UNK         0.0800 
    134 H134        2.3150  -15.2121  -48.2013 H         1 UNK         0.0800 
    135 H135        3.7094  -16.2482  -48.4041 H         1 UNK         0.0800 
    136 H136        0.4316  -15.7222  -49.5033 H         1 UNK         0.1150 
    137 H137       -0.3231  -19.7031  -50.8802 H         1 UNK         0.1150 
    138 H138        3.0792  -18.8887  -48.3864 H         1 UNK         0.1150 
    139 H139        0.8431  -21.5592  -49.6611 H         1 UNK         0.0800 
    140 H140        2.1496  -21.1461  -50.7404 H         1 UNK         0.0800 
    141 H141        2.6923  -21.2531  -46.2122 H         1 UNK         0.0800 
    142 H142        1.2036  -20.8689  -47.0224 H         1 UNK         0.0800 
    143 H143        2.2100  -23.7506  -47.0249 H         1 UNK         0.0600 
    144 H144        1.3845  -22.4412  -44.5934 H         1 UNK         0.3000 
    145 H145        0.7377  -25.4529  -42.8162 H         1 UNK         0.0600 
    146 H146        2.5056  -24.5431  -41.3344 H         1 UNK         0.0600 
    147 H147        3.2280  -25.2530  -42.7692 H         1 UNK         0.0600 
    148 H148        3.0994  -23.5036  -42.6298 H         1 UNK         0.0600 
    149 H149        0.8288  -22.6956  -42.0394 H         1 UNK         0.3000 
    150 H150       -2.5433  -21.8914  -42.8682 H         1 UNK         0.0600 
    151 H151       -2.6728  -23.1036  -40.6835 H         1 UNK         0.0600 
    152 H152       -2.6291  -21.3632  -40.4553 H         1 UNK         0.0600 
    153 H153       -1.1835  -22.3289  -40.1562 H         1 UNK         0.0600 
    154 H154       -0.6430  -20.3115  -41.5607 H         1 UNK         0.3000 
    155 H155        0.1168  -18.4566  -42.6217 H         1 UNK         0.0600 
    156 H156        2.2706  -19.8568  -44.3075 H         1 UNK         0.0600 
    157 H157        2.4902  -18.3690  -43.3956 H         1 UNK         0.0600 
    158 H158        2.1720  -19.8747  -42.5501 H         1 UNK         0.0600 
    159 H159        0.8216  -18.2494  -45.4384 H         1 UNK         0.3000 
    160 H160       -0.1913  -16.7835  -46.7479 H         1 UNK         0.0600 
    161 H161       -3.0627  -17.8730  -46.7179 H         1 UNK         0.0600 
    162 H162       -1.6394  -18.7036  -47.3384 H         1 UNK         0.0600 
    163 H163       -2.2266  -17.2522  -48.1394 H         1 UNK         0.0600 
    164 H164       -2.4766  -15.5188  -45.3574 H         1 UNK         0.3000 
    165 H165       -3.0366  -13.2699  -46.0682 H         1 UNK         0.0600 
    166 H166       -0.3882  -12.7090  -44.6237 H         1 UNK         0.0600 
    167 H167       -1.9080  -11.8877  -44.2848 H         1 UNK         0.0600 
    168 H168       -1.7495  -13.6074  -43.9597 H         1 UNK         0.0600 
    169 H169       -0.5916  -11.8220  -47.0024 H         1 UNK         0.3000 
    170 H170       -2.2934  -10.2598  -49.5911 H         1 UNK         0.0600 
    171 H171       -3.2263   -8.6912  -47.8866 H         1 UNK         0.0600 
    172 H172       -1.6980   -8.7040  -47.0146 H         1 UNK         0.0600 
    173 H173       -1.7891   -8.0172  -48.6375 H         1 UNK         0.0600 
    174 H174        0.1895   -9.6886  -48.2095 H         1 UNK         0.3000 
    175 H175        2.0806  -12.3013  -49.3683 H         1 UNK         0.0600 
    176 H176        2.1673   -9.6289  -50.8707 H         1 UNK         0.0600 
    177 H177        3.4917  -10.7878  -50.7405 H         1 UNK         0.0600 
    178 H178        2.0340  -11.2153  -51.6198 H         1 UNK         0.0600 
    179 H179        2.9465   -9.7411  -48.5226 H         1 UNK         0.3000 
    180 H180        4.0071  -10.0850  -46.2219 H         1 UNK         0.0600 
    181 H181        1.4461   -8.4150  -45.9623 H         1 UNK         0.0600 
    182 H182        2.8354   -8.0837  -46.9814 H         1 UNK         0.0600 
    183 H183        2.9897   -7.9654  -45.2392 H         1 UNK         0.0600 
    184 H184        3.5949  -11.1553  -44.3276 H         1 UNK         0.3000 
    185 H185        2.7505  -11.2495  -42.0611 H         1 UNK         0.0600 
    186 H186        0.5518  -10.3573  -41.3023 H         1 UNK         0.0600 
    187 H187       -0.2849  -11.6794  -42.1066 H         1 UNK         0.0600 
    188 H188        0.7922  -12.0069  -40.7502 H         1 UNK         0.0600 
    189 H189        1.0921  -13.4664  -42.9948 H         1 UNK         0.3000 
    190 H190       -0.8390  -22.3187  -45.8067 H         1 UNK         0.3000 
    191 H191       -2.4264  -22.8479  -48.0867 H         1 UNK         0.0600 
    192 H192       -3.1031  -21.3031  -46.2565 H         1 UNK         0.0600 
    193 H193       -4.3377  -22.5261  -46.5244 H         1 UNK         0.0600 
    194 H194       -3.2556  -22.6609  -45.1435 H         1 UNK         0.0600 
    195 H195       -1.7107  -24.9156  -45.2526 H         1 UNK         0.3000 
    196 H196       -3.3232  -27.1280  -46.0125 H         1 UNK         0.0600 
    197 H197       -1.8729  -28.3937  -44.4204 H         1 UNK         0.0600 
    198 H198       -2.4006  -26.8648  -43.7338 H         1 UNK         0.0600 
    199 H199       -0.7560  -27.0370  -44.3405 H         1 UNK         0.0600 
    200 H200        0.1461  -26.4060  -46.6896 H         1 UNK         0.3000 
    201 H201        0.6923  -28.7186  -48.2336 H         1 UNK         0.0600 
    202 H202        2.4570  -27.2809  -47.2489 H         1 UNK         0.0600 
    203 H203        2.0030  -25.9490  -48.3096 H         1 UNK         0.0600 
    204 H204        2.6868  -27.4219  -48.9854 H         1 UNK         0.0600 
    205 H205       -0.5438  -25.5124  -49.1925 H         1 UNK         0.3000 
    206 H206       -0.6793  -26.0480  -52.0177 H         1 UNK         0.0600 
    207 H207       -0.4953  -23.7552  -51.0351 H         1 UNK         0.0600 
    208 H208       -1.9233  -23.8911  -52.0433 H         1 UNK         0.0600 
    209 H209       -2.0832  -23.9369  -50.2922 H         1 UNK         0.0600 
    210 H210       -2.5557  -27.3207  -49.5080 H         1 UNK         0.3000 
    211 H211       -4.4969  -28.3439  -49.2744 H         1 UNK         0.0600 
    212 H212       -4.4889  -28.6875  -52.3212 H         1 UNK         0.0600 
    213 H213       -5.4172  -29.6341  -51.1668 H         1 UNK         0.0600 
    214 H214       -3.6642  -29.7401  -51.1723 H         1 UNK         0.0600 
    215 H215       -4.6567  -25.6993  -49.0739 H         1 UNK         0.3000 
    216 H216       -6.0302  -24.0540  -48.7305 H         1 UNK         0.0600 
    217 H217       -7.7952  -25.7560  -48.2197 H         1 UNK         0.0600 
    218 H218       -8.3489  -25.6757  -49.8930 H         1 UNK         0.0600 
    219 H219       -8.4624  -24.2632  -48.8581 H         1 UNK         0.0600 
    220 H220       -5.0578  -24.8358  -51.7671 H         1 UNK         0.3000 
    221 H221       -6.5150  -23.0225  -53.4060 H         1 UNK         0.0600 
    222 H222       -3.6252  -23.9804  -53.7324 H         1 UNK         0.0600 
    223 H223       -5.0517  -24.8622  -54.2779 H         1 UNK         0.0600 
    224 H224       -4.6512  -23.3057  -54.9881 H         1 UNK         0.0600 
    225 H225       -4.1717  -22.4109  -50.9633 H         1 UNK         0.3000 
    226 H226       -3.1445  -19.8814  -51.7278 H         1 UNK         0.0600 
    227 H227       -2.1802  -21.2941  -49.9139 H         1 UNK         0.0600 
    228 H228       -2.5847  -19.6994  -49.3066 H         1 UNK         0.0600 
    229 H229       -3.6405  -21.0535  -48.9426 H         1 UNK         0.0600 
    230 H230       -6.3732  -20.7408  -50.7342 H         1 UNK         0.3000 
    231 H231       -7.2521  -18.1952  -49.7460 H         1 UNK         0.0600 
    232 H232       -9.5140  -19.1117  -50.2538 H         1 UNK         0.0600 
    233 H233       -8.5341  -20.3048  -49.4140 H         1 UNK         0.0600 
    234 H234       -8.7944  -20.4432  -51.1519 H         1 UNK         0.0600 
    235 H235       -6.6867  -19.4878  -52.9852 H         1 UNK         0.3000 
    236 H236       -7.6941  -17.0038  -54.2955 H         1 UNK         0.0600 
    237 H237       -8.4274  -19.1395  -55.3204 H         1 UNK         0.0600 
    238 H238       -7.3289  -18.2875  -56.3944 H         1 UNK         0.0600 
    239 H239       -6.7562  -19.6749  -55.4752 H         1 UNK         0.0600 
    240 H240       -4.8050  -19.0897  -53.8815 H         1 UNK         0.3000 
    241 H241       -2.6608  -18.7605  -53.9167 H         1 UNK         0.0600 
    242 H242       -3.0407  -18.3029  -57.7067 H         1 UNK         0.3800 
    243 H243       -4.2332  -18.8104  -56.5395 H         1 UNK         0.3800 
    244 H244       -3.3421  -16.5299  -52.5855 H         1 UNK         0.0800 
    245 H245       -2.7108  -15.7273  -53.9878 H         1 UNK         0.0800 
    246 H246       -1.6919  -16.2589  -50.5576 H         1 UNK         0.0800 
    247 H247       -2.0959  -17.9193  -50.9090 H         1 UNK         0.0800 
@<TRIPOS>BOND
     1    1    2 1    
     2    1  127 1    
     3    1  128 1    
     4    1  129 1    
     5    2    3 2    
     6    2    4 am   BACKBONE|DICT|INTERRES
     7    4    5 1    
     8    4  130 1    
     9    5    6 1    
    10    5   65 1    
    11    5  131 1    
    12    6    7 1    
    13    6  132 1    
    14    6  133 1    
    15    7    8 1    
    16    8    9 1    
    17    8  134 1    
    18    8  135 1    
    19    9   10 ar   
    20    9   14 ar   
    21   10   11 ar   
    22   10  136 1    
    23   11   12 ar   
    24   11  126 1    
    25   12   13 ar   
    26   12  137 1    
    27   13   14 ar   
    28   13   15 1    
    29   14  138 1    
    30   15   16 1    
    31   15  139 1    
    32   15  140 1    
    33   16   17 1    
    34   17   18 1    
    35   17  141 1    
    36   17  142 1    
    37   18   19 1    
    38   18   67 1    
    39   18  143 1    
    40   19   20 am   BACKBONE|DICT|INTERRES
    41   19  144 1    
    42   20   21 2    
    43   20   22 1    
    44   22   23 1    
    45   22   24 1    
    46   22  145 1    
    47   23  146 1    
    48   23  147 1    
    49   23  148 1    
    50   24   25 am   BACKBONE|DICT|INTERRES
    51   24  149 1    
    52   25   26 2    
    53   25   27 1    
    54   27   28 1    
    55   27   29 1    
    56   27  150 1    
    57   28  151 1    
    58   28  152 1    
    59   28  153 1    
    60   29   30 am   BACKBONE|DICT|INTERRES
    61   29  154 1    
    62   30   31 2    
    63   30   32 1    
    64   32   33 1    
    65   32   34 1    
    66   32  155 1    
    67   33  156 1    
    68   33  157 1    
    69   33  158 1    
    70   34   35 am   BACKBONE|DICT|INTERRES
    71   34  159 1    
    72   35   36 2    
    73   35   37 1    
    74   37   38 1    
    75   37   39 1    
    76   37  160 1    
    77   38  161 1    
    78   38  162 1    
    79   38  163 1    
    80   39   40 am   BACKBONE|DICT|INTERRES
    81   39  164 1    
    82   40   41 2    
    83   40   42 1    
    84   42   43 1    
    85   42   44 1    
    86   42  165 1    
    87   43  166 1    
    88   43  167 1    
    89   43  168 1    
    90   44   45 am   BACKBONE|DICT|INTERRES
    91   44  169 1    
    92   45   46 2    
    93   45   47 1    
    94   47   48 1    
    95   47   49 1    
    96   47  170 1    
    97   48  171 1    
    98   48  172 1    
    99   48  173 1    
   100   49   50 am   BACKBONE|DICT|INTERRES
   101   49  174 1    
   102   50   51 2    
   103   50   52 1    
   104   52   53 1    
   105   52   54 1    
   106   52  175 1    
   107   53  176 1    
   108   53  177 1    
   109   53  178 1    
   110   54   55 am   BACKBONE|DICT|INTERRES
   111   54  179 1    
   112   55   56 2    
   113   55   57 1    
   114   57   58 1    
   115   57   59 1    
   116   57  180 1    
   117   58  181 1    
   118   58  182 1    
   119   58  183 1    
   120   59   60 am   BACKBONE|DICT|INTERRES
   121   59  184 1    
   122   60   61 2    
   123   60   62 1    
   124   62   63 1    
   125   62   64 1    
   126   62  185 1    
   127   63  186 1    
   128   63  187 1    
   129   63  188 1    
   130   64   65 am   BACKBONE|DICT|INTERRES
   131   64  189 1    
   132   65   66 2    
   133   67   68 2    
   134   67   69 am   BACKBONE|DICT|INTERRES
   135   69   70 1    
   136   69  190 1    
   137   70   71 1    
   138   70   72 1    
   139   70  191 1    
   140   71  192 1    
   141   71  193 1    
   142   71  194 1    
   143   72   73 2    
   144   72   74 am   BACKBONE|DICT|INTERRES
   145   74   75 1    
   146   74  195 1    
   147   75   76 1    
   148   75   77 1    
   149   75  196 1    
   150   76  197 1    
   151   76  198 1    
   152   76  199 1    
   153   77   78 2    
   154   77   79 am   BACKBONE|DICT|INTERRES
   155   79   80 1    
   156   79  200 1    
   157   80   81 1    
   158   80   82 1    
   159   80  201 1    
   160   81  202 1    
   161   81  203 1    
   162   81  204 1    
   163   82   83 2    
   164   82   84 am   BACKBONE|DICT|INTERRES
   165   84   85 1    
   166   84  205 1    
   167   85   86 1    
   168   85   87 1    
   169   85  206 1    
   170   86  207 1    
   171   86  208 1    
   172   86  209 1    
   173   87   88 2    
   174   87   89 am   BACKBONE|DICT|INTERRES
   175   89   90 1    
   176   89  210 1    
   177   90   91 1    
   178   90   92 1    
   179   90  211 1    
   180   91  212 1    
   181   91  213 1    
   182   91  214 1    
   183   92   93 2    
   184   92   94 am   BACKBONE|DICT|INTERRES
   185   94   95 1    
   186   94  215 1    
   187   95   96 1    
   188   95   97 1    
   189   95  216 1    
   190   96  217 1    
   191   96  218 1    
   192   96  219 1    
   193   97   98 2    
   194   97   99 am   BACKBONE|DICT|INTERRES
   195   99  100 1    
   196   99  220 1    
   197  100  101 1    
   198  100  102 1    
   199  100  221 1    
   200  101  222 1    
   201  101  223 1    
   202  101  224 1    
   203  102  103 2    
   204  102  104 am   BACKBONE|DICT|INTERRES
   205  104  105 1    
   206  104  225 1    
   207  105  106 1    
   208  105  107 1    
   209  105  226 1    
   210  106  227 1    
   211  106  228 1    
   212  106  229 1    
   213  107  108 2    
   214  107  109 am   BACKBONE|DICT|INTERRES
   215  109  110 1    
   216  109  230 1    
   217  110  111 1    
   218  110  112 1    
   219  110  231 1    
   220  111  232 1    
   221  111  233 1    
   222  111  234 1    
   223  112  113 2    
   224  112  114 am   BACKBONE|DICT|INTERRES
   225  114  115 1    
   226  114  235 1    
   227  115  116 1    
   228  115  117 1    
   229  115  236 1    
   230  116  237 1    
   231  116  238 1    
   232  116  239 1    
   233  117  118 2    
   234  117  119 am   BACKBONE|DICT|INTERRES
   235  119  120 1    
   236  119  240 1    
   237  120  121 1    
   238  120  124 1    
   239  120  241 1    
   240  121  122 am   BACKBONE|DICT|INTERRES
   241  121  123 2    
   242  122  242 1    
   243  122  243 1    
   244  124  125 1    
   245  124  244 1    
   246  124  245 1    
   247  125  126 1    
   248  126  246 1    
   249  126  247 1    
@<TRIPOS>SUBSTRUCTURE
     1 UNK         1 GROUP             0       ****    0 ROOT    
