@<TRIPOS>MOLECULE
3R540
247   249    1
SMALL
USER_CHARGES


@<TRIPOS>ATOM
      1 CA          8.0328  -11.1900  -45.8382 C.3       0 UNK        -0.1800 
      2 C           6.7045  -11.8505  -46.1798 C.2       0 UNK         0.5000 
      3 O           5.8268  -11.9396  -45.3216 O.2       0 UNK        -0.5000 
      4 N           6.5580  -12.3201  -47.4250 N.am      1 UNK        -0.5000 
      5 CA          5.3325  -12.9210  -47.9553 C.3       1 UNK         0.1400 
      6 C6          5.6266  -13.7308  -49.2462 C.3       23 UNK        -0.0398 
      7 S7          4.1788  -14.3894  -50.1495 S.3       23 UNK        -0.2404 
      8 C8          3.5452  -15.6586  -49.0085 C.3       23 UNK        -0.0205 
      9 C9          2.5432  -16.5676  -49.7064 C.ar      23 UNK        -0.0193 
     10 C10         1.3095  -16.0656  -50.1335 C.ar      23 UNK        -0.1150 
     11 C11         0.3953  -16.8875  -50.8012 C.ar      23 UNK        -0.0193 
     12 C12         0.7199  -18.2284  -51.0290 C.ar      23 UNK        -0.1150 
     13 C13         1.9550  -18.7401  -50.6176 C.ar      23 UNK        -0.0193 
     14 C14         2.8583  -17.9069  -49.9514 C.ar      23 UNK        -0.1150 
     15 C15         2.3430  -20.1756  -50.9431 C.3       23 UNK        -0.0205 
     16 S16         2.3003  -21.2545  -49.4804 S.3       23 UNK        -0.2404 
     17 C17         0.5098  -21.3305  -49.1645 C.3       23 UNK        -0.0398 
     18 CA          0.1428  -22.4664  -48.1824 C.3       11 UNK         0.1400 
     19 N           0.6208  -22.2247  -46.8169 N.am      11 UNK        -0.5000 
     20 C           0.5300  -23.1107  -45.8137 C.2       10 UNK         0.5000 
     21 O           0.0920  -24.2531  -45.9482 O.2       10 UNK        -0.5000 
     22 CA          0.9358  -22.6259  -44.4113 C.3       10 UNK         0.1400 
     23 CB          2.4618  -22.6433  -44.2388 C.3       10 UNK        -0.1800 
     24 N           0.4099  -21.2944  -44.1089 N.am      10 UNK        -0.5000 
     25 C          -0.8948  -20.9994  -44.0113 C.2       9 UNK         0.5000 
     26 O          -1.7918  -21.8375  -44.1079 O.2       9 UNK        -0.5000 
     27 CA         -1.2631  -19.5155  -43.8192 C.3       9 UNK         0.1400 
     28 CB         -1.1209  -19.0984  -42.3483 C.3       9 UNK        -0.1800 
     29 N          -0.4672  -18.6232  -44.6625 N.am      9 UNK        -0.5000 
     30 C          -0.4891  -18.6278  -46.0031 C.2       8 UNK         0.5000 
     31 O          -1.2242  -19.3489  -46.6763 O.2       8 UNK        -0.5000 
     32 CA          0.5187  -17.7114  -46.7131 C.3       8 UNK         0.1400 
     33 CB         -0.0116  -16.2769  -46.7932 C.3       8 UNK        -0.1800 
     34 N           1.8282  -17.7126  -46.0629 N.am      8 UNK        -0.5000 
     35 C           2.6360  -18.7797  -45.9990 C.2       7 UNK         0.5000 
     36 O           2.3650  -19.8735  -46.4897 O.2       7 UNK        -0.5000 
     37 CA          3.9384  -18.6074  -45.1983 C.3       7 UNK         0.1400 
     38 CB          4.9719  -17.8061  -46.0056 C.3       7 UNK        -0.1800 
     39 N           3.7133  -17.9517  -43.9097 N.am      7 UNK        -0.5000 
     40 C           2.9687  -18.4569  -42.9147 C.2       6 UNK         0.5000 
     41 O           2.4442  -19.5687  -42.9494 O.2       6 UNK        -0.5000 
     42 CA          2.7282  -17.5447  -41.6963 C.3       6 UNK         0.1400 
     43 CB          3.8211  -17.7576  -40.6387 C.3       6 UNK        -0.1800 
     44 N           2.6610  -16.1230  -42.0469 N.am      6 UNK        -0.5000 
     45 C           1.7406  -15.5816  -42.8559 C.2       5 UNK         0.5000 
     46 O           0.8310  -16.2272  -43.3832 O.2       5 UNK        -0.5000 
     47 CA          1.9330  -14.0902  -43.1823 C.3       5 UNK         0.1400 
     48 CB          3.0237  -13.9248  -44.2546 C.3       5 UNK        -0.1800 
     49 N           0.6989  -13.4523  -43.6449 N.am      5 UNK        -0.5000 
     50 C          -0.3309  -13.1361  -42.8448 C.2       4 UNK         0.5000 
     51 O          -0.3369  -13.3702  -41.6347 O.2       4 UNK        -0.5000 
     52 CA         -1.5408  -12.4001  -43.4609 C.3       4 UNK         0.1400 
     53 CB         -1.6775  -10.9924  -42.8563 C.3       4 UNK        -0.1800 
     54 N          -1.4591  -12.2641  -44.9149 N.am      4 UNK        -0.5000 
     55 C          -1.9667  -13.1310  -45.7999 C.2       3 UNK         0.5000 
     56 O          -2.6132  -14.1297  -45.4838 O.2       3 UNK        -0.5000 
     57 CA         -1.7000  -12.8416  -47.2941 C.3       3 UNK         0.1400 
     58 CB         -2.9427  -12.2298  -47.9580 C.3       3 UNK        -0.1800 
     59 N          -0.5376  -11.9830  -47.5665 N.am      3 UNK        -0.5000 
     60 C           0.7200  -12.2976  -47.2361 C.2       2 UNK         0.5000 
     61 O           1.0127  -13.3001  -46.5812 O.2       2 UNK        -0.5000 
     62 CA          1.8372  -11.3371  -47.6642 C.3       2 UNK         0.1400 
     63 CB          1.9056  -10.1164  -46.7296 C.3       2 UNK        -0.1800 
     64 N           3.0707  -12.1041  -47.5819 N.am      2 UNK        -0.5000 
     65 C           4.2493  -11.8358  -48.1436 C.2       1 UNK         0.5000 
     66 O           4.4969  -10.8152  -48.7905 O.2       1 UNK        -0.5000 
     67 C          -1.3730  -22.7331  -48.2150 C.2       11 UNK         0.5000 
     68 O          -1.7960  -23.6968  -48.8527 O.2       11 UNK        -0.5000 
     69 N          -2.1576  -21.9045  -47.5094 N.am      12 UNK        -0.5000 
     70 CA         -3.6085  -22.0434  -47.3807 C.3       12 UNK         0.1400 
     71 CB         -4.1895  -20.8539  -46.6045 C.3       12 UNK        -0.1800 
     72 C          -4.0318  -23.3804  -46.7520 C.2       12 UNK         0.5000 
     73 O          -4.9696  -24.0034  -47.2471 O.2       12 UNK        -0.5000 
     74 N          -3.3105  -23.8201  -45.7133 N.am      13 UNK        -0.5000 
     75 CA         -3.4962  -25.1261  -45.0844 C.3       13 UNK         0.1400 
     76 CB         -2.6871  -25.1859  -43.7797 C.3       13 UNK        -0.1800 
     77 C          -3.1243  -26.2940  -46.0190 C.2       13 UNK         0.5000 
     78 O          -3.8778  -27.2644  -46.1042 O.2       13 UNK        -0.5000 
     79 N          -1.9771  -26.1796  -46.7021 N.am      14 UNK        -0.5000 
     80 CA         -1.4293  -27.2091  -47.5858 C.3       14 UNK         0.1400 
     81 CB          0.0313  -26.8698  -47.9211 C.3       14 UNK        -0.1800 
     82 C          -2.2420  -27.4164  -48.8764 C.2       14 UNK         0.5000 
     83 O          -2.4960  -28.5620  -49.2508 O.2       14 UNK        -0.5000 
     84 N          -2.6244  -26.3150  -49.5345 N.am      15 UNK        -0.5000 
     85 CA         -3.2891  -26.3054  -50.8406 C.3       15 UNK         0.1400 
     86 CB         -2.4842  -25.4155  -51.8050 C.3       15 UNK        -0.1800 
     87 C          -4.7809  -25.9239  -50.7468 C.2       15 UNK         0.5000 
     88 O          -5.3593  -25.4656  -51.7339 O.2       15 UNK        -0.5000 
     89 N          -5.3841  -26.1524  -49.5697 N.am      16 UNK        -0.5000 
     90 CA         -6.8224  -26.0955  -49.2711 C.3       16 UNK         0.1400 
     91 CB         -7.5300  -27.3137  -49.8991 C.3       16 UNK        -0.1800 
     92 C          -7.5008  -24.7603  -49.6481 C.2       16 UNK         0.5000 
     93 O          -8.6260  -24.7555  -50.1525 O.2       16 UNK        -0.5000 
     94 N          -6.7848  -23.6553  -49.4057 N.am      17 UNK        -0.5000 
     95 CA         -7.1104  -22.2474  -49.6583 C.3       17 UNK         0.1400 
     96 CB         -8.3110  -21.7954  -48.8079 C.3       17 UNK        -0.1800 
     97 C          -7.3065  -21.8632  -51.1395 C.2       17 UNK         0.5000 
     98 O          -6.7375  -20.8625  -51.5784 O.2       17 UNK        -0.5000 
     99 N          -8.1025  -22.6453  -51.8762 N.am      18 UNK        -0.5000 
    100 CA        -8.5128  -22.3968  -53.2568 C.3       18 UNK         0.1400 
    101 CB        -9.5919  -23.4147  -53.6571 C.3       18 UNK        -0.1800 
    102 C         -7.3405  -22.4185  -54.2500 C.2       18 UNK         0.5000 
    103 O         -7.1862  -21.4745  -55.0256 O.2       18 UNK        -0.5000 
    104 N         -6.5173  -23.4746  -54.1889 N.am      19 UNK        -0.5000 
    105 CA        -5.3226  -23.6163  -55.0265 C.3       19 UNK         0.1400 
    106 CB        -4.9828  -25.1052  -55.1944 C.3       19 UNK        -0.1800 
    107 C         -4.1238  -22.8196  -54.4769 C.2       19 UNK         0.5000 
    108 O         -3.1849  -22.5459  -55.2250 O.2       19 UNK        -0.5000 
    109 N         -4.1843  -22.4416  -53.1924 N.am      20 UNK        -0.5000 
    110 CA        -3.2005  -21.5893  -52.5266 C.3       20 UNK         0.1400 
    111 CB        -3.4046  -21.6827  -51.0084 C.3       20 UNK        -0.1800 
    112 C         -3.3101  -20.1112  -52.9350 C.2       20 UNK         0.5000 
    113 O         -2.3401  -19.3738  -52.7688 O.2       20 UNK        -0.5000 
    114 N         -4.5107  -19.6886  -53.3601 N.am      21 UNK        -0.5000 
    115 CA        -4.9794  -18.3172  -53.6069 C.3       21 UNK         0.1400 
    116 CB        -4.1022  -17.5808  -54.6373 C.3       21 UNK        -0.1800 
    117 C         -5.1570  -17.4873  -52.3175 C.2       21 UNK         0.5000 
    118 O         -6.1313  -16.7428  -52.2071 O.2       21 UNK        -0.5000 
    119 N         -4.2417  -17.6562  -51.3575 N.am      22 UNK        -0.5000 
    120 CA        -4.2859  -17.0885  -50.0019 C.3       22 UNK         0.1400 
    121 C         -5.2633  -17.8121  -49.0266 C.2       22 UNK         0.5000 
    122 N         -5.9685  -18.8650  -49.4198 N.am      22 UNK        -0.7600 
    123 O         -5.4076  -17.3925  -47.8823 O.2       22 UNK        -0.5000 
    124 C124       -2.8584  -16.9699  -49.4024 C.3       23 UNK        -0.0398 
    125 S125       -1.9575  -15.5424  -50.0936 S.3       23 UNK        -0.2404 
    126 C126       -0.8964  -16.3041  -51.3607 C.3       23 UNK        -0.0205 
    127 H127        8.5105  -11.7139  -45.0103 H         1 UNK         0.0600 
    128 H128        7.8702  -10.1545  -45.5393 H         1 UNK         0.0600 
    129 H129        8.7190  -11.1957  -46.6854 H         1 UNK         0.0600 
    130 H130        7.3059  -12.1874  -48.0906 H         1 UNK         0.3000 
    131 H131        4.9737  -13.6328  -47.2079 H         1 UNK         0.0600 
    132 H132        6.2920  -14.5634  -49.0136 H         1 UNK         0.0800 
    133 H133        6.1746  -13.1044  -49.9521 H         1 UNK         0.0800 
    134 H134        4.3806  -16.2412  -48.6184 H         1 UNK         0.0800 
    135 H135        3.0659  -15.1812  -48.1529 H         1 UNK         0.0800 
    136 H136        1.0706  -15.0244  -49.9670 H         1 UNK         0.1150 
    137 H137        0.0276  -18.8643  -51.5629 H         1 UNK         0.1150 
    138 H138        3.8143  -18.3026  -49.6384 H         1 UNK         0.1150 
    139 H139        1.6969  -20.5869  -51.7202 H         1 UNK         0.0800 
    140 H140        3.3533  -20.1862  -51.3545 H         1 UNK         0.0800 
    141 H141        0.0116  -21.4777  -50.1248 H         1 UNK         0.0800 
    142 H142        0.1747  -20.3635  -48.7866 H         1 UNK         0.0800 
    143 H143        0.6264  -23.3809  -48.5328 H         1 UNK         0.0600 
    144 H144        1.0531  -21.3218  -46.6403 H         1 UNK         0.3000 
    145 H145        0.5089  -23.3219  -43.6862 H         1 UNK         0.0600 
    146 H146        2.8657  -23.6356  -44.4431 H         1 UNK         0.0600 
    147 H147        2.9546  -21.9434  -44.9132 H         1 UNK         0.0600 
    148 H148        2.7452  -22.3802  -43.2196 H         1 UNK         0.0600 
    149 H149        1.0944  -20.5586  -43.9621 H         1 UNK         0.3000 
    150 H150       -2.3094  -19.3925  -44.1058 H         1 UNK         0.0600 
    151 H151       -1.4045  -18.0556  -42.2038 H         1 UNK         0.0600 
    152 H152       -0.0986  -19.2198  -41.9916 H         1 UNK         0.0600 
    153 H153       -1.7644  -19.7040  -41.7090 H         1 UNK         0.0600 
    154 H154        0.1358  -17.9566  -44.1909 H         1 UNK         0.3000 
    155 H155        0.6440  -18.0842  -47.7319 H         1 UNK         0.0600 
    156 H156       -1.0171  -16.2499  -47.2069 H         1 UNK         0.0600 
    157 H157        0.6179  -15.6697  -47.4400 H         1 UNK         0.0600 
    158 H158       -0.0535  -15.7978  -45.8155 H         1 UNK         0.0600 
    159 H159        2.0869  -16.8716  -45.5707 H         1 UNK         0.3000 
    160 H160        4.3471  -19.6019  -45.0069 H         1 UNK         0.0600 
    161 H161        5.1417  -18.2609  -46.9826 H         1 UNK         0.0600 
    162 H162        5.9328  -17.7741  -45.4918 H         1 UNK         0.0600 
    163 H163        4.6474  -16.7783  -46.1720 H         1 UNK         0.0600 
    164 H164        4.1145  -17.0344  -43.7875 H         1 UNK         0.3000 
    165 H165        1.7689  -17.8251  -41.2571 H         1 UNK         0.0600 
    166 H166        3.6170  -17.1784  -39.7380 H         1 UNK         0.0600 
    167 H167        3.8782  -18.8061  -40.3429 H         1 UNK         0.0600 
    168 H168        4.8046  -17.4674  -41.0103 H         1 UNK         0.0600 
    169 H169        3.3809  -15.5311  -41.6578 H         1 UNK         0.3000 
    170 H170        2.2612  -13.5760  -42.2764 H         1 UNK         0.0600 
    171 H171        3.1271  -12.8826  -44.5582 H         1 UNK         0.0600 
    172 H172        3.9961  -14.2458  -43.8796 H         1 UNK         0.0600 
    173 H173        2.8089  -14.5163  -45.1449 H         1 UNK         0.0600 
    174 H174        0.6190  -13.3055  -44.6456 H         1 UNK         0.3000 
    175 H175       -2.4343  -12.9688  -43.1949 H         1 UNK         0.0600 
    176 H176       -0.8031  -10.3762  -43.0698 H         1 UNK         0.0600 
    177 H177       -2.5549  -10.4783  -43.2491 H         1 UNK         0.0600 
    178 H178       -1.7900  -11.0384  -41.7722 H         1 UNK         0.0600 
    179 H179       -0.9399  -11.4735  -45.2668 H         1 UNK         0.3000 
    180 H180       -1.5052  -13.8053  -47.7661 H         1 UNK         0.0600 
    181 H181       -2.8054  -12.1307  -49.0350 H         1 UNK         0.0600 
    182 H182       -3.1702  -11.2431  -47.5529 H         1 UNK         0.0600 
    183 H183       -3.8193  -12.8603  -47.8026 H         1 UNK         0.0600 
    184 H184       -0.7151  -11.1356  -48.0865 H         1 UNK         0.3000 
    185 H185        1.6682  -11.0229  -48.6959 H         1 UNK         0.0600 
    186 H186        2.0709  -10.4142  -45.6931 H         1 UNK         0.0600 
    187 H187        2.7139   -9.4431  -47.0153 H         1 UNK         0.0600 
    188 H188        0.9794   -9.5419  -46.7648 H         1 UNK         0.0600 
    189 H189        2.9368  -12.9724  -47.0773 H         1 UNK         0.3000 
    190 H190       -1.7386  -21.1009  -47.0462 H         1 UNK         0.3000 
    191 H191       -4.0289  -22.0156  -48.3844 H         1 UNK         0.0600 
    192 H192       -3.8060  -20.8096  -45.5856 H         1 UNK         0.0600 
    193 H193       -5.2765  -20.9200  -46.5449 H         1 UNK         0.0600 
    194 H194       -3.9486  -19.9098  -47.0932 H         1 UNK         0.0600 
    195 H195       -2.5823  -23.2230  -45.3333 H         1 UNK         0.3000 
    196 H196       -4.5533  -25.2284  -44.8298 H         1 UNK         0.0600 
    197 H197       -2.8253  -26.1442  -43.2776 H         1 UNK         0.0600 
    198 H198       -3.0016  -24.4058  -43.0862 H         1 UNK         0.0600 
    199 H199       -1.6192  -25.0596  -43.9597 H         1 UNK         0.0600 
    200 H200       -1.3961  -25.3597  -46.5499 H         1 UNK         0.3000 
    201 H201       -1.4346  -28.1542  -47.0386 H         1 UNK         0.0600 
    202 H202        0.6420  -26.8250  -47.0192 H         1 UNK         0.0600 
    203 H203        0.1142  -25.9080  -48.4285 H         1 UNK         0.0600 
    204 H204        0.4703  -27.6257  -48.5736 H         1 UNK         0.0600 
    205 H205       -2.3699  -25.4020  -49.1586 H         1 UNK         0.3000 
    206 H206       -3.2823  -27.3093  -51.2689 H         1 UNK         0.0600 
    207 H207       -2.9574  -25.3452  -52.7836 H         1 UNK         0.0600 
    208 H208       -2.3605  -24.4057  -51.4226 H         1 UNK         0.0600 
    209 H209       -1.4867  -25.8250  -51.9634 H         1 UNK         0.0600 
    210 H210       -4.7975  -26.4702  -48.8105 H         1 UNK         0.3000 
    211 H211       -6.9117  -26.1820  -48.1872 H         1 UNK         0.0600 
    212 H212       -7.5078  -27.2732  -50.9888 H         1 UNK         0.0600 
    213 H213       -8.5756  -27.3634  -49.5929 H         1 UNK         0.0600 
    214 H214       -7.0590  -28.2464  -49.5887 H         1 UNK         0.0600 
    215 H215       -5.9080  -23.8089  -48.9158 H         1 UNK         0.3000 
    216 H216       -6.2425  -21.6893  -49.3083 H         1 UNK         0.0600 
    217 H217       -8.5106  -20.7320  -48.9455 H         1 UNK         0.0600 
    218 H218       -8.1223  -21.9567  -47.7464 H         1 UNK         0.0600 
    219 H219       -9.2227  -22.3323  -49.0712 H         1 UNK         0.0600 
    220 H220       -8.4945  -23.4641  -51.4154 H         1 UNK         0.3000 
    221 H221       -8.9577  -21.4002  -53.2938 H         1 UNK         0.0600 
    222 H222       -9.2271  -24.4401  -53.5845 H         1 UNK         0.0600 
    223 H223      -10.4703  -23.3277  -53.0173 H         1 UNK         0.0600 
    224 H224       -9.9211  -23.2533  -54.6845 H         1 UNK         0.0600 
    225 H225       -6.6808  -24.1967  -53.4991 H         1 UNK         0.3000 
    226 H226       -5.5394  -23.2192  -56.0207 H         1 UNK         0.0600 
    227 H227       -5.8005  -25.6411  -55.6765 H         1 UNK         0.0600 
    228 H228       -4.0975  -25.2363  -55.8179 H         1 UNK         0.0600 
    229 H229       -4.7853  -25.5907  -54.2408 H         1 UNK         0.0600 
    230 H230       -4.9887  -22.7242  -52.6523 H         1 UNK         0.3000 
    231 H231       -2.1997  -21.9501  -52.7729 H         1 UNK         0.0600 
    232 H232       -4.2774  -21.1198  -50.6805 H         1 UNK         0.0600 
    233 H233       -3.5375  -22.7089  -50.6721 H         1 UNK         0.0600 
    234 H234       -2.5453  -21.2657  -50.4836 H         1 UNK         0.0600 
    235 H235       -5.2468  -20.3828  -53.3803 H         1 UNK         0.3000 
    236 H236       -5.9729  -18.4286  -54.0445 H         1 UNK         0.0600 
    237 H237       -3.1061  -17.3648  -54.2504 H         1 UNK         0.0600 
    238 H238       -3.9898  -18.1664  -55.5497 H         1 UNK         0.0600 
    239 H239       -4.5529  -16.6274  -54.9152 H         1 UNK         0.0600 
    240 H240       -3.4599  -18.2655  -51.5690 H         1 UNK         0.3000 
    241 H241       -4.6939  -16.0793  -50.0854 H         1 UNK         0.0600 
    242 H242       -6.6127  -19.2694  -48.7622 H         1 UNK         0.3800 
    243 H243       -5.9339  -19.2099  -50.3690 H         1 UNK         0.3800 
    244 H244       -2.9046  -16.8093  -48.3247 H         1 UNK         0.0800 
    245 H245       -2.2876  -17.8897  -49.5421 H         1 UNK         0.0800 
    246 H246       -0.6331  -15.5372  -52.0900 H         1 UNK         0.0800 
    247 H247       -1.4651  -17.0542  -51.9093 H         1 UNK         0.0800 
@<TRIPOS>BOND
     1    1    2 1    
     2    1  127 1    
     3    1  128 1    
     4    1  129 1    
     5    2    3 2    
     6    2    4 am   BACKBONE|DICT|INTERRES
     7    4    5 1    
     8    4  130 1    
     9    5    6 1    
    10    5   65 1    
    11    5  131 1    
    12    6    7 1    
    13    6  132 1    
    14    6  133 1    
    15    7    8 1    
    16    8    9 1    
    17    8  134 1    
    18    8  135 1    
    19    9   10 ar   
    20    9   14 ar   
    21   10   11 ar   
    22   10  136 1    
    23   11   12 ar   
    24   11  126 1    
    25   12   13 ar   
    26   12  137 1    
    27   13   14 ar   
    28   13   15 1    
    29   14  138 1    
    30   15   16 1    
    31   15  139 1    
    32   15  140 1    
    33   16   17 1    
    34   17   18 1    
    35   17  141 1    
    36   17  142 1    
    37   18   19 1    
    38   18   67 1    
    39   18  143 1    
    40   19   20 am   BACKBONE|DICT|INTERRES
    41   19  144 1    
    42   20   21 2    
    43   20   22 1    
    44   22   23 1    
    45   22   24 1    
    46   22  145 1    
    47   23  146 1    
    48   23  147 1    
    49   23  148 1    
    50   24   25 am   BACKBONE|DICT|INTERRES
    51   24  149 1    
    52   25   26 2    
    53   25   27 1    
    54   27   28 1    
    55   27   29 1    
    56   27  150 1    
    57   28  151 1    
    58   28  152 1    
    59   28  153 1    
    60   29   30 am   BACKBONE|DICT|INTERRES
    61   29  154 1    
    62   30   31 2    
    63   30   32 1    
    64   32   33 1    
    65   32   34 1    
    66   32  155 1    
    67   33  156 1    
    68   33  157 1    
    69   33  158 1    
    70   34   35 am   BACKBONE|DICT|INTERRES
    71   34  159 1    
    72   35   36 2    
    73   35   37 1    
    74   37   38 1    
    75   37   39 1    
    76   37  160 1    
    77   38  161 1    
    78   38  162 1    
    79   38  163 1    
    80   39   40 am   BACKBONE|DICT|INTERRES
    81   39  164 1    
    82   40   41 2    
    83   40   42 1    
    84   42   43 1    
    85   42   44 1    
    86   42  165 1    
    87   43  166 1    
    88   43  167 1    
    89   43  168 1    
    90   44   45 am   BACKBONE|DICT|INTERRES
    91   44  169 1    
    92   45   46 2    
    93   45   47 1    
    94   47   48 1    
    95   47   49 1    
    96   47  170 1    
    97   48  171 1    
    98   48  172 1    
    99   48  173 1    
   100   49   50 am   BACKBONE|DICT|INTERRES
   101   49  174 1    
   102   50   51 2    
   103   50   52 1    
   104   52   53 1    
   105   52   54 1    
   106   52  175 1    
   107   53  176 1    
   108   53  177 1    
   109   53  178 1    
   110   54   55 am   BACKBONE|DICT|INTERRES
   111   54  179 1    
   112   55   56 2    
   113   55   57 1    
   114   57   58 1    
   115   57   59 1    
   116   57  180 1    
   117   58  181 1    
   118   58  182 1    
   119   58  183 1    
   120   59   60 am   BACKBONE|DICT|INTERRES
   121   59  184 1    
   122   60   61 2    
   123   60   62 1    
   124   62   63 1    
   125   62   64 1    
   126   62  185 1    
   127   63  186 1    
   128   63  187 1    
   129   63  188 1    
   130   64   65 am   BACKBONE|DICT|INTERRES
   131   64  189 1    
   132   65   66 2    
   133   67   68 2    
   134   67   69 am   BACKBONE|DICT|INTERRES
   135   69   70 1    
   136   69  190 1    
   137   70   71 1    
   138   70   72 1    
   139   70  191 1    
   140   71  192 1    
   141   71  193 1    
   142   71  194 1    
   143   72   73 2    
   144   72   74 am   BACKBONE|DICT|INTERRES
   145   74   75 1    
   146   74  195 1    
   147   75   76 1    
   148   75   77 1    
   149   75  196 1    
   150   76  197 1    
   151   76  198 1    
   152   76  199 1    
   153   77   78 2    
   154   77   79 am   BACKBONE|DICT|INTERRES
   155   79   80 1    
   156   79  200 1    
   157   80   81 1    
   158   80   82 1    
   159   80  201 1    
   160   81  202 1    
   161   81  203 1    
   162   81  204 1    
   163   82   83 2    
   164   82   84 am   BACKBONE|DICT|INTERRES
   165   84   85 1    
   166   84  205 1    
   167   85   86 1    
   168   85   87 1    
   169   85  206 1    
   170   86  207 1    
   171   86  208 1    
   172   86  209 1    
   173   87   88 2    
   174   87   89 am   BACKBONE|DICT|INTERRES
   175   89   90 1    
   176   89  210 1    
   177   90   91 1    
   178   90   92 1    
   179   90  211 1    
   180   91  212 1    
   181   91  213 1    
   182   91  214 1    
   183   92   93 2    
   184   92   94 am   BACKBONE|DICT|INTERRES
   185   94   95 1    
   186   94  215 1    
   187   95   96 1    
   188   95   97 1    
   189   95  216 1    
   190   96  217 1    
   191   96  218 1    
   192   96  219 1    
   193   97   98 2    
   194   97   99 am   BACKBONE|DICT|INTERRES
   195   99  100 1    
   196   99  220 1    
   197  100  101 1    
   198  100  102 1    
   199  100  221 1    
   200  101  222 1    
   201  101  223 1    
   202  101  224 1    
   203  102  103 2    
   204  102  104 am   BACKBONE|DICT|INTERRES
   205  104  105 1    
   206  104  225 1    
   207  105  106 1    
   208  105  107 1    
   209  105  226 1    
   210  106  227 1    
   211  106  228 1    
   212  106  229 1    
   213  107  108 2    
   214  107  109 am   BACKBONE|DICT|INTERRES
   215  109  110 1    
   216  109  230 1    
   217  110  111 1    
   218  110  112 1    
   219  110  231 1    
   220  111  232 1    
   221  111  233 1    
   222  111  234 1    
   223  112  113 2    
   224  112  114 am   BACKBONE|DICT|INTERRES
   225  114  115 1    
   226  114  235 1    
   227  115  116 1    
   228  115  117 1    
   229  115  236 1    
   230  116  237 1    
   231  116  238 1    
   232  116  239 1    
   233  117  118 2    
   234  117  119 am   BACKBONE|DICT|INTERRES
   235  119  120 1    
   236  119  240 1    
   237  120  121 1    
   238  120  124 1    
   239  120  241 1    
   240  121  122 am   BACKBONE|DICT|INTERRES
   241  121  123 2    
   242  122  242 1    
   243  122  243 1    
   244  124  125 1    
   245  124  244 1    
   246  124  245 1    
   247  125  126 1    
   248  126  246 1    
   249  126  247 1    
@<TRIPOS>SUBSTRUCTURE
     1 UNK         1 GROUP             0       ****    0 ROOT    
