@<TRIPOS>MOLECULE
3R540
247   249    1
SMALL
USER_CHARGES


@<TRIPOS>ATOM
      1 CA          5.2234   -8.6815  -48.7524 C.3       0 UNK        -0.1800 
      2 C           5.5336  -10.1419  -49.0488 C.2       0 UNK         0.5000 
      3 O           6.6853  -10.4807  -49.3219 O.2       0 UNK        -0.5000 
      4 N           4.5112  -11.0053  -48.9974 N.am      1 UNK        -0.5000 
      5 CA          4.6115  -12.4515  -49.2446 C.3       1 UNK         0.1400 
      6 C6          3.2195  -13.1046  -49.4281 C.3       23 UNK        -0.0398 
      7 S7          2.2618  -12.3611  -50.7933 S.3       23 UNK        -0.2404 
      8 C8          2.0138  -13.7871  -51.9007 C.3       23 UNK        -0.0205 
      9 C9          1.1494  -14.8730  -51.2718 C.ar      23 UNK        -0.0193 
     10 C10        -0.1619  -14.5910  -50.8793 C.ar      23 UNK        -0.1150 
     11 C11        -0.9642  -15.5839  -50.3121 C.ar      23 UNK        -0.0193 
     12 C12        -0.4471  -16.8718  -50.1476 C.ar      23 UNK        -0.1150 
     13 C13         0.8566  -17.1773  -50.5530 C.ar      23 UNK        -0.0193 
     14 C14         1.6511  -16.1674  -51.1059 C.ar      23 UNK        -0.1150 
     15 C15         1.4017  -18.5988  -50.4516 C.3       23 UNK        -0.0205 
     16 S16         1.2784  -19.3012  -48.7737 S.3       23 UNK        -0.2404 
     17 C17        -0.3561  -20.1148  -48.8170 C.3       23 UNK        -0.0398 
     18 CA         -0.3349  -21.4979  -48.1270 C.3       11 UNK         0.1400 
     19 N          -0.1087  -21.3990  -46.6813 N.am      11 UNK        -0.5000 
     20 C           0.0719  -22.4400  -45.8565 C.2       10 UNK         0.5000 
     21 O           0.1439  -23.6079  -46.2358 O.2       10 UNK        -0.5000 
     22 CA          0.1107  -22.1339  -44.3485 C.3       10 UNK         0.1400 
     23 CB          1.5077  -21.6739  -43.9050 C.3       10 UNK        -0.1800 
     24 N          -0.8932  -21.1378  -43.9703 N.am      10 UNK        -0.5000 
     25 C          -2.2160  -21.3569  -44.0010 C.2       9 UNK         0.5000 
     26 O          -2.7196  -22.4419  -44.2886 O.2       9 UNK        -0.5000 
     27 CA         -3.1312  -20.1548  -43.7101 C.3       9 UNK         0.1400 
     28 CB         -3.3767  -20.0065  -42.2015 C.3       9 UNK        -0.1800 
     29 N          -2.5893  -18.9080  -44.2508 N.am      9 UNK        -0.5000 
     30 C          -2.5387  -18.6198  -45.5604 C.2       8 UNK         0.5000 
     31 O          -2.9834  -19.3608  -46.4370 O.2       8 UNK        -0.5000 
     32 CA         -1.8261  -17.3136  -45.9647 C.3       8 UNK         0.1400 
     33 CB         -2.8188  -16.1430  -45.9772 C.3       8 UNK        -0.1800 
     34 N          -0.6934  -16.9848  -45.0960 N.am      8 UNK        -0.5000 
     35 C           0.3892  -17.7639  -44.9431 C.2       7 UNK         0.5000 
     36 O           0.5493  -18.8187  -45.5532 O.2       7 UNK        -0.5000 
     37 CA          1.4412  -17.3440  -43.8978 C.3       7 UNK         0.1400 
     38 CB          2.5911  -16.5907  -44.5761 C.3       7 UNK        -0.1800 
     39 N           0.9050  -16.5206  -42.8137 N.am      7 UNK        -0.5000 
     40 C          -0.0758  -16.8872  -41.9750 C.2       6 UNK         0.5000 
     41 O          -0.5857  -18.0078  -41.9773 O.2       6 UNK        -0.5000 
     42 CA         -0.6205  -15.8111  -41.0132 C.3       6 UNK         0.1400 
     43 CB         -0.0315  -16.0035  -39.6079 C.3       6 UNK        -0.1800 
     44 N          -0.3710  -14.4321  -41.4457 N.am      6 UNK        -0.5000 
     45 C          -0.7658  -13.8790  -42.6029 C.2       5 UNK         0.5000 
     46 O          -1.4269  -14.4769  -43.4524 O.2       5 UNK        -0.5000 
     47 CA         -0.3124  -12.4313  -42.8782 C.3       5 UNK         0.1400 
     48 CB         -1.4778  -11.4548  -42.6582 C.3       5 UNK        -0.1800 
     49 N           0.8318  -11.9978  -42.0677 N.am      5 UNK        -0.5000 
     50 C           2.0750  -12.4878  -42.1618 C.2       4 UNK         0.5000 
     51 O           2.4021  -13.3969  -42.9295 O.2       4 UNK        -0.5000 
     52 CA          3.1089  -11.8910  -41.1992 C.3       4 UNK         0.1400 
     53 CB          3.0726  -12.6139  -39.8415 C.3       4 UNK        -0.1800 
     54 N           4.4379  -12.0168  -41.7859 N.am      4 UNK        -0.5000 
     55 C           5.4472  -11.1560  -41.6079 C.2       3 UNK         0.5000 
     56 O           5.3748  -10.1672  -40.8764 O.2       3 UNK        -0.5000 
     57 CA          6.7651  -11.4345  -42.3619 C.3       3 UNK         0.1400 
     58 CB          7.8211  -12.0029  -41.4005 C.3       3 UNK        -0.1800 
     59 N           6.6262  -12.3478  -43.5001 N.am      3 UNK        -0.5000 
     60 C           6.0007  -12.0543  -44.6466 C.2       2 UNK         0.5000 
     61 O           5.4675  -10.9650  -44.8787 O.2       2 UNK        -0.5000 
     62 CA          5.9514  -13.1749  -45.6967 C.3       2 UNK         0.1400 
     63 CB          5.1465  -14.3833  -45.1833 C.3       2 UNK        -0.1800 
     64 N           5.3348  -12.6483  -46.9072 N.am      2 UNK        -0.5000 
     65 C           5.3842  -13.1889  -48.1292 C.2       1 UNK         0.5000 
     66 O           5.9941  -14.2256  -48.3951 O.2       1 UNK        -0.5000 
     67 C          -1.6214  -22.2854  -48.4483 C.2       11 UNK         0.5000 
     68 O          -1.5855  -23.1727  -49.3000 O.2       11 UNK        -0.5000 
     69 N          -2.7198  -21.9854  -47.7386 N.am      12 UNK        -0.5000 
     70 CA         -3.9907  -22.7039  -47.8496 C.3       12 UNK         0.1400 
     71 CB         -5.0728  -21.9843  -47.0327 C.3       12 UNK        -0.1800 
     72 C          -3.8795  -24.1822  -47.4350 C.2       12 UNK         0.5000 
     73 O          -4.4258  -25.0422  -48.1251 O.2       12 UNK        -0.5000 
     74 N          -3.1462  -24.4591  -46.3475 N.am      13 UNK        -0.5000 
     75 CA         -2.8486  -25.8113  -45.8733 C.3       13 UNK         0.1400 
     76 CB         -2.1755  -25.7469  -44.4944 C.3       13 UNK        -0.1800 
     77 C          -1.9912  -26.6123  -46.8700 C.2       13 UNK         0.5000 
     78 O          -2.3110  -27.7687  -47.1454 O.2       13 UNK        -0.5000 
     79 N          -0.9550  -25.9748  -47.4343 N.am      14 UNK        -0.5000 
     80 CA         -0.0918  -26.5388  -48.4770 C.3       14 UNK         0.1400 
     81 CB          1.0901  -25.5919  -48.7336 C.3       14 UNK        -0.1800 
     82 C          -0.8466  -26.8366  -49.7872 C.2       14 UNK         0.5000 
     83 O          -0.5607  -27.8400  -50.4411 O.2       14 UNK        -0.5000 
     84 N          -1.8270  -25.9866  -50.1189 N.am      15 UNK        -0.5000 
     85 CA         -2.7598  -26.1605  -51.2333 C.3       15 UNK         0.1400 
     86 CB         -3.3593  -24.7904  -51.5919 C.3       15 UNK        -0.1800 
     87 C          -3.8808  -27.1839  -50.9496 C.2       15 UNK         0.5000 
     88 O          -4.6960  -27.4277  -51.8380 O.2       15 UNK        -0.5000 
     89 N          -3.9328  -27.7435  -49.7304 N.am      16 UNK        -0.5000 
     90 CA         -4.9344  -28.6921  -49.2296 C.3       16 UNK         0.1400 
     91 CB         -4.8270  -30.0428  -49.9677 C.3       16 UNK        -0.1800 
     92 C          -6.3646  -28.1101  -49.2303 C.2       16 UNK         0.5000 
     93 O          -7.3255  -28.8225  -49.5265 O.2       16 UNK        -0.5000 
     94 N          -6.4659  -26.8129  -48.9053 N.am      17 UNK        -0.5000 
     95 CA         -7.6757  -25.9869  -48.8530 C.3       17 UNK         0.1400 
     96 CB         -8.6512  -26.5001  -47.7732 C.3       17 UNK        -0.1800 
     97 C          -8.3549  -25.7681  -50.2229 C.2       17 UNK         0.5000 
     98 O          -9.5345  -25.4121  -50.2649 O.2       17 UNK        -0.5000 
     99 N          -7.6079  -25.9557  -51.3207 N.am      18 UNK        -0.5000 
    100 CA        -8.0478  -25.6462  -52.6810 C.3       18 UNK         0.1400 
    101 CB        -7.0770  -26.2866  -53.6842 C.3       18 UNK        -0.1800 
    102 C         -8.1390  -24.1274  -52.9216 C.2       18 UNK         0.5000 
    103 O         -7.4521  -23.3477  -52.2551 O.2       18 UNK        -0.5000 
    104 N         -8.9739  -23.7398  -53.8926 N.am      19 UNK        -0.5000 
    105 CA        -9.1368  -22.3586  -54.3440 C.3       19 UNK         0.1400 
    106 CB       -10.3504  -22.2837  -55.2838 C.3       19 UNK        -0.1800 
    107 C         -7.8749  -21.8261  -55.0502 C.2       19 UNK         0.5000 
    108 O         -7.1448  -22.6011  -55.6734 O.2       19 UNK        -0.5000 
    109 N         -7.6711  -20.5046  -54.9579 N.am      20 UNK        -0.5000 
    110 CA        -6.5707  -19.7378  -55.5555 C.3       20 UNK         0.1400 
    111 CB        -6.6447  -19.7715  -57.0971 C.3       20 UNK        -0.1800 
    112 C         -5.1769  -20.1196  -55.0098 C.2       20 UNK         0.5000 
    113 O         -4.1847  -20.0270  -55.7354 O.2       20 UNK        -0.5000 
    114 N         -5.1134  -20.4949  -53.7222 N.am      21 UNK        -0.5000 
    115 CA        -3.8847  -20.8494  -52.9968 C.3       21 UNK         0.1400 
    116 CB        -4.2554  -21.3093  -51.5782 C.3       21 UNK        -0.1800 
    117 C         -2.8420  -19.7124  -52.9320 C.2       21 UNK         0.5000 
    118 O         -1.6468  -19.9871  -52.8219 O.2       21 UNK        -0.5000 
    119 N         -3.3186  -18.4654  -53.0223 N.am      22 UNK        -0.5000 
    120 CA        -2.5072  -17.2435  -53.1256 C.3       22 UNK         0.1400 
    121 C         -2.0207  -16.9222  -54.5707 C.2       22 UNK         0.5000 
    122 N         -2.3689  -17.6965  -55.5926 N.am      22 UNK        -0.7600 
    123 O         -1.3001  -15.9490  -54.7729 O.2       22 UNK        -0.5000 
    124 C124       -3.2365  -16.0290  -52.4914 C.3       23 UNK        -0.0398 
    125 S125       -3.6339  -16.3033  -50.7279 S.3       23 UNK        -0.2404 
    126 C126       -2.3924  -15.2627  -49.8908 C.3       23 UNK        -0.0205 
    127 H127        4.1633   -8.5247  -48.5513 H         1 UNK         0.0600 
    128 H128        5.5041   -8.0579  -49.6013 H         1 UNK         0.0600 
    129 H129        5.7875   -8.3483  -47.8811 H         1 UNK         0.0600 
    130 H130        3.5828  -10.6622  -48.7952 H         1 UNK         0.3000 
    131 H131        5.1740  -12.5919  -50.1703 H         1 UNK         0.0600 
    132 H132        3.3287  -14.1756  -49.6078 H         1 UNK         0.0800 
    133 H133        2.6277  -13.0133  -48.5154 H         1 UNK         0.0800 
    134 H134        1.5314  -13.4419  -52.8161 H         1 UNK         0.0800 
    135 H135        2.9870  -14.1817  -52.1972 H         1 UNK         0.0800 
    136 H136       -0.5540  -13.5930  -51.0164 H         1 UNK         0.1150 
    137 H137       -1.0800  -17.6404  -49.7326 H         1 UNK         0.1150 
    138 H138        2.6585  -16.3936  -51.4260 H         1 UNK         0.1150 
    139 H139        0.8906  -19.2344  -51.1758 H         1 UNK         0.0800 
    140 H140        2.4552  -18.6149  -50.7346 H         1 UNK         0.0800 
    141 H141       -0.6756  -20.2152  -49.8561 H         1 UNK         0.0800 
    142 H142       -1.0849  -19.4625  -48.3367 H         1 UNK         0.0800 
    143 H143        0.4960  -22.0704  -48.5448 H         1 UNK         0.0600 
    144 H144       -0.0698  -20.4604  -46.2921 H         1 UNK         0.3000 
    145 H145       -0.1191  -23.0590  -43.8157 H         1 UNK         0.0600 
    146 H146        1.5348  -21.4691  -42.8347 H         1 UNK         0.0600 
    147 H147        2.2498  -22.4471  -44.1071 H         1 UNK         0.0600 
    148 H148        1.8289  -20.7735  -44.4274 H         1 UNK         0.0600 
    149 H149       -0.5602  -20.2086  -43.7570 H         1 UNK         0.3000 
    150 H150       -4.0941  -20.3434  -44.1895 H         1 UNK         0.0600 
    151 H151       -3.8557  -20.8995  -41.7981 H         1 UNK         0.0600 
    152 H152       -4.0315  -19.1616  -41.9881 H         1 UNK         0.0600 
    153 H153       -2.4473  -19.8596  -41.6511 H         1 UNK         0.0600 
    154 H154       -2.1487  -18.2800  -43.5908 H         1 UNK         0.3000 
    155 H155       -1.4393  -17.4432  -46.9774 H         1 UNK         0.0600 
    156 H156       -2.3366  -15.2193  -46.2978 H         1 UNK         0.0600 
    157 H157       -3.2477  -15.9695  -44.9895 H         1 UNK         0.0600 
    158 H158       -3.6432  -16.3378  -46.6644 H         1 UNK         0.0600 
    159 H159       -0.7783  -16.1398  -44.5411 H         1 UNK         0.3000 
    160 H160        1.8425  -18.2566  -43.4526 H         1 UNK         0.0600 
    161 H161        2.2476  -15.6546  -45.0182 H         1 UNK         0.0600 
    162 H162        3.0368  -17.1877  -45.3729 H         1 UNK         0.0600 
    163 H163        3.3813  -16.3573  -43.8625 H         1 UNK         0.0600 
    164 H164        1.2623  -15.5764  -42.7493 H         1 UNK         0.3000 
    165 H165       -1.7022  -15.9475  -40.9562 H         1 UNK         0.0600 
    166 H166        1.0478  -15.8453  -39.5996 H         1 UNK         0.0600 
    167 H167       -0.4786  -15.3117  -38.8937 H         1 UNK         0.0600 
    168 H168       -0.2185  -17.0133  -39.2398 H         1 UNK         0.0600 
    169 H169        0.1685  -13.8582  -40.8155 H         1 UNK         0.3000 
    170 H170       -0.0176  -12.3810  -43.9285 H         1 UNK         0.0600 
    171 H171       -2.3386  -11.7286  -43.2699 H         1 UNK         0.0600 
    172 H172       -1.8043  -11.4458  -41.6175 H         1 UNK         0.0600 
    173 H173       -1.1979  -10.4375  -42.9324 H         1 UNK         0.0600 
    174 H174        0.6481  -11.2621  -41.4004 H         1 UNK         0.3000 
    175 H175        2.8693  -10.8351  -41.0558 H         1 UNK         0.0600 
    176 H176        3.7952  -12.1849  -39.1471 H         1 UNK         0.0600 
    177 H177        2.0894  -12.5310  -39.3768 H         1 UNK         0.0600 
    178 H178        3.2996  -13.6758  -39.9461 H         1 UNK         0.0600 
    179 H179        4.5411  -12.7803  -42.4412 H         1 UNK         0.3000 
    180 H180        7.1297  -10.4768  -42.7393 H         1 UNK         0.0600 
    181 H181        7.5197  -12.9713  -40.9993 H         1 UNK         0.0600 
    182 H182        7.9818  -11.3331  -40.5545 H         1 UNK         0.0600 
    183 H183        8.7825  -12.1288  -41.8989 H         1 UNK         0.0600 
    184 H184        7.0363  -13.2639  -43.3876 H         1 UNK         0.3000 
    185 H185        6.9761  -13.4784  -45.9201 H         1 UNK         0.0600 
    186 H186        5.1040  -15.1818  -45.9240 H         1 UNK         0.0600 
    187 H187        5.5896  -14.8092  -44.2828 H         1 UNK         0.0600 
    188 H188        4.1226  -14.0965  -44.9433 H         1 UNK         0.0600 
    189 H189        4.8720  -11.7570  -46.7749 H         1 UNK         0.3000 
    190 H190       -2.6938  -21.2039  -47.0907 H         1 UNK         0.3000 
    191 H191       -4.2934  -22.6807  -48.8979 H         1 UNK         0.0600 
    192 H192       -5.2029  -20.9562  -47.3711 H         1 UNK         0.0600 
    193 H193       -6.0362  -22.4854  -47.1353 H         1 UNK         0.0600 
    194 H194       -4.8275  -21.9587  -45.9712 H         1 UNK         0.0600 
    195 H195       -2.7804  -23.6910  -45.7928 H         1 UNK         0.3000 
    196 H196       -3.7987  -26.3373  -45.7584 H         1 UNK         0.0600 
    197 H197       -1.9742  -26.7481  -44.1115 H         1 UNK         0.0600 
    198 H198       -2.8135  -25.2431  -43.7681 H         1 UNK         0.0600 
    199 H199       -1.2262  -25.2132  -44.5318 H         1 UNK         0.0600 
    200 H200       -0.7260  -25.0359  -47.1163 H         1 UNK         0.3000 
    201 H201        0.3055  -27.4845  -48.1029 H         1 UNK         0.0600 
    202 H202        1.6756  -25.4382  -47.8270 H         1 UNK         0.0600 
    203 H203        0.7548  -24.6155  -49.0840 H         1 UNK         0.0600 
    204 H204        1.7617  -26.0002  -49.4897 H         1 UNK         0.0600 
    205 H205       -1.9439  -25.1447  -49.5636 H         1 UNK         0.3000 
    206 H206       -2.2028  -26.5236  -52.0991 H         1 UNK         0.0600 
    207 H207       -2.5785  -24.0686  -51.8323 H         1 UNK         0.0600 
    208 H208       -4.0143  -24.8584  -52.4612 H         1 UNK         0.0600 
    209 H209       -3.9486  -24.3845  -50.7697 H         1 UNK         0.0600 
    210 H210       -3.2320  -27.4679  -49.0531 H         1 UNK         0.3000 
    211 H211       -4.6847  -28.8710  -48.1830 H         1 UNK         0.0600 
    212 H212       -5.1243  -29.9594  -51.0134 H         1 UNK         0.0600 
    213 H213       -5.4690  -30.7930  -49.5048 H         1 UNK         0.0600 
    214 H214       -3.8074  -30.4271  -49.9380 H         1 UNK         0.0600 
    215 H215       -5.6074  -26.3089  -48.6854 H         1 UNK         0.3000 
    216 H216       -7.3371  -24.9991  -48.5371 H         1 UNK         0.0600 
    217 H217       -8.1462  -26.6317  -46.8163 H         1 UNK         0.0600 
    218 H218       -9.0996  -27.4541  -48.0514 H         1 UNK         0.0600 
    219 H219       -9.4656  -25.7928  -47.6128 H         1 UNK         0.0600 
    220 H220       -6.6486  -26.2568  -51.2141 H         1 UNK         0.3000 
    221 H221       -9.0374  -26.0841  -52.8282 H         1 UNK         0.0600 
    222 H222       -6.0773  -25.8584  -53.6035 H         1 UNK         0.0600 
    223 H223       -6.9961  -27.3623  -53.5257 H         1 UNK         0.0600 
    224 H224       -7.4145  -26.1337  -54.7099 H         1 UNK         0.0600 
    225 H225       -9.4719  -24.4425  -54.4190 H         1 UNK         0.3000 
    226 H226       -9.3359  -21.7381  -53.4675 H         1 UNK         0.0600 
    227 H227      -11.2593  -22.6184  -54.7834 H         1 UNK         0.0600 
    228 H228      -10.5242  -21.2604  -55.6192 H         1 UNK         0.0600 
    229 H229      -10.2092  -22.8999  -56.1729 H         1 UNK         0.0600 
    230 H230       -8.3353  -19.9579  -54.4269 H         1 UNK         0.3000 
    231 H231       -6.7294  -18.7024  -55.2507 H         1 UNK         0.0600 
    232 H232       -5.9314  -19.0744  -57.5383 H         1 UNK         0.0600 
    233 H233       -7.6352  -19.4858  -57.4510 H         1 UNK         0.0600 
    234 H234       -6.4189  -20.7616  -57.4937 H         1 UNK         0.0600 
    235 H235       -5.9760  -20.5611  -53.2016 H         1 UNK         0.3000 
    236 H236       -3.4226  -21.6887  -53.5204 H         1 UNK         0.0600 
    237 H237       -3.3680  -21.6253  -51.0284 H         1 UNK         0.0600 
    238 H238       -4.7290  -20.5110  -51.0055 H         1 UNK         0.0600 
    239 H239       -4.9404  -22.1570  -51.6033 H         1 UNK         0.0600 
    240 H240       -4.3168  -18.3414  -53.0932 H         1 UNK         0.3000 
    241 H241       -1.5907  -17.4066  -52.5589 H         1 UNK         0.0600 
    242 H242       -2.0346  -17.4667  -56.5149 H         1 UNK         0.3800 
    243 H243       -2.9522  -18.5176  -55.4686 H         1 UNK         0.3800 
    244 H244       -2.6369  -15.1218  -52.5836 H         1 UNK         0.0800 
    245 H245       -4.1670  -15.8270  -53.0239 H         1 UNK         0.0800 
    246 H246       -2.6278  -14.2147  -50.0827 H         1 UNK         0.0800 
    247 H247       -2.4822  -15.4045  -48.8141 H         1 UNK         0.0800 
@<TRIPOS>BOND
     1    1    2 1    
     2    1  127 1    
     3    1  128 1    
     4    1  129 1    
     5    2    3 2    
     6    2    4 am   BACKBONE|DICT|INTERRES
     7    4    5 1    
     8    4  130 1    
     9    5    6 1    
    10    5   65 1    
    11    5  131 1    
    12    6    7 1    
    13    6  132 1    
    14    6  133 1    
    15    7    8 1    
    16    8    9 1    
    17    8  134 1    
    18    8  135 1    
    19    9   10 ar   
    20    9   14 ar   
    21   10   11 ar   
    22   10  136 1    
    23   11   12 ar   
    24   11  126 1    
    25   12   13 ar   
    26   12  137 1    
    27   13   14 ar   
    28   13   15 1    
    29   14  138 1    
    30   15   16 1    
    31   15  139 1    
    32   15  140 1    
    33   16   17 1    
    34   17   18 1    
    35   17  141 1    
    36   17  142 1    
    37   18   19 1    
    38   18   67 1    
    39   18  143 1    
    40   19   20 am   BACKBONE|DICT|INTERRES
    41   19  144 1    
    42   20   21 2    
    43   20   22 1    
    44   22   23 1    
    45   22   24 1    
    46   22  145 1    
    47   23  146 1    
    48   23  147 1    
    49   23  148 1    
    50   24   25 am   BACKBONE|DICT|INTERRES
    51   24  149 1    
    52   25   26 2    
    53   25   27 1    
    54   27   28 1    
    55   27   29 1    
    56   27  150 1    
    57   28  151 1    
    58   28  152 1    
    59   28  153 1    
    60   29   30 am   BACKBONE|DICT|INTERRES
    61   29  154 1    
    62   30   31 2    
    63   30   32 1    
    64   32   33 1    
    65   32   34 1    
    66   32  155 1    
    67   33  156 1    
    68   33  157 1    
    69   33  158 1    
    70   34   35 am   BACKBONE|DICT|INTERRES
    71   34  159 1    
    72   35   36 2    
    73   35   37 1    
    74   37   38 1    
    75   37   39 1    
    76   37  160 1    
    77   38  161 1    
    78   38  162 1    
    79   38  163 1    
    80   39   40 am   BACKBONE|DICT|INTERRES
    81   39  164 1    
    82   40   41 2    
    83   40   42 1    
    84   42   43 1    
    85   42   44 1    
    86   42  165 1    
    87   43  166 1    
    88   43  167 1    
    89   43  168 1    
    90   44   45 am   BACKBONE|DICT|INTERRES
    91   44  169 1    
    92   45   46 2    
    93   45   47 1    
    94   47   48 1    
    95   47   49 1    
    96   47  170 1    
    97   48  171 1    
    98   48  172 1    
    99   48  173 1    
   100   49   50 am   BACKBONE|DICT|INTERRES
   101   49  174 1    
   102   50   51 2    
   103   50   52 1    
   104   52   53 1    
   105   52   54 1    
   106   52  175 1    
   107   53  176 1    
   108   53  177 1    
   109   53  178 1    
   110   54   55 am   BACKBONE|DICT|INTERRES
   111   54  179 1    
   112   55   56 2    
   113   55   57 1    
   114   57   58 1    
   115   57   59 1    
   116   57  180 1    
   117   58  181 1    
   118   58  182 1    
   119   58  183 1    
   120   59   60 am   BACKBONE|DICT|INTERRES
   121   59  184 1    
   122   60   61 2    
   123   60   62 1    
   124   62   63 1    
   125   62   64 1    
   126   62  185 1    
   127   63  186 1    
   128   63  187 1    
   129   63  188 1    
   130   64   65 am   BACKBONE|DICT|INTERRES
   131   64  189 1    
   132   65   66 2    
   133   67   68 2    
   134   67   69 am   BACKBONE|DICT|INTERRES
   135   69   70 1    
   136   69  190 1    
   137   70   71 1    
   138   70   72 1    
   139   70  191 1    
   140   71  192 1    
   141   71  193 1    
   142   71  194 1    
   143   72   73 2    
   144   72   74 am   BACKBONE|DICT|INTERRES
   145   74   75 1    
   146   74  195 1    
   147   75   76 1    
   148   75   77 1    
   149   75  196 1    
   150   76  197 1    
   151   76  198 1    
   152   76  199 1    
   153   77   78 2    
   154   77   79 am   BACKBONE|DICT|INTERRES
   155   79   80 1    
   156   79  200 1    
   157   80   81 1    
   158   80   82 1    
   159   80  201 1    
   160   81  202 1    
   161   81  203 1    
   162   81  204 1    
   163   82   83 2    
   164   82   84 am   BACKBONE|DICT|INTERRES
   165   84   85 1    
   166   84  205 1    
   167   85   86 1    
   168   85   87 1    
   169   85  206 1    
   170   86  207 1    
   171   86  208 1    
   172   86  209 1    
   173   87   88 2    
   174   87   89 am   BACKBONE|DICT|INTERRES
   175   89   90 1    
   176   89  210 1    
   177   90   91 1    
   178   90   92 1    
   179   90  211 1    
   180   91  212 1    
   181   91  213 1    
   182   91  214 1    
   183   92   93 2    
   184   92   94 am   BACKBONE|DICT|INTERRES
   185   94   95 1    
   186   94  215 1    
   187   95   96 1    
   188   95   97 1    
   189   95  216 1    
   190   96  217 1    
   191   96  218 1    
   192   96  219 1    
   193   97   98 2    
   194   97   99 am   BACKBONE|DICT|INTERRES
   195   99  100 1    
   196   99  220 1    
   197  100  101 1    
   198  100  102 1    
   199  100  221 1    
   200  101  222 1    
   201  101  223 1    
   202  101  224 1    
   203  102  103 2    
   204  102  104 am   BACKBONE|DICT|INTERRES
   205  104  105 1    
   206  104  225 1    
   207  105  106 1    
   208  105  107 1    
   209  105  226 1    
   210  106  227 1    
   211  106  228 1    
   212  106  229 1    
   213  107  108 2    
   214  107  109 am   BACKBONE|DICT|INTERRES
   215  109  110 1    
   216  109  230 1    
   217  110  111 1    
   218  110  112 1    
   219  110  231 1    
   220  111  232 1    
   221  111  233 1    
   222  111  234 1    
   223  112  113 2    
   224  112  114 am   BACKBONE|DICT|INTERRES
   225  114  115 1    
   226  114  235 1    
   227  115  116 1    
   228  115  117 1    
   229  115  236 1    
   230  116  237 1    
   231  116  238 1    
   232  116  239 1    
   233  117  118 2    
   234  117  119 am   BACKBONE|DICT|INTERRES
   235  119  120 1    
   236  119  240 1    
   237  120  121 1    
   238  120  124 1    
   239  120  241 1    
   240  121  122 am   BACKBONE|DICT|INTERRES
   241  121  123 2    
   242  122  242 1    
   243  122  243 1    
   244  124  125 1    
   245  124  244 1    
   246  124  245 1    
   247  125  126 1    
   248  126  246 1    
   249  126  247 1    
@<TRIPOS>SUBSTRUCTURE
     1 UNK         1 GROUP             0       ****    0 ROOT    
