@<TRIPOS>MOLECULE
3R540
247   249    1
SMALL
USER_CHARGES


@<TRIPOS>ATOM
      1 CA         -1.9018  -11.9307  -45.8184 C.3       0 UNK        -0.1800 
      2 C          -0.8470  -12.1518  -46.8933 C.2       0 UNK         0.5000 
      3 O          -0.6718  -11.3052  -47.7691 O.2       0 UNK        -0.5000 
      4 N          -0.1468  -13.2911  -46.8255 N.am      1 UNK        -0.5000 
      5 CA          0.9418  -13.6830  -47.7335 C.3       1 UNK         0.1400 
      6 C6          1.2180  -15.2122  -47.6034 C.3       23 UNK        -0.0398 
      7 S7          2.8715  -15.8521  -48.0466 S.3       23 UNK        -0.2404 
      8 C8          2.7613  -15.9113  -49.8601 C.3       23 UNK        -0.0205 
      9 C9          1.8245  -17.0019  -50.3590 C.ar      23 UNK        -0.0193 
     10 C10         0.6660  -16.6683  -51.0657 C.ar      23 UNK        -0.1150 
     11 C11        -0.1528  -17.6683  -51.5975 C.ar      23 UNK        -0.0193 
     12 C12         0.1832  -19.0105  -51.3990 C.ar      23 UNK        -0.1150 
     13 C13         1.3316  -19.3598  -50.6787 C.ar      23 UNK        -0.0193 
     14 C14         2.1474  -18.3479  -50.1645 C.ar      23 UNK        -0.1150 
     15 C15         1.7436  -20.8184  -50.5070 C.3       23 UNK        -0.0205 
     16 S16         0.3814  -21.9093  -49.9902 S.3       23 UNK        -0.2404 
     17 C17        -0.0089  -21.2820  -48.3197 C.3       23 UNK        -0.0398 
     18 CA         -0.3845  -22.4304  -47.3528 C.3       11 UNK         0.1400 
     19 N          -0.2162  -22.0558  -45.9457 N.am      11 UNK        -0.5000 
     20 C          -0.2512  -22.9282  -44.9269 C.2       10 UNK         0.5000 
     21 O          -0.3970  -24.1404  -45.0742 O.2       10 UNK        -0.5000 
     22 CA         -0.1804  -22.3490  -43.5033 C.3       10 UNK         0.1400 
     23 CB          1.2561  -21.9486  -43.1376 C.3       10 UNK        -0.1800 
     24 N          -1.0758  -21.2060  -43.3357 N.am      10 UNK        -0.5000 
     25 C          -2.4100  -21.2661  -43.4493 C.2       9 UNK         0.5000 
     26 O          -3.0339  -22.3146  -43.6149 O.2       9 UNK        -0.5000 
     27 CA         -3.1651  -19.9243  -43.4342 C.3       9 UNK         0.1400 
     28 CB         -3.4639  -19.4727  -41.9967 C.3       9 UNK        -0.1800 
     29 N          -2.4362  -18.8709  -44.1447 N.am      9 UNK        -0.5000 
     30 C          -2.2223  -18.8577  -45.4687 C.2       8 UNK         0.5000 
     31 O          -2.6493  -19.7153  -46.2386 O.2       8 UNK        -0.5000 
     32 CA         -1.3433  -17.7234  -46.0191 C.3       8 UNK         0.1400 
     33 CB         -2.1772  -16.4512  -46.2304 C.3       8 UNK        -0.1800 
     34 N          -0.2036  -17.4474  -45.1418 N.am      8 UNK        -0.5000 
     35 C           0.8425  -18.2797  -45.0051 C.2       7 UNK         0.5000 
     36 O           0.9637  -19.3226  -45.6484 O.2       7 UNK        -0.5000 
     37 CA          1.8993  -17.9285  -43.9354 C.3       7 UNK         0.1400 
     38 CB          3.0400  -17.1015  -44.5442 C.3       7 UNK        -0.1800 
     39 N           1.3453  -17.2122  -42.7854 N.am      7 UNK        -0.5000 
     40 C           0.3926  -17.6991  -41.9757 C.2       6 UNK         0.5000 
     41 O          -0.0286  -18.8523  -42.0543 O.2       6 UNK        -0.5000 
     42 CA         -0.2451  -16.7420  -40.9471 C.3       6 UNK         0.1400 
     43 CB          0.2903  -17.0394  -39.5389 C.3       6 UNK        -0.1800 
     44 N          -0.0532  -15.3188  -41.2355 N.am      6 UNK        -0.5000 
     45 C          -0.4145  -14.6735  -42.3544 C.2       5 UNK         0.5000 
     46 O          -1.0136  -15.2034  -43.2914 O.2       5 UNK        -0.5000 
     47 CA          0.0418  -13.2075  -42.4805 C.3       5 UNK         0.1400 
     48 CB         -1.0891  -12.2522  -42.0746 C.3       5 UNK        -0.1800 
     49 N           1.2497  -12.8776  -41.7136 N.am      5 UNK        -0.5000 
     50 C           2.4472  -13.4650  -41.8489 C.2       4 UNK         0.5000 
     51 O           2.6560  -14.4195  -42.6003 O.2       4 UNK        -0.5000 
     52 CA          3.6036  -12.8389  -41.0463 C.3       4 UNK         0.1400 
     53 CB          4.8179  -13.7777  -40.9356 C.3       4 UNK        -0.1800 
     54 N           4.0160  -11.6082  -41.7127 N.am      4 UNK        -0.5000 
     55 C           3.4163  -10.4172  -41.5777 C.2       3 UNK         0.5000 
     56 O           2.5873  -10.1621  -40.7032 O.2       3 UNK        -0.5000 
     57 CA          3.7427   -9.3677  -42.6609 C.3       3 UNK         0.1400 
     58 CB          4.9816   -8.5480  -42.2703 C.3       3 UNK        -0.1800 
     59 N           3.9550   -9.9775  -43.9805 N.am      3 UNK        -0.5000 
     60 C           3.0256  -10.6785  -44.6470 C.2       2 UNK         0.5000 
     61 O           1.8502  -10.7712  -44.2795 O.2       2 UNK        -0.5000 
     62 CA          3.4928  -11.4382  -45.8998 C.3       2 UNK         0.1400 
     63 CB          4.7525  -12.2879  -45.6332 C.3       2 UNK        -0.1800 
     64 N           2.4064  -12.3118  -46.3207 N.am      2 UNK        -0.5000 
     65 C           2.1885  -12.7811  -47.5520 C.2       1 UNK         0.5000 
     66 O           2.9014  -12.5125  -48.5205 O.2       1 UNK        -0.5000 
     67 C          -1.7934  -22.9947  -47.6454 C.2       11 UNK         0.5000 
     68 O          -1.9102  -23.9525  -48.4114 O.2       11 UNK        -0.5000 
     69 N          -2.8365  -22.4277  -47.0204 N.am      12 UNK        -0.5000 
     70 CA         -4.2198  -22.9090  -47.0938 C.3       12 UNK         0.1400 
     71 CB         -5.1638  -21.9408  -46.3674 C.3       12 UNK        -0.1800 
     72 C          -4.3835  -24.3456  -46.5679 C.2       12 UNK         0.5000 
     73 O          -5.1162  -25.1296  -47.1704 O.2       12 UNK        -0.5000 
     74 N          -3.6710  -24.6752  -45.4842 N.am      13 UNK        -0.5000 
     75 CA         -3.6094  -26.0240  -44.9287 C.3       13 UNK         0.1400 
     76 CB         -3.0874  -25.9553  -43.4849 C.3       13 UNK        -0.1800 
     77 C          -2.7463  -26.9734  -45.7822 C.2       13 UNK         0.5000 
     78 O          -3.1675  -28.0993  -46.0499 O.2       13 UNK        -0.5000 
     79 N          -1.5480  -26.5163  -46.1692 N.am      14 UNK        -0.5000 
     80 CA         -0.5199  -27.3425  -46.8020 C.3       14 UNK         0.1400 
     81 CB          0.8514  -26.6759  -46.6098 C.3       14 UNK        -0.1800 
     82 C          -0.7559  -27.6320  -48.2942 C.2       14 UNK         0.5000 
     83 O          -0.4660  -28.7449  -48.7363 O.2       14 UNK        -0.5000 
     84 N          -1.2229  -26.6319  -49.0520 N.am      15 UNK        -0.5000 
     85 CA         -1.2353  -26.6547  -50.5182 C.3       15 UNK         0.1400 
     86 CB          0.0567  -25.9918  -51.0343 C.3       15 UNK        -0.1800 
     87 C          -2.4919  -25.9974  -51.1136 C.2       15 UNK         0.5000 
     88 O          -2.4695  -25.5971  -52.2796 O.2       15 UNK        -0.5000 
     89 N          -3.5580  -25.8652  -50.3090 N.am      16 UNK        -0.5000 
     90 CA         -4.8395  -25.2342  -50.6565 C.3       16 UNK         0.1400 
     91 CB         -5.6254  -26.1188  -51.6459 C.3       16 UNK        -0.1800 
     92 C          -4.6871  -23.7727  -51.1355 C.2       16 UNK         0.5000 
     93 O          -5.4329  -23.3238  -52.0076 O.2       16 UNK        -0.5000 
     94 N          -3.6991  -23.0704  -50.5576 N.am      17 UNK        -0.5000 
     95 CA         -3.2883  -21.7000  -50.8648 C.3       17 UNK         0.1400 
     96 CB         -4.3391  -20.6826  -50.3745 C.3       17 UNK        -0.1800 
     97 C          -2.8406  -21.5691  -52.3345 C.2       17 UNK         0.5000 
     98 O          -3.4034  -20.7943  -53.1096 O.2       17 UNK        -0.5000 
     99 N          -1.8443  -22.3994  -52.6803 N.am      18 UNK        -0.5000 
    100 CA        -1.2440  -22.5800  -54.0049 C.3       18 UNK         0.1400 
    101 CB        -0.4724  -21.3142  -54.4334 C.3       18 UNK        -0.1800 
    102 C         -2.2662  -23.0574  -55.0565 C.2       18 UNK         0.5000 
    103 O         -2.2542  -22.5787  -56.1919 O.2       18 UNK        -0.5000 
    104 N         -3.1542  -23.9737  -54.6407 N.am      19 UNK        -0.5000 
    105 CA        -4.2721  -24.5973  -55.3656 C.3       19 UNK         0.1400 
    106 CB        -3.7593  -25.4284  -56.5561 C.3       19 UNK        -0.1800 
    107 C         -5.4004  -23.6406  -55.8099 C.2       19 UNK         0.5000 
    108 O         -6.5697  -24.0236  -55.7676 O.2       19 UNK        -0.5000 
    109 N         -5.0420  -22.4240  -56.2293 N.am      20 UNK        -0.5000 
    110 CA        -5.9286  -21.3819  -56.7443 C.3       20 UNK         0.1400 
    111 CB        -5.1102  -20.4924  -57.6959 C.3       20 UNK        -0.1800 
    112 C         -6.5930  -20.5304  -55.6438 C.2       20 UNK         0.5000 
    113 O         -7.2770  -19.5605  -55.9755 O.2       20 UNK        -0.5000 
    114 N         -6.3529  -20.8591  -54.3654 N.am      21 UNK        -0.5000 
    115 CA        -6.8038  -20.1363  -53.1696 C.3       21 UNK         0.1400 
    116 CB        -8.3334  -20.2487  -53.0044 C.3       21 UNK        -0.1800 
    117 C         -6.2917  -18.6784  -53.1299 C.2       21 UNK         0.5000 
    118 O         -7.0220  -17.7702  -52.7297 O.2       21 UNK        -0.5000 
    119 N         -5.0535  -18.4894  -53.6041 N.am      22 UNK        -0.5000 
    120 CA        -4.3920  -17.2047  -53.8839 C.3       22 UNK         0.1400 
    121 C         -5.0933  -16.3180  -54.9631 C.2       22 UNK         0.5000 
    122 N         -6.0307  -16.8287  -55.7541 N.am      22 UNK        -0.7600 
    123 O         -4.7558  -15.1475  -55.1194 O.2       22 UNK        -0.5000 
    124 C124       -4.0229  -16.4068  -52.5993 C.3       23 UNK        -0.0398 
    125 S125       -2.8994  -17.2949  -51.4635 S.3       23 UNK        -0.2404 
    126 C126       -1.3637  -17.2956  -52.4376 C.3       23 UNK        -0.0205 
    127 H127       -1.6008  -11.1140  -45.1619 H         1 UNK         0.0600 
    128 H128       -2.0513  -12.8221  -45.2083 H         1 UNK         0.0600 
    129 H129       -2.8566  -11.6701  -46.2750 H         1 UNK         0.0600 
    130 H130       -0.3555  -13.9413  -46.0826 H         1 UNK         0.3000 
    131 H131        0.5940  -13.5085  -48.7541 H         1 UNK         0.0600 
    132 H132        1.0845  -15.5051  -46.5631 H         1 UNK         0.0800 
    133 H133        0.4620  -15.7717  -48.1556 H         1 UNK         0.0800 
    134 H134        2.4592  -14.9317  -50.2339 H         1 UNK         0.0800 
    135 H135        3.7582  -16.0944  -50.2632 H         1 UNK         0.0800 
    136 H136        0.4168  -15.6294  -51.2304 H         1 UNK         0.1150 
    137 H137       -0.4434  -19.7825  -51.8205 H         1 UNK         0.1150 
    138 H138        3.0502  -18.6034  -49.6274 H         1 UNK         0.1150 
    139 H139        2.1324  -21.1791  -51.4599 H         1 UNK         0.0800 
    140 H140        2.5588  -20.9115  -49.7877 H         1 UNK         0.0800 
    141 H141       -0.7991  -20.5313  -48.3821 H         1 UNK         0.0800 
    142 H142        0.8717  -20.7597  -47.9435 H         1 UNK         0.0800 
    143 H143        0.3198  -23.2469  -47.5275 H         1 UNK         0.0600 
    144 H144       -0.0530  -21.0734  -45.7500 H         1 UNK         0.3000 
    145 H145       -0.5024  -23.1278  -42.8088 H         1 UNK         0.0600 
    146 H146        1.3094  -21.5504  -42.1241 H         1 UNK         0.0600 
    147 H147        1.9229  -22.8103  -43.1856 H         1 UNK         0.0600 
    148 H148        1.6510  -21.1927  -43.8153 H         1 UNK         0.0600 
    149 H149       -0.6476  -20.3113  -43.1152 H         1 UNK         0.3000 
    150 H150       -4.1189  -20.0726  -43.9441 H         1 UNK         0.0600 
    151 H151       -4.0596  -20.2210  -41.4725 H         1 UNK         0.0600 
    152 H152       -4.0298  -18.5411  -41.9850 H         1 UNK         0.0600 
    153 H153       -2.5528  -19.3197  -41.4187 H         1 UNK         0.0600 
    154 H154       -2.0178  -18.1466  -43.5806 H         1 UNK         0.3000 
    155 H155       -0.9606  -18.0394  -46.9925 H         1 UNK         0.0600 
    156 H156       -3.0262  -16.6497  -46.8860 H         1 UNK         0.0600 
    157 H157       -1.5904  -15.6650  -46.7000 H         1 UNK         0.0600 
    158 H158       -2.5742  -16.0634  -45.2919 H         1 UNK         0.0600 
    159 H159       -0.2799  -16.6401  -44.5320 H         1 UNK         0.3000 
    160 H160        2.3200  -18.8669  -43.5699 H         1 UNK         0.0600 
    161 H161        2.6980  -16.1175  -44.8657 H         1 UNK         0.0600 
    162 H162        3.4691  -17.6030  -45.4127 H         1 UNK         0.0600 
    163 H163        3.8446  -16.9519  -43.8241 H         1 UNK         0.0600 
    164 H164        1.6618  -16.2570  -42.6548 H         1 UNK         0.3000 
    165 H165       -1.3197  -16.9344  -40.9544 H         1 UNK         0.0600 
    166 H166       -0.2208  -16.4387  -38.7863 H         1 UNK         0.0600 
    167 H167        0.1368  -18.0867  -39.2746 H         1 UNK         0.0600 
    168 H168        1.3593  -16.8352  -39.4645 H         1 UNK         0.0600 
    169 H169        0.4484  -14.7890  -40.5383 H         1 UNK         0.3000 
    170 H170        0.2701  -13.0341  -43.5338 H         1 UNK         0.0600 
    171 H171       -2.0027  -12.4649  -42.6313 H         1 UNK         0.0600 
    172 H172       -1.3243  -12.3357  -41.0129 H         1 UNK         0.0600 
    173 H173       -0.8193  -11.2159  -42.2800 H         1 UNK         0.0600 
    174 H174        1.1877  -12.0671  -41.1115 H         1 UNK         0.3000 
    175 H175        3.2483  -12.6201  -40.0371 H         1 UNK         0.0600 
    176 H176        5.2377  -14.0174  -41.9135 H         1 UNK         0.0600 
    177 H177        5.6082  -13.3278  -40.3344 H         1 UNK         0.0600 
    178 H178        4.5407  -14.7180  -40.4575 H         1 UNK         0.0600 
    179 H179        4.6653  -11.7195  -42.4771 H         1 UNK         0.3000 
    180 H180        2.8899   -8.6897  -42.7350 H         1 UNK         0.0600 
    181 H181        5.8739   -9.1717  -42.2022 H         1 UNK         0.0600 
    182 H182        4.8415   -8.0684  -41.3006 H         1 UNK         0.0600 
    183 H183        5.1774   -7.7588  -42.9964 H         1 UNK         0.0600 
    184 H184        4.8916   -9.9251  -44.3542 H         1 UNK         0.3000 
    185 H185        3.6970  -10.7042  -46.6818 H         1 UNK         0.0600 
    186 H186        5.6114  -11.6662  -45.3801 H         1 UNK         0.0600 
    187 H187        4.5947  -12.9898  -44.8127 H         1 UNK         0.0600 
    188 H188        5.0310  -12.8677  -46.5135 H         1 UNK         0.0600 
    189 H189        1.7163  -12.4783  -45.6003 H         1 UNK         0.3000 
    190 H190       -2.6814  -21.5823  -46.4774 H         1 UNK         0.3000 
    191 H191       -4.5196  -22.9118  -48.1387 H         1 UNK         0.0600 
    192 H192       -5.0765  -20.9296  -46.7648 H         1 UNK         0.0600 
    193 H193       -6.2028  -22.2484  -46.4912 H         1 UNK         0.0600 
    194 H194       -4.9638  -21.9021  -45.2983 H         1 UNK         0.0600 
    195 H195       -3.1235  -23.9582  -45.0218 H         1 UNK         0.3000 
    196 H196       -4.6224  -26.4313  -44.8973 H         1 UNK         0.0600 
    197 H197       -3.0494  -26.9483  -43.0355 H         1 UNK         0.0600 
    198 H198       -3.7365  -25.3398  -42.8617 H         1 UNK         0.0600 
    199 H199       -2.0831  -25.5333  -43.4357 H         1 UNK         0.0600 
    200 H200       -1.2584  -25.5876  -45.8712 H         1 UNK         0.3000 
    201 H201       -0.4928  -28.3037  -46.2839 H         1 UNK         0.0600 
    202 H202        1.0814  -26.5449  -45.5523 H         1 UNK         0.0600 
    203 H203        0.8914  -25.6951  -47.0851 H         1 UNK         0.0600 
    204 H204        1.6474  -27.2833  -47.0425 H         1 UNK         0.0600 
    205 H205       -1.4448  -25.7356  -48.6228 H         1 UNK         0.3000 
    206 H206       -1.2549  -27.6859  -50.8756 H         1 UNK         0.0600 
    207 H207        0.9415  -26.4976  -50.6476 H         1 UNK         0.0600 
    208 H208        0.1172  -26.0283  -52.1227 H         1 UNK         0.0600 
    209 H209        0.1131  -24.9449  -50.7344 H         1 UNK         0.0600 
    210 H210       -3.4778  -26.2054  -49.3607 H         1 UNK         0.3000 
    211 H211       -5.4241  -25.1836  -49.7388 H         1 UNK         0.0600 
    212 H212       -5.0999  -26.2354  -52.5923 H         1 UNK         0.0600 
    213 H213       -6.6065  -25.6949  -51.8635 H         1 UNK         0.0600 
    214 H214       -5.7896  -27.1142  -51.2335 H         1 UNK         0.0600 
    215 H215       -3.1228  -23.5514  -49.8726 H         1 UNK         0.3000 
    216 H216       -2.3934  -21.5022  -50.2788 H         1 UNK         0.0600 
    217 H217       -4.2860  -19.7405  -50.9164 H         1 UNK         0.0600 
    218 H218       -4.1751  -20.4510  -49.3218 H         1 UNK         0.0600 
    219 H219       -5.3562  -21.0596  -50.4538 H         1 UNK         0.0600 
    220 H220       -1.4913  -23.0214  -51.9669 H         1 UNK         0.3000 
    221 H221       -0.5185  -23.3884  -53.9042 H         1 UNK         0.0600 
    222 H222       -1.1332  -20.4553  -54.5544 H         1 UNK         0.0600 
    223 H223        0.2902  -21.0533  -53.7001 H         1 UNK         0.0600 
    224 H224        0.0391  -21.4697  -55.3838 H         1 UNK         0.0600 
    225 H225       -3.0390  -24.3138  -53.6900 H         1 UNK         0.3000 
    226 H226       -4.7242  -25.2911  -54.6575 H         1 UNK         0.0600 
    227 H227       -3.0232  -26.1649  -56.2336 H         1 UNK         0.0600 
    228 H228       -4.5765  -25.9725  -57.0313 H         1 UNK         0.0600 
    229 H229       -3.2971  -24.8036  -57.3208 H         1 UNK         0.0600 
    230 H230       -4.0447  -22.2233  -56.2482 H         1 UNK         0.3000 
    231 H231       -6.7300  -21.8511  -57.3184 H         1 UNK         0.0600 
    232 H232       -4.3057  -19.9772  -57.1691 H         1 UNK         0.0600 
    233 H233       -5.7360  -19.7323  -58.1653 H         1 UNK         0.0600 
    234 H234       -4.6625  -21.0801  -58.4977 H         1 UNK         0.0600 
    235 H235       -5.7433  -21.6466  -54.1885 H         1 UNK         0.3000 
    236 H236       -6.3499  -20.6509  -52.3284 H         1 UNK         0.0600 
    237 H237       -8.6555  -21.2898  -53.0282 H         1 UNK         0.0600 
    238 H238       -8.6538  -19.8326  -52.0486 H         1 UNK         0.0600 
    239 H239       -8.8678  -19.7133  -53.7895 H         1 UNK         0.0600 
    240 H240       -4.5015  -19.3184  -53.8046 H         1 UNK         0.3000 
    241 H241       -3.4568  -17.4825  -54.3682 H         1 UNK         0.0600 
    242 H242       -6.4566  -16.2379  -56.4503 H         1 UNK         0.3800 
    243 H243       -6.3502  -17.7856  -55.6545 H         1 UNK         0.3800 
    244 H244       -3.5424  -15.4606  -52.8530 H         1 UNK         0.0800 
    245 H245       -4.9265  -16.1414  -52.0493 H         1 UNK         0.0800 
    246 H246       -1.4610  -18.0024  -53.2629 H         1 UNK         0.0800 
    247 H247       -1.2144  -16.3132  -52.8883 H         1 UNK         0.0800 
@<TRIPOS>BOND
     1    1    2 1    
     2    1  127 1    
     3    1  128 1    
     4    1  129 1    
     5    2    3 2    
     6    2    4 am   BACKBONE|DICT|INTERRES
     7    4    5 1    
     8    4  130 1    
     9    5    6 1    
    10    5   65 1    
    11    5  131 1    
    12    6    7 1    
    13    6  132 1    
    14    6  133 1    
    15    7    8 1    
    16    8    9 1    
    17    8  134 1    
    18    8  135 1    
    19    9   10 ar   
    20    9   14 ar   
    21   10   11 ar   
    22   10  136 1    
    23   11   12 ar   
    24   11  126 1    
    25   12   13 ar   
    26   12  137 1    
    27   13   14 ar   
    28   13   15 1    
    29   14  138 1    
    30   15   16 1    
    31   15  139 1    
    32   15  140 1    
    33   16   17 1    
    34   17   18 1    
    35   17  141 1    
    36   17  142 1    
    37   18   19 1    
    38   18   67 1    
    39   18  143 1    
    40   19   20 am   BACKBONE|DICT|INTERRES
    41   19  144 1    
    42   20   21 2    
    43   20   22 1    
    44   22   23 1    
    45   22   24 1    
    46   22  145 1    
    47   23  146 1    
    48   23  147 1    
    49   23  148 1    
    50   24   25 am   BACKBONE|DICT|INTERRES
    51   24  149 1    
    52   25   26 2    
    53   25   27 1    
    54   27   28 1    
    55   27   29 1    
    56   27  150 1    
    57   28  151 1    
    58   28  152 1    
    59   28  153 1    
    60   29   30 am   BACKBONE|DICT|INTERRES
    61   29  154 1    
    62   30   31 2    
    63   30   32 1    
    64   32   33 1    
    65   32   34 1    
    66   32  155 1    
    67   33  156 1    
    68   33  157 1    
    69   33  158 1    
    70   34   35 am   BACKBONE|DICT|INTERRES
    71   34  159 1    
    72   35   36 2    
    73   35   37 1    
    74   37   38 1    
    75   37   39 1    
    76   37  160 1    
    77   38  161 1    
    78   38  162 1    
    79   38  163 1    
    80   39   40 am   BACKBONE|DICT|INTERRES
    81   39  164 1    
    82   40   41 2    
    83   40   42 1    
    84   42   43 1    
    85   42   44 1    
    86   42  165 1    
    87   43  166 1    
    88   43  167 1    
    89   43  168 1    
    90   44   45 am   BACKBONE|DICT|INTERRES
    91   44  169 1    
    92   45   46 2    
    93   45   47 1    
    94   47   48 1    
    95   47   49 1    
    96   47  170 1    
    97   48  171 1    
    98   48  172 1    
    99   48  173 1    
   100   49   50 am   BACKBONE|DICT|INTERRES
   101   49  174 1    
   102   50   51 2    
   103   50   52 1    
   104   52   53 1    
   105   52   54 1    
   106   52  175 1    
   107   53  176 1    
   108   53  177 1    
   109   53  178 1    
   110   54   55 am   BACKBONE|DICT|INTERRES
   111   54  179 1    
   112   55   56 2    
   113   55   57 1    
   114   57   58 1    
   115   57   59 1    
   116   57  180 1    
   117   58  181 1    
   118   58  182 1    
   119   58  183 1    
   120   59   60 am   BACKBONE|DICT|INTERRES
   121   59  184 1    
   122   60   61 2    
   123   60   62 1    
   124   62   63 1    
   125   62   64 1    
   126   62  185 1    
   127   63  186 1    
   128   63  187 1    
   129   63  188 1    
   130   64   65 am   BACKBONE|DICT|INTERRES
   131   64  189 1    
   132   65   66 2    
   133   67   68 2    
   134   67   69 am   BACKBONE|DICT|INTERRES
   135   69   70 1    
   136   69  190 1    
   137   70   71 1    
   138   70   72 1    
   139   70  191 1    
   140   71  192 1    
   141   71  193 1    
   142   71  194 1    
   143   72   73 2    
   144   72   74 am   BACKBONE|DICT|INTERRES
   145   74   75 1    
   146   74  195 1    
   147   75   76 1    
   148   75   77 1    
   149   75  196 1    
   150   76  197 1    
   151   76  198 1    
   152   76  199 1    
   153   77   78 2    
   154   77   79 am   BACKBONE|DICT|INTERRES
   155   79   80 1    
   156   79  200 1    
   157   80   81 1    
   158   80   82 1    
   159   80  201 1    
   160   81  202 1    
   161   81  203 1    
   162   81  204 1    
   163   82   83 2    
   164   82   84 am   BACKBONE|DICT|INTERRES
   165   84   85 1    
   166   84  205 1    
   167   85   86 1    
   168   85   87 1    
   169   85  206 1    
   170   86  207 1    
   171   86  208 1    
   172   86  209 1    
   173   87   88 2    
   174   87   89 am   BACKBONE|DICT|INTERRES
   175   89   90 1    
   176   89  210 1    
   177   90   91 1    
   178   90   92 1    
   179   90  211 1    
   180   91  212 1    
   181   91  213 1    
   182   91  214 1    
   183   92   93 2    
   184   92   94 am   BACKBONE|DICT|INTERRES
   185   94   95 1    
   186   94  215 1    
   187   95   96 1    
   188   95   97 1    
   189   95  216 1    
   190   96  217 1    
   191   96  218 1    
   192   96  219 1    
   193   97   98 2    
   194   97   99 am   BACKBONE|DICT|INTERRES
   195   99  100 1    
   196   99  220 1    
   197  100  101 1    
   198  100  102 1    
   199  100  221 1    
   200  101  222 1    
   201  101  223 1    
   202  101  224 1    
   203  102  103 2    
   204  102  104 am   BACKBONE|DICT|INTERRES
   205  104  105 1    
   206  104  225 1    
   207  105  106 1    
   208  105  107 1    
   209  105  226 1    
   210  106  227 1    
   211  106  228 1    
   212  106  229 1    
   213  107  108 2    
   214  107  109 am   BACKBONE|DICT|INTERRES
   215  109  110 1    
   216  109  230 1    
   217  110  111 1    
   218  110  112 1    
   219  110  231 1    
   220  111  232 1    
   221  111  233 1    
   222  111  234 1    
   223  112  113 2    
   224  112  114 am   BACKBONE|DICT|INTERRES
   225  114  115 1    
   226  114  235 1    
   227  115  116 1    
   228  115  117 1    
   229  115  236 1    
   230  116  237 1    
   231  116  238 1    
   232  116  239 1    
   233  117  118 2    
   234  117  119 am   BACKBONE|DICT|INTERRES
   235  119  120 1    
   236  119  240 1    
   237  120  121 1    
   238  120  124 1    
   239  120  241 1    
   240  121  122 am   BACKBONE|DICT|INTERRES
   241  121  123 2    
   242  122  242 1    
   243  122  243 1    
   244  124  125 1    
   245  124  244 1    
   246  124  245 1    
   247  125  126 1    
   248  126  246 1    
   249  126  247 1    
@<TRIPOS>SUBSTRUCTURE
     1 UNK         1 GROUP             0       ****    0 ROOT    
