@<TRIPOS>MOLECULE
3R540
247   249    1
SMALL
USER_CHARGES


@<TRIPOS>ATOM
      1 CA          2.7563   -8.6471  -48.7601 C.3       0 UNK        -0.1800 
      2 C           3.0297   -9.8559  -47.8774 C.2       0 UNK         0.5000 
      3 O           3.4706   -9.6962  -46.7395 O.2       0 UNK        -0.5000 
      4 N           2.7553  -11.0636  -48.3893 N.am      1 UNK        -0.5000 
      5 CA          2.9515  -12.3516  -47.7063 C.3       1 UNK         0.1400 
      6 C6          2.6900  -13.5520  -48.6531 C.3       23 UNK        -0.0398 
      7 S7          1.0105  -13.5653  -49.3839 S.3       23 UNK        -0.2404 
      8 C8          0.2907  -15.0671  -48.6501 C.3       23 UNK        -0.0205 
      9 C9          0.5502  -16.2878  -49.5188 C.ar      23 UNK        -0.0193 
     10 C10        -0.3236  -16.5921  -50.5676 C.ar      23 UNK        -0.1150 
     11 C11        -0.0903  -17.6999  -51.3868 C.ar      23 UNK        -0.0193 
     12 C12         1.0281  -18.5020  -51.1536 C.ar      23 UNK        -0.1150 
     13 C13         1.8944  -18.2253  -50.0934 C.ar      23 UNK        -0.0193 
     14 C14         1.6533  -17.1137  -49.2791 C.ar      23 UNK        -0.1150 
     15 C15         3.0831  -19.1381  -49.8317 C.3       23 UNK        -0.0205 
     16 S16         2.5602  -20.8287  -49.3979 S.3       23 UNK        -0.2404 
     17 C17         1.7573  -20.5330  -47.7901 C.3       23 UNK        -0.0398 
     18 CA          0.9973  -21.7727  -47.2634 C.3       11 UNK         0.1400 
     19 N           0.9013  -21.7601  -45.8030 N.am      11 UNK        -0.5000 
     20 C           0.5035  -22.7930  -45.0499 C.2       10 UNK         0.5000 
     21 O           0.1960  -23.8925  -45.5084 O.2       10 UNK        -0.5000 
     22 CA          0.3890  -22.5418  -43.5348 C.3       10 UNK         0.1400 
     23 CB          1.7634  -22.6394  -42.8565 C.3       10 UNK        -0.1800 
     24 N          -0.2263  -21.2503  -43.2227 N.am      10 UNK        -0.5000 
     25 C          -1.4886  -20.9241  -43.5368 C.2       9 UNK         0.5000 
     26 O          -2.2756  -21.6939  -44.0864 O.2       9 UNK        -0.5000 
     27 CA         -1.9369  -19.4851  -43.2291 C.3       9 UNK         0.1400 
     28 CB         -2.2875  -19.3295  -41.7420 C.3       9 UNK        -0.1800 
     29 N          -0.9379  -18.4868  -43.6101 N.am      9 UNK        -0.5000 
     30 C          -0.5091  -18.2772  -44.8635 C.2       8 UNK         0.5000 
     31 O          -0.9335  -18.8841  -45.8456 O.2       8 UNK        -0.5000 
     32 CA          0.6286  -17.2586  -45.0439 C.3       8 UNK         0.1400 
     33 CB          0.0953  -15.8226  -44.9399 C.3       8 UNK        -0.1800 
     34 N           1.7089  -17.4532  -44.0778 N.am      8 UNK        -0.5000 
     35 C           2.4341  -18.5729  -43.9481 C.2       7 UNK         0.5000 
     36 O           2.3065  -19.5596  -44.6699 O.2       7 UNK        -0.5000 
     37 CA          3.4296  -18.6215  -42.7793 C.3       7 UNK         0.1400 
     38 CB          4.7376  -17.9009  -43.1381 C.3       7 UNK        -0.1800 
     39 N           2.8564  -18.0448  -41.5643 N.am      7 UNK        -0.5000 
     40 C           1.8834  -18.6206  -40.8443 C.2       6 UNK         0.5000 
     41 O           1.3941  -19.7192  -41.1097 O.2       6 UNK        -0.5000 
     42 CA          1.3432  -17.8140  -39.6489 C.3       6 UNK         0.1400 
     43 CB          2.2498  -17.9883  -38.4214 C.3       6 UNK        -0.1800 
     44 N           1.1991  -16.3878  -39.9495 N.am      6 UNK        -0.5000 
     45 C           0.3074  -15.8917  -40.8179 C.2       5 UNK         0.5000 
     46 O          -0.4983  -16.5847  -41.4382 O.2       5 UNK        -0.5000 
     47 CA          0.3443  -14.3722  -41.0673 C.3       5 UNK         0.1400 
     48 CB         -0.4848  -13.6326  -40.0072 C.3       5 UNK        -0.1800 
     49 N           1.6866  -13.7846  -41.1261 N.am      5 UNK        -0.5000 
     50 C           2.6816  -14.1829  -41.9305 C.2       4 UNK         0.5000 
     51 O           2.6317  -15.1955  -42.6280 O.2       4 UNK        -0.5000 
     52 CA          3.9015  -13.2509  -42.0041 C.3       4 UNK         0.1400 
     53 CB          5.0786  -13.8694  -42.7789 C.3       4 UNK        -0.1800 
     54 N           3.4779  -12.0322  -42.6837 N.am      4 UNK        -0.5000 
     55 C           3.1557  -10.8800  -42.0807 C.2       3 UNK         0.5000 
     56 O           3.3132  -10.6718  -40.8773 O.2       3 UNK        -0.5000 
     57 CA          2.5019   -9.7935  -42.9592 C.3       3 UNK         0.1400 
     58 CB          3.5646   -8.8252  -43.4988 C.3       3 UNK        -0.1800 
     59 N           1.7404  -10.3541  -44.0788 N.am      3 UNK        -0.5000 
     60 C           0.6309  -11.0984  -43.9429 C.2       2 UNK         0.5000 
     61 O           0.0673  -11.2805  -42.8636 O.2       2 UNK        -0.5000 
     62 CA          0.0580  -11.7776  -45.2039 C.3       2 UNK         0.1400 
     63 CB         -1.2386  -11.0851  -45.6497 C.3       2 UNK        -0.1800 
     64 N           0.9756  -11.8290  -46.3434 N.am      2 UNK        -0.5000 
     65 C           2.1495  -12.4757  -46.3910 C.2       1 UNK         0.5000 
     66 O           2.6239  -13.1026  -45.4440 O.2       1 UNK        -0.5000 
     67 C          -0.3867  -21.9396  -47.9292 C.2       11 UNK         0.5000 
     68 O          -0.5251  -22.7474  -48.8474 O.2       11 UNK        -0.5000 
     69 N          -1.4011  -21.2266  -47.4178 N.am      12 UNK        -0.5000 
     70 CA         -2.7944  -21.3477  -47.8490 C.3       12 UNK         0.1400 
     71 CB         -3.6355  -20.2344  -47.2085 C.3       12 UNK        -0.1800 
     72 C          -3.3934  -22.7338  -47.5452 C.2       12 UNK         0.5000 
     73 O          -4.1146  -23.2717  -48.3829 O.2       12 UNK        -0.5000 
     74 N          -3.0564  -23.3059  -46.3797 N.am      13 UNK        -0.5000 
     75 CA         -3.4341  -24.6648  -45.9869 C.3       13 UNK         0.1400 
     76 CB         -3.1105  -24.8902  -44.5026 C.3       13 UNK        -0.1800 
     77 C          -2.7691  -25.7400  -46.8660 C.2       13 UNK         0.5000 
     78 O          -3.4352  -26.7005  -47.2522 O.2       13 UNK        -0.5000 
     79 N          -1.4883  -25.5432  -47.2126 N.am      14 UNK        -0.5000 
     80 CA         -0.7411  -26.3862  -48.1520 C.3       14 UNK         0.1400 
     81 CB          0.7440  -25.9943  -48.1295 C.3       14 UNK        -0.1800 
     82 C          -1.3051  -26.3306  -49.5867 C.2       14 UNK         0.5000 
     83 O          -1.2640  -27.3360  -50.2959 O.2       14 UNK        -0.5000 
     84 N          -1.8717  -25.1771  -49.9648 N.am      15 UNK        -0.5000 
     85 CA         -2.6189  -24.9558  -51.2044 C.3       15 UNK         0.1400 
     86 CB         -2.5714  -23.4594  -51.5528 C.3       15 UNK        -0.1800 
     87 C          -4.0757  -25.4723  -51.1509 C.2       15 UNK         0.5000 
     88 O          -4.8221  -25.2467  -52.1052 O.2       15 UNK        -0.5000 
     89 N          -4.4620  -26.1487  -50.0573 N.am      16 UNK        -0.5000 
     90 CA         -5.7615  -26.7651  -49.7841 C.3       16 UNK         0.1400 
     91 CB         -6.0136  -27.9557  -50.7360 C.3       16 UNK        -0.1800 
     92 C          -6.9004  -25.7290  -49.7709 C.2       16 UNK         0.5000 
     93 O          -7.1220  -25.0841  -48.7455 O.2       16 UNK        -0.5000 
     94 N          -7.5992  -25.5879  -50.9038 N.am      17 UNK        -0.5000 
     95 CA         -8.6479  -24.5918  -51.1192 C.3       17 UNK         0.1400 
     96 CB         -9.4842  -25.0146  -52.3372 C.3       17 UNK        -0.1800 
     97 C          -8.0953  -23.1666  -51.3200 C.2       17 UNK         0.5000 
     98 O          -8.8439  -22.2060  -51.1333 O.2       17 UNK        -0.5000 
     99 N          -6.8140  -23.0586  -51.7063 N.am      18 UNK        -0.5000 
    100 CA        -6.1092  -21.8333  -52.0869 C.3       18 UNK         0.1400 
    101 CB        -5.9061  -20.9054  -50.8689 C.3       18 UNK        -0.1800 
    102 C         -6.7633  -21.1564  -53.3113 C.2       18 UNK         0.5000 
    103 O         -7.2383  -21.8633  -54.2039 O.2       18 UNK        -0.5000 
    104 N         -6.7367  -19.8161  -53.3697 N.am      19 UNK        -0.5000 
    105 CA        -7.1882  -18.9825  -54.4905 C.3       19 UNK         0.1400 
    106 CB        -8.7289  -19.0143  -54.6077 C.3       19 UNK        -0.1800 
    107 C         -6.4454  -19.3657  -55.7878 C.2       19 UNK         0.5000 
    108 O         -5.2348  -19.1538  -55.8646 O.2       19 UNK        -0.5000 
    109 N         -7.1481  -19.9799  -56.7489 N.am      20 UNK        -0.5000 
    110 CA        -6.5828  -20.5195  -57.9882 C.3       20 UNK         0.1400 
    111 CB        -7.7266  -20.9998  -58.8939 C.3       20 UNK        -0.1800 
    112 C         -5.5603  -21.6532  -57.7626 C.2       20 UNK         0.5000 
    113 O         -4.6233  -21.7842  -58.5509 O.2       20 UNK        -0.5000 
    114 N         -5.7260  -22.4270  -56.6790 N.am      21 UNK        -0.5000 
    115 CA        -4.7993  -23.4877  -56.2720 C.3       21 UNK         0.1400 
    116 CB        -5.5402  -24.4967  -55.3795 C.3       21 UNK        -0.1800 
    117 C         -3.5415  -22.9485  -55.5599 C.2       21 UNK         0.5000 
    118 O         -2.5900  -23.7062  -55.3697 O.2       21 UNK        -0.5000 
    119 N         -3.5489  -21.6619  -55.1829 N.am      22 UNK        -0.5000 
    120 CA        -2.4121  -20.9555  -54.5721 C.3       22 UNK         0.1400 
    121 C         -1.2978  -20.5525  -55.5852 C.2       22 UNK         0.5000 
    122 N         -1.5253  -20.6265  -56.8921 N.am      22 UNK        -0.7600 
    123 O         -0.1990  -20.1837  -55.1830 O.2       22 UNK        -0.5000 
    124 C124       -2.9043  -19.7441  -53.7321 C.3       23 UNK        -0.0398 
    125 S125       -2.0045  -19.5324  -52.1623 S.3       23 UNK        -0.2404 
    126 C126       -1.0349  -18.0363  -52.5281 C.3       23 UNK        -0.0205 
    127 H127        3.6763   -8.0853  -48.9212 H         1 UNK         0.0600 
    128 H128        2.3594   -8.9370  -49.7333 H         1 UNK         0.0600 
    129 H129        2.0329   -7.9884  -48.2797 H         1 UNK         0.0600 
    130 H130        2.3776  -11.1278  -49.3245 H         1 UNK         0.3000 
    131 H131        4.0050  -12.3909  -47.4214 H         1 UNK         0.0600 
    132 H132        2.8880  -14.4930  -48.1377 H         1 UNK         0.0800 
    133 H133        3.4047  -13.5223  -49.4765 H         1 UNK         0.0800 
    134 H134       -0.7844  -14.9217  -48.5342 H         1 UNK         0.0800 
    135 H135        0.6851  -15.2186  -47.6459 H         1 UNK         0.0800 
    136 H136       -1.1819  -15.9604  -50.7490 H         1 UNK         0.1150 
    137 H137        1.2092  -19.3614  -51.7844 H         1 UNK         0.1150 
    138 H138        2.3233  -16.8911  -48.4609 H         1 UNK         0.1150 
    139 H139        3.7033  -19.1785  -50.7281 H         1 UNK         0.0800 
    140 H140        3.7158  -18.7411  -49.0362 H         1 UNK         0.0800 
    141 H141        1.1020  -19.6616  -47.8393 H         1 UNK         0.0800 
    142 H142        2.5611  -20.2668  -47.1042 H         1 UNK         0.0800 
    143 H143        1.5837  -22.6587  -47.5169 H         1 UNK         0.0600 
    144 H144        1.1872  -20.9010  -45.3392 H         1 UNK         0.3000 
    145 H145       -0.2490  -23.3235  -43.1176 H         1 UNK         0.0600 
    146 H146        1.6766  -22.5352  -41.7748 H         1 UNK         0.0600 
    147 H147        2.2283  -23.6059  -43.0545 H         1 UNK         0.0600 
    148 H148        2.4459  -21.8675  -43.2120 H         1 UNK         0.0600 
    149 H149        0.3530  -20.5718  -42.7406 H         1 UNK         0.3000 
    150 H150       -2.8391  -19.2888  -43.8119 H         1 UNK         0.0600 
    151 H151       -3.0319  -20.0655  -41.4361 H         1 UNK         0.0600 
    152 H152       -2.7032  -18.3427  -41.5375 H         1 UNK         0.0600 
    153 H153       -1.4121  -19.4613  -41.1053 H         1 UNK         0.0600 
    154 H154       -0.5667  -17.9099  -42.8605 H         1 UNK         0.3000 
    155 H155        1.0480  -17.3981  -46.0424 H         1 UNK         0.0600 
    156 H156       -0.3319  -15.6199  -43.9590 H         1 UNK         0.0600 
    157 H157       -0.6860  -15.6393  -45.6782 H         1 UNK         0.0600 
    158 H158        0.8898  -15.0980  -45.1119 H         1 UNK         0.0600 
    159 H159        1.9235  -16.6684  -43.4657 H         1 UNK         0.3000 
    160 H160        3.6655  -19.6692  -42.5812 H         1 UNK         0.0600 
    161 H161        5.4487  -17.9364  -42.3127 H         1 UNK         0.0600 
    162 H162        4.5689  -16.8548  -43.3928 H         1 UNK         0.0600 
    163 H163        5.2142  -18.3715  -43.9989 H         1 UNK         0.0600 
    164 H164        3.1403  -17.1035  -41.3334 H         1 UNK         0.3000 
    165 H165        0.3561  -18.2104  -39.4011 H         1 UNK         0.0600 
    166 H166        1.8322  -17.4861  -37.5486 H         1 UNK         0.0600 
    167 H167        2.3611  -19.0430  -38.1660 H         1 UNK         0.0600 
    168 H168        3.2483  -17.5853  -38.5955 H         1 UNK         0.0600 
    169 H169        1.8310  -15.7509  -39.4871 H         1 UNK         0.3000 
    170 H170       -0.1206  -14.1927  -42.0383 H         1 UNK         0.0600 
    171 H171       -1.4981  -14.0332  -39.9531 H         1 UNK         0.0600 
    172 H172       -0.0417  -13.7217  -39.0146 H         1 UNK         0.0600 
    173 H173       -0.5695  -12.5718  -40.2444 H         1 UNK         0.0600 
    174 H174        1.8143  -12.9253  -40.6104 H         1 UNK         0.3000 
    175 H175        4.2351  -13.0411  -40.9859 H         1 UNK         0.0600 
    176 H176        4.8024  -14.1205  -43.8041 H         1 UNK         0.0600 
    177 H177        5.9243  -13.1831  -42.8206 H         1 UNK         0.0600 
    178 H178        5.4251  -14.7834  -42.2955 H         1 UNK         0.0600 
    179 H179        3.2474  -12.1467  -43.6652 H         1 UNK         0.3000 
    180 H180        1.8112   -9.2279  -42.3304 H         1 UNK         0.0600 
    181 H181        4.2969   -9.3396  -44.1223 H         1 UNK         0.0600 
    182 H182        4.1071   -8.3471  -42.6823 H         1 UNK         0.0600 
    183 H183        3.1120   -8.0340  -44.0969 H         1 UNK         0.0600 
    184 H184        2.1471  -10.2455  -45.0002 H         1 UNK         0.3000 
    185 H185       -0.1823  -12.8060  -44.9283 H         1 UNK         0.0600 
    186 H186       -1.9680  -11.0585  -44.8390 H         1 UNK         0.0600 
    187 H187       -1.0567  -10.0560  -45.9619 H         1 UNK         0.0600 
    188 H188       -1.7019  -11.6135  -46.4831 H         1 UNK         0.0600 
    189 H189        0.6869  -11.3291  -47.1718 H         1 UNK         0.3000 
    190 H190       -1.2090  -20.5407  -46.6915 H         1 UNK         0.3000 
    191 H191       -2.8189  -21.2059  -48.9317 H         1 UNK         0.0600 
    192 H192       -3.6247  -20.2974  -46.1201 H         1 UNK         0.0600 
    193 H193       -4.6750  -20.2950  -47.5330 H         1 UNK         0.0600 
    194 H194       -3.2631  -19.2493  -47.4904 H         1 UNK         0.0600 
    195 H195       -2.5149  -22.7705  -45.7074 H         1 UNK         0.3000 
    196 H196       -4.5148  -24.7588  -46.1134 H         1 UNK         0.0600 
    197 H197       -3.4081  -25.8906  -44.1861 H         1 UNK         0.0600 
    198 H198       -3.6421  -24.1779  -43.8715 H         1 UNK         0.0600 
    199 H199       -2.0449  -24.7854  -44.3000 H         1 UNK         0.0600 
    200 H200       -0.9842  -24.7637  -46.7993 H         1 UNK         0.3000 
    201 H201       -0.8225  -27.4190  -47.8071 H         1 UNK         0.0600 
    202 H202        1.1613  -26.0877  -47.1267 H         1 UNK         0.0600 
    203 H203        0.8965  -24.9674  -48.4605 H         1 UNK         0.0600 
    204 H204        1.3274  -26.6402  -48.7866 H         1 UNK         0.0600 
    205 H205       -1.8007  -24.3830  -49.3384 H         1 UNK         0.3000 
    206 H206       -2.1208  -25.4989  -52.0099 H         1 UNK         0.0600 
    207 H207       -1.5452  -23.0951  -51.6048 H         1 UNK         0.0600 
    208 H208       -3.0283  -23.2764  -52.5244 H         1 UNK         0.0600 
    209 H209       -3.1044  -22.8540  -50.8203 H         1 UNK         0.0600 
    210 H210       -3.8000  -26.2221  -49.2947 H         1 UNK         0.3000 
    211 H211       -5.7036  -27.1676  -48.7718 H         1 UNK         0.0600 
    212 H212       -6.0024  -27.6642  -51.7864 H         1 UNK         0.0600 
    213 H213       -6.9785  -28.4216  -50.5319 H         1 UNK         0.0600 
    214 H214       -5.2517  -28.7238  -50.6026 H         1 UNK         0.0600 
    215 H215       -7.3217  -26.1360  -51.7055 H         1 UNK         0.3000 
    216 H216       -9.2999  -24.5755  -50.2433 H         1 UNK         0.0600 
    217 H217      -10.3017  -24.3138  -52.5118 H         1 UNK         0.0600 
    218 H218       -9.9273  -25.9997  -52.1905 H         1 UNK         0.0600 
    219 H219       -8.8815  -25.0472  -53.2461 H         1 UNK         0.0600 
    220 H220       -6.2890  -23.9167  -51.8450 H         1 UNK         0.3000 
    221 H221       -5.1228  -22.1530  -52.4220 H         1 UNK         0.0600 
    222 H222       -6.8425  -20.4569  -50.5356 H         1 UNK         0.0600 
    223 H223       -5.4868  -21.4572  -50.0274 H         1 UNK         0.0600 
    224 H224       -5.2085  -20.0983  -51.0944 H         1 UNK         0.0600 
    225 H225       -6.3223  -19.3151  -52.5969 H         1 UNK         0.3000 
    226 H226       -6.8944  -17.9574  -54.2606 H         1 UNK         0.0600 
    227 H227       -9.1925  -18.6538  -53.6893 H         1 UNK         0.0600 
    228 H228       -9.0751  -18.3679  -55.4152 H         1 UNK         0.0600 
    229 H229       -9.1141  -20.0172  -54.7940 H         1 UNK         0.0600 
    230 H230       -8.1297  -20.1522  -56.5871 H         1 UNK         0.3000 
    231 H231       -6.0620  -19.7060  -58.4976 H         1 UNK         0.0600 
    232 H232       -8.4110  -20.1851  -59.1316 H         1 UNK         0.0600 
    233 H233       -8.3031  -21.7980  -58.4245 H         1 UNK         0.0600 
    234 H234       -7.3413  -21.3849  -59.8390 H         1 UNK         0.0600 
    235 H235       -6.4917  -22.2319  -56.0405 H         1 UNK         0.3000 
    236 H236       -4.4638  -24.0185  -57.1655 H         1 UNK         0.0600 
    237 H237       -4.9026  -25.3497  -55.1437 H         1 UNK         0.0600 
    238 H238       -5.8450  -24.0543  -54.4319 H         1 UNK         0.0600 
    239 H239       -6.4319  -24.8838  -55.8724 H         1 UNK         0.0600 
    240 H240       -4.3410  -21.0848  -55.4354 H         1 UNK         0.3000 
    241 H241       -1.9371  -21.6637  -53.8916 H         1 UNK         0.0600 
    242 H242       -0.7926  -20.3715  -57.5357 H         1 UNK         0.3800 
    243 H243       -2.4175  -20.9351  -57.2466 H         1 UNK         0.3800 
    244 H244       -2.8941  -18.8195  -54.3124 H         1 UNK         0.0800 
    245 H245       -3.9453  -19.8842  -53.4466 H         1 UNK         0.0800 
    246 H246       -0.4544  -18.1853  -53.4389 H         1 UNK         0.0800 
    247 H247       -1.7141  -17.2051  -52.7241 H         1 UNK         0.0800 
@<TRIPOS>BOND
     1    1    2 1    
     2    1  127 1    
     3    1  128 1    
     4    1  129 1    
     5    2    3 2    
     6    2    4 am   BACKBONE|DICT|INTERRES
     7    4    5 1    
     8    4  130 1    
     9    5    6 1    
    10    5   65 1    
    11    5  131 1    
    12    6    7 1    
    13    6  132 1    
    14    6  133 1    
    15    7    8 1    
    16    8    9 1    
    17    8  134 1    
    18    8  135 1    
    19    9   10 ar   
    20    9   14 ar   
    21   10   11 ar   
    22   10  136 1    
    23   11   12 ar   
    24   11  126 1    
    25   12   13 ar   
    26   12  137 1    
    27   13   14 ar   
    28   13   15 1    
    29   14  138 1    
    30   15   16 1    
    31   15  139 1    
    32   15  140 1    
    33   16   17 1    
    34   17   18 1    
    35   17  141 1    
    36   17  142 1    
    37   18   19 1    
    38   18   67 1    
    39   18  143 1    
    40   19   20 am   BACKBONE|DICT|INTERRES
    41   19  144 1    
    42   20   21 2    
    43   20   22 1    
    44   22   23 1    
    45   22   24 1    
    46   22  145 1    
    47   23  146 1    
    48   23  147 1    
    49   23  148 1    
    50   24   25 am   BACKBONE|DICT|INTERRES
    51   24  149 1    
    52   25   26 2    
    53   25   27 1    
    54   27   28 1    
    55   27   29 1    
    56   27  150 1    
    57   28  151 1    
    58   28  152 1    
    59   28  153 1    
    60   29   30 am   BACKBONE|DICT|INTERRES
    61   29  154 1    
    62   30   31 2    
    63   30   32 1    
    64   32   33 1    
    65   32   34 1    
    66   32  155 1    
    67   33  156 1    
    68   33  157 1    
    69   33  158 1    
    70   34   35 am   BACKBONE|DICT|INTERRES
    71   34  159 1    
    72   35   36 2    
    73   35   37 1    
    74   37   38 1    
    75   37   39 1    
    76   37  160 1    
    77   38  161 1    
    78   38  162 1    
    79   38  163 1    
    80   39   40 am   BACKBONE|DICT|INTERRES
    81   39  164 1    
    82   40   41 2    
    83   40   42 1    
    84   42   43 1    
    85   42   44 1    
    86   42  165 1    
    87   43  166 1    
    88   43  167 1    
    89   43  168 1    
    90   44   45 am   BACKBONE|DICT|INTERRES
    91   44  169 1    
    92   45   46 2    
    93   45   47 1    
    94   47   48 1    
    95   47   49 1    
    96   47  170 1    
    97   48  171 1    
    98   48  172 1    
    99   48  173 1    
   100   49   50 am   BACKBONE|DICT|INTERRES
   101   49  174 1    
   102   50   51 2    
   103   50   52 1    
   104   52   53 1    
   105   52   54 1    
   106   52  175 1    
   107   53  176 1    
   108   53  177 1    
   109   53  178 1    
   110   54   55 am   BACKBONE|DICT|INTERRES
   111   54  179 1    
   112   55   56 2    
   113   55   57 1    
   114   57   58 1    
   115   57   59 1    
   116   57  180 1    
   117   58  181 1    
   118   58  182 1    
   119   58  183 1    
   120   59   60 am   BACKBONE|DICT|INTERRES
   121   59  184 1    
   122   60   61 2    
   123   60   62 1    
   124   62   63 1    
   125   62   64 1    
   126   62  185 1    
   127   63  186 1    
   128   63  187 1    
   129   63  188 1    
   130   64   65 am   BACKBONE|DICT|INTERRES
   131   64  189 1    
   132   65   66 2    
   133   67   68 2    
   134   67   69 am   BACKBONE|DICT|INTERRES
   135   69   70 1    
   136   69  190 1    
   137   70   71 1    
   138   70   72 1    
   139   70  191 1    
   140   71  192 1    
   141   71  193 1    
   142   71  194 1    
   143   72   73 2    
   144   72   74 am   BACKBONE|DICT|INTERRES
   145   74   75 1    
   146   74  195 1    
   147   75   76 1    
   148   75   77 1    
   149   75  196 1    
   150   76  197 1    
   151   76  198 1    
   152   76  199 1    
   153   77   78 2    
   154   77   79 am   BACKBONE|DICT|INTERRES
   155   79   80 1    
   156   79  200 1    
   157   80   81 1    
   158   80   82 1    
   159   80  201 1    
   160   81  202 1    
   161   81  203 1    
   162   81  204 1    
   163   82   83 2    
   164   82   84 am   BACKBONE|DICT|INTERRES
   165   84   85 1    
   166   84  205 1    
   167   85   86 1    
   168   85   87 1    
   169   85  206 1    
   170   86  207 1    
   171   86  208 1    
   172   86  209 1    
   173   87   88 2    
   174   87   89 am   BACKBONE|DICT|INTERRES
   175   89   90 1    
   176   89  210 1    
   177   90   91 1    
   178   90   92 1    
   179   90  211 1    
   180   91  212 1    
   181   91  213 1    
   182   91  214 1    
   183   92   93 2    
   184   92   94 am   BACKBONE|DICT|INTERRES
   185   94   95 1    
   186   94  215 1    
   187   95   96 1    
   188   95   97 1    
   189   95  216 1    
   190   96  217 1    
   191   96  218 1    
   192   96  219 1    
   193   97   98 2    
   194   97   99 am   BACKBONE|DICT|INTERRES
   195   99  100 1    
   196   99  220 1    
   197  100  101 1    
   198  100  102 1    
   199  100  221 1    
   200  101  222 1    
   201  101  223 1    
   202  101  224 1    
   203  102  103 2    
   204  102  104 am   BACKBONE|DICT|INTERRES
   205  104  105 1    
   206  104  225 1    
   207  105  106 1    
   208  105  107 1    
   209  105  226 1    
   210  106  227 1    
   211  106  228 1    
   212  106  229 1    
   213  107  108 2    
   214  107  109 am   BACKBONE|DICT|INTERRES
   215  109  110 1    
   216  109  230 1    
   217  110  111 1    
   218  110  112 1    
   219  110  231 1    
   220  111  232 1    
   221  111  233 1    
   222  111  234 1    
   223  112  113 2    
   224  112  114 am   BACKBONE|DICT|INTERRES
   225  114  115 1    
   226  114  235 1    
   227  115  116 1    
   228  115  117 1    
   229  115  236 1    
   230  116  237 1    
   231  116  238 1    
   232  116  239 1    
   233  117  118 2    
   234  117  119 am   BACKBONE|DICT|INTERRES
   235  119  120 1    
   236  119  240 1    
   237  120  121 1    
   238  120  124 1    
   239  120  241 1    
   240  121  122 am   BACKBONE|DICT|INTERRES
   241  121  123 2    
   242  122  242 1    
   243  122  243 1    
   244  124  125 1    
   245  124  244 1    
   246  124  245 1    
   247  125  126 1    
   248  126  246 1    
   249  126  247 1    
@<TRIPOS>SUBSTRUCTURE
     1 UNK         1 GROUP             0       ****    0 ROOT    
