@<TRIPOS>MOLECULE
3R540
247   249    1
SMALL
USER_CHARGES


@<TRIPOS>ATOM
      1 CA          2.7950  -12.8333  -51.4774 C.3       0 UNK        -0.1800 
      2 C           2.0031  -11.7491  -50.7475 C.2       0 UNK         0.5000 
      3 O           1.8514  -10.6510  -51.2797 O.2       0 UNK        -0.5000 
      4 N           1.4715  -12.0050  -49.5453 N.am      1 UNK        -0.5000 
      5 CA          1.6322  -13.2351  -48.7627 C.3       1 UNK         0.1400 
      6 C6          0.4717  -13.4481  -47.7610 C.3       23 UNK        -0.0398 
      7 S7         -1.1564  -13.5422  -48.5800 S.3       23 UNK        -0.2404 
      8 C8         -1.3898  -15.3395  -48.7602 C.3       23 UNK        -0.0205 
      9 C9         -0.3265  -15.9727  -49.6434 C.ar      23 UNK        -0.0193 
     10 C10        -0.3403  -15.7535  -51.0216 C.ar      23 UNK        -0.1150 
     11 C11         0.6090  -16.3626  -51.8457 C.ar      23 UNK        -0.0193 
     12 C12         1.5861  -17.1851  -51.2769 C.ar      23 UNK        -0.1150 
     13 C13         1.6212  -17.4100  -49.8970 C.ar      23 UNK        -0.0193 
     14 C14         0.6639  -16.7863  -49.0868 C.ar      23 UNK        -0.1150 
     15 C15         2.7066  -18.3273  -49.3255 C.3       23 UNK        -0.0205 
     16 S16         2.2763  -19.1831  -47.7670 S.3       23 UNK        -0.2404 
     17 C17         0.7379  -20.0292  -48.2518 C.3       23 UNK        -0.0398 
     18 CA          0.4905  -21.3769  -47.5315 C.3       11 UNK         0.1400 
     19 N           0.4015  -21.2580  -46.0683 N.am      11 UNK        -0.5000 
     20 C           0.2051  -22.2904  -45.2305 C.2       10 UNK         0.5000 
     21 O           0.1673  -23.4660  -45.5920 O.2       10 UNK        -0.5000 
     22 CA         -0.0589  -21.9714  -43.7475 C.3       10 UNK         0.1400 
     23 CB          1.2516  -21.9455  -42.9477 C.3       10 UNK        -0.1800 
     24 N          -0.8140  -20.7334  -43.5436 N.am      10 UNK        -0.5000 
     25 C          -2.0662  -20.5300  -43.9812 C.2       9 UNK         0.5000 
     26 O          -2.7172  -21.3750  -44.5962 O.2       9 UNK        -0.5000 
     27 CA         -2.6890  -19.1467  -43.7183 C.3       9 UNK         0.1400 
     28 CB         -3.3292  -19.0961  -42.3235 C.3       9 UNK        -0.1800 
     29 N          -1.7238  -18.0566  -43.8521 N.am      9 UNK        -0.5000 
     30 C          -1.1400  -17.6945  -45.0036 C.2       8 UNK         0.5000 
     31 O          -1.4079  -18.1962  -46.0960 O.2       8 UNK        -0.5000 
     32 CA         -0.0330  -16.6276  -44.9032 C.3       8 UNK         0.1400 
     33 CB         -0.6348  -15.2201  -44.7754 C.3       8 UNK        -0.1800 
     34 N           0.8753  -16.8701  -43.7838 N.am      8 UNK        -0.5000 
     35 C           1.6263  -17.9690  -43.6280 C.2       7 UNK         0.5000 
     36 O           1.6712  -18.8884  -44.4435 O.2       7 UNK        -0.5000 
     37 CA          2.3995  -18.0952  -42.3041 C.3       7 UNK         0.1400 
     38 CB          3.7425  -17.3566  -42.3689 C.3       7 UNK        -0.1800 
     39 N           1.6198  -17.5970  -41.1712 N.am      7 UNK        -0.5000 
     40 C           0.5603  -18.2284  -40.6478 C.2       6 UNK         0.5000 
     41 O           0.1551  -19.3216  -41.0407 O.2       6 UNK        -0.5000 
     42 CA         -0.1944  -17.4970  -39.5219 C.3       6 UNK         0.1400 
     43 CB          0.5032  -17.7138  -38.1707 C.3       6 UNK        -0.1800 
     44 N          -0.3271  -16.0613  -39.7748 N.am      6 UNK        -0.5000 
     45 C          -1.0671  -15.5348  -40.7606 C.2       5 UNK         0.5000 
     46 O          -1.7546  -16.2078  -41.5284 O.2       5 UNK        -0.5000 
     47 CA         -0.9935  -14.0052  -40.9483 C.3       5 UNK         0.1400 
     48 CB         -2.0576  -13.3090  -40.0870 C.3       5 UNK        -0.1800 
     49 N           0.3219  -13.4226  -40.6560 N.am      5 UNK        -0.5000 
     50 C           1.4726  -13.7744  -41.2467 C.2       4 UNK         0.5000 
     51 O           1.5551  -14.6734  -42.0841 O.2       4 UNK        -0.5000 
     52 CA          2.7380  -13.0388  -40.7659 C.3       4 UNK         0.1400 
     53 CB          3.0844  -13.4579  -39.3268 C.3       4 UNK        -0.1800 
     54 N           3.9072  -13.3003  -41.6069 N.am      4 UNK        -0.5000 
     55 C           4.1077  -12.8369  -42.8480 C.2       3 UNK         0.5000 
     56 O           3.3207  -12.0892  -43.4332 O.2       3 UNK        -0.5000 
     57 CA          5.4517  -13.2084  -43.5217 C.3       3 UNK         0.1400 
     58 CB          6.2366  -14.3337  -42.8095 C.3       3 UNK        -0.1800 
     59 N           5.3444  -13.5082  -44.9534 N.am      3 UNK        -0.5000 
     60 C           4.5646  -14.4272  -45.5391 C.2       2 UNK         0.5000 
     61 O           3.7422  -15.1296  -44.9506 O.2       2 UNK        -0.5000 
     62 CA          4.7757  -14.6272  -47.0507 C.3       2 UNK         0.1400 
     63 CB          5.3113  -16.0380  -47.3431 C.3       2 UNK        -0.1800 
     64 N           3.5321  -14.4274  -47.7886 N.am      2 UNK        -0.5000 
     65 C           2.9807  -13.2305  -48.0185 C.2       1 UNK         0.5000 
     66 O           3.4895  -12.1631  -47.6670 O.2       1 UNK        -0.5000 
     67 C          -0.7835  -22.0198  -48.1123 C.2       11 UNK         0.5000 
     68 O          -0.6974  -23.0276  -48.8138 O.2       11 UNK        -0.5000 
     69 N          -1.9430  -21.4401  -47.7681 N.am      12 UNK        -0.5000 
     70 CA         -3.2587  -21.9022  -48.2029 C.3       12 UNK         0.1400 
     71 CB         -4.3279  -20.8787  -47.7959 C.3       12 UNK        -0.1800 
     72 C          -3.6010  -23.3047  -47.6756 C.2       12 UNK         0.5000 
     73 O          -4.1572  -24.1056  -48.4255 O.2       12 UNK        -0.5000 
     74 N          -3.2335  -23.5919  -46.4199 N.am      13 UNK        -0.5000 
     75 CA         -3.3992  -24.9025  -45.7927 C.3       13 UNK         0.1400 
     76 CB         -3.0572  -24.8084  -44.2984 C.3       13 UNK        -0.1800 
     77 C          -2.5648  -25.9997  -46.4798 C.2       13 UNK         0.5000 
     78 O          -3.0982  -27.0715  -46.7678 O.2       13 UNK        -0.5000 
     79 N          -1.2850  -25.7075  -46.7531 N.am      14 UNK        -0.5000 
     80 CA         -0.3506  -26.6201  -47.4147 C.3       14 UNK         0.1400 
     81 CB          1.0790  -26.0723  -47.2879 C.3       14 UNK        -0.1800 
     82 C          -0.7013  -26.8736  -48.8914 C.2       14 UNK         0.5000 
     83 O          -0.6089  -28.0124  -49.3513 O.2       14 UNK        -0.5000 
     84 N          -1.1057  -25.8140  -49.6033 N.am      15 UNK        -0.5000 
     85 CA         -1.4765  -25.8590  -51.0188 C.3       15 UNK         0.1400 
     86 CB         -1.3405  -24.4460  -51.6011 C.3       15 UNK        -0.1800 
     87 C          -2.8969  -26.4020  -51.2735 C.2       15 UNK         0.5000 
     88 O          -3.2362  -26.6549  -52.4302 O.2       15 UNK        -0.5000 
     89 N          -3.7034  -26.5415  -50.2095 N.am      16 UNK        -0.5000 
     90 CA         -5.1252  -26.9033  -50.2110 C.3       16 UNK         0.1400 
     91 CB         -5.3300  -28.3549  -50.6917 C.3       16 UNK        -0.1800 
     92 C          -5.9647  -25.8718  -50.9930 C.2       16 UNK         0.5000 
     93 O          -6.6952  -26.2246  -51.9200 O.2       16 UNK        -0.5000 
     94 N          -5.7803  -24.5962  -50.6271 N.am      17 UNK        -0.5000 
     95 CA         -6.3570  -23.3628  -51.1774 C.3       17 UNK         0.1400 
     96 CB         -7.8946  -23.3763  -51.0969 C.3       17 UNK        -0.1800 
     97 C          -5.8809  -22.9856  -52.5947 C.2       17 UNK         0.5000 
     98 O          -5.8820  -21.7969  -52.9160 O.2       17 UNK        -0.5000 
     99 N          -5.4738  -23.9719  -53.4053 N.am      18 UNK        -0.5000 
    100 CA        -5.0258  -23.8593  -54.7956 C.3       18 UNK         0.1400 
    101 CB        -3.6546  -23.1529  -54.8749 C.3       18 UNK        -0.1800 
    102 C         -6.1152  -23.2270  -55.6863 C.2       18 UNK         0.5000 
    103 O         -7.1729  -23.8331  -55.8617 O.2       18 UNK        -0.5000 
    104 N         -5.8646  -22.0180  -56.2031 N.am      19 UNK        -0.5000 
    105 CA        -6.7807  -21.2393  -57.0411 C.3       19 UNK         0.1400 
    106 CB        -5.9415  -20.4343  -58.0499 C.3       19 UNK        -0.1800 
    107 C         -7.7109  -20.3298  -56.2064 C.2       19 UNK         0.5000 
    108 O         -8.1094  -19.2659  -56.6828 O.2       19 UNK        -0.5000 
    109 N         -8.0063  -20.7440  -54.9642 N.am      20 UNK        -0.5000 
    110 CA        -8.6769  -19.9846  -53.8998 C.3       20 UNK         0.1400 
    111 CB       -10.1244  -19.6162  -54.2867 C.3       20 UNK        -0.1800 
    112 C         -7.8409  -18.7737  -53.4289 C.2       20 UNK         0.5000 
    113 O         -8.3925  -17.7746  -52.9642 O.2       20 UNK        -0.5000 
    114 N         -6.5172  -18.9037  -53.5550 N.am      21 UNK        -0.5000 
    115 CA        -5.4815  -17.9389  -53.2230 C.3       21 UNK         0.1400 
    116 CB        -5.5389  -16.7191  -54.1618 C.3       21 UNK        -0.1800 
    117 C         -4.1380  -18.6633  -53.3677 C.2       21 UNK         0.5000 
    118 O         -3.9843  -19.4803  -54.2794 O.2       21 UNK        -0.5000 
    119 N         -3.2003  -18.3515  -52.4679 N.am      22 UNK        -0.5000 
    120 CA        -1.8183  -18.8687  -52.4111 C.3       22 UNK         0.1400 
    121 C         -1.6685  -20.3747  -52.0401 C.2       22 UNK         0.5000 
    122 N         -2.7366  -21.1510  -51.9161 N.am      22 UNK        -0.7600 
    123 O         -0.5546  -20.8423  -51.8252 O.2       22 UNK        -0.5000 
    124 C124       -0.9680  -18.5144  -53.6667 C.3       23 UNK        -0.0398 
    125 S125       -0.9934  -16.7357  -54.0902 S.3       23 UNK        -0.2404 
    126 C126        0.5657  -16.1460  -53.3515 C.3       23 UNK        -0.0205 
    127 H127        3.1802  -12.4534  -52.4238 H         1 UNK         0.0600 
    128 H128        2.1607  -13.6915  -51.6994 H         1 UNK         0.0600 
    129 H129        3.6462  -13.1672  -50.8847 H         1 UNK         0.0600 
    130 H130        0.9629  -11.2688  -49.0784 H         1 UNK         0.3000 
    131 H131        1.6393  -14.0817  -49.4486 H         1 UNK         0.0600 
    132 H132        0.6285  -14.3613  -47.1861 H         1 UNK         0.0800 
    133 H133        0.4374  -12.6348  -47.0337 H         1 UNK         0.0800 
    134 H134       -2.3715  -15.5220  -49.1994 H         1 UNK         0.0800 
    135 H135       -1.4087  -15.8137  -47.7791 H         1 UNK         0.0800 
    136 H136       -1.1020  -15.1212  -51.4563 H         1 UNK         0.1150 
    137 H137        2.3192  -17.6609  -51.9133 H         1 UNK         0.1150 
    138 H138        0.6732  -16.9474  -48.0207 H         1 UNK         0.1150 
    139 H139        2.9693  -19.0880  -50.0624 H         1 UNK         0.0800 
    140 H140        3.6080  -17.7372  -49.1623 H         1 UNK         0.0800 
    141 H141        0.7679  -20.1906  -49.3317 H         1 UNK         0.0800 
    142 H142       -0.0900  -19.3418  -48.0755 H         1 UNK         0.0800 
    143 H143        1.3273  -22.0421  -47.7540 H         1 UNK         0.0600 
    144 H144        0.4821  -20.3252  -45.6799 H         1 UNK         0.3000 
    145 H145       -0.6679  -22.7819  -43.3440 H         1 UNK         0.0600 
    146 H146        1.0693  -21.7493  -41.8913 H         1 UNK         0.0600 
    147 H147        1.7618  -22.9071  -43.0144 H         1 UNK         0.0600 
    148 H148        1.9415  -21.1898  -43.3192 H         1 UNK         0.0600 
    149 H149       -0.3592  -20.0065  -43.0043 H         1 UNK         0.3000 
    150 H150       -3.4760  -18.9924  -44.4596 H         1 UNK         0.0600 
    151 H151       -4.0673  -19.8900  -42.2029 H         1 UNK         0.0600 
    152 H152       -3.8411  -18.1476  -42.1597 H         1 UNK         0.0600 
    153 H153       -2.5860  -19.2143  -41.5343 H         1 UNK         0.0600 
    154 H154       -1.4887  -17.5501  -43.0043 H         1 UNK         0.3000 
    155 H155        0.5638  -16.6675  -45.8142 H         1 UNK         0.0600 
    156 H156       -1.2667  -15.1332  -43.8939 H         1 UNK         0.0600 
    157 H157       -1.2573  -14.9749  -45.6347 H         1 UNK         0.0600 
    158 H158        0.1446  -14.4608  -44.7045 H         1 UNK         0.0600 
    159 H159        0.9687  -16.1258  -43.0968 H         1 UNK         0.3000 
    160 H160        2.6084  -19.1539  -42.1385 H         1 UNK         0.0600 
    161 H161        3.5995  -16.2832  -42.4858 H         1 UNK         0.0600 
    162 H162        4.3376  -17.7006  -43.2158 H         1 UNK         0.0600 
    163 H163        4.3298  -17.5215  -41.4657 H         1 UNK         0.0600 
    164 H164        1.8364  -16.6637  -40.8528 H         1 UNK         0.3000 
    165 H165       -1.1969  -17.9260  -39.4608 H         1 UNK         0.0600 
    166 H166       -0.0668  -17.2659  -37.3566 H         1 UNK         0.0600 
    167 H167        0.6026  -18.7774  -37.9498 H         1 UNK         0.0600 
    168 H168        1.5043  -17.2808  -38.1582 H         1 UNK         0.0600 
    169 H169        0.2060  -15.4386  -39.1862 H         1 UNK         0.3000 
    170 H170       -1.2160  -13.7913  -41.9946 H         1 UNK         0.0600 
    171 H171       -3.0518  -13.7051  -40.2988 H         1 UNK         0.0600 
    172 H172       -1.8686  -13.4487  -39.0219 H         1 UNK         0.0600 
    173 H173       -2.0881  -12.2376  -40.2859 H         1 UNK         0.0600 
    174 H174        0.3370  -12.6863  -39.9651 H         1 UNK         0.3000 
    175 H175        2.5347  -11.9661  -40.7837 H         1 UNK         0.0600 
    176 H176        3.2807  -14.5287  -39.2557 H         1 UNK         0.0600 
    177 H177        3.9681  -12.9315  -38.9653 H         1 UNK         0.0600 
    178 H178        2.2722  -13.2269  -38.6367 H         1 UNK         0.0600 
    179 H179        4.5997  -13.9227  -41.2191 H         1 UNK         0.3000 
    180 H180        6.0608  -12.3058  -43.4564 H         1 UNK         0.0600 
    181 H181        5.6889  -15.2750  -42.8097 H         1 UNK         0.0600 
    182 H182        6.4662  -14.0753  -41.7753 H         1 UNK         0.0600 
    183 H183        7.1909  -14.5130  -43.3048 H         1 UNK         0.0600 
    184 H184        5.9435  -12.9532  -45.5479 H         1 UNK         0.3000 
    185 H185        5.5141  -13.9074  -47.4111 H         1 UNK         0.0600 
    186 H186        4.6097  -16.8105  -47.0244 H         1 UNK         0.0600 
    187 H187        5.5043  -16.1750  -48.4072 H         1 UNK         0.0600 
    188 H188        6.2507  -16.2137  -46.8175 H         1 UNK         0.0600 
    189 H189        3.0458  -15.2652  -48.0716 H         1 UNK         0.3000 
    190 H190       -1.9241  -20.6451  -47.1439 H         1 UNK         0.3000 
    191 H191       -3.2454  -21.9594  -49.2923 H         1 UNK         0.0600 
    192 H192       -4.3746  -20.7517  -46.7138 H         1 UNK         0.0600 
    193 H193       -5.3165  -21.1923  -48.1334 H         1 UNK         0.0600 
    194 H194       -4.1273  -19.9032  -48.2395 H         1 UNK         0.0600 
    195 H195       -2.8319  -22.8537  -45.8485 H         1 UNK         0.3000 
    196 H196       -4.4517  -25.1799  -45.8807 H         1 UNK         0.0600 
    197 H197       -3.2423  -25.7588  -43.7964 H         1 UNK         0.0600 
    198 H198       -3.6644  -24.0523  -43.8002 H         1 UNK         0.0600 
    199 H199       -2.0095  -24.5545  -44.1412 H         1 UNK         0.0600 
    200 H200       -0.9080  -24.8085  -46.4636 H         1 UNK         0.3000 
    201 H201       -0.3918  -27.5794  -46.8946 H         1 UNK         0.0600 
    202 H202        1.3712  -25.9741  -46.2423 H         1 UNK         0.0600 
    203 H203        1.1760  -25.0913  -47.7551 H         1 UNK         0.0600 
    204 H204        1.7984  -26.7383  -47.7658 H         1 UNK         0.0600 
    205 H205       -1.1028  -24.8956  -49.1661 H         1 UNK         0.3000 
    206 H206       -0.7758  -26.5112  -51.5440 H         1 UNK         0.0600 
    207 H207       -0.3432  -24.0389  -51.4321 H         1 UNK         0.0600 
    208 H208       -1.5077  -24.4489  -52.6773 H         1 UNK         0.0600 
    209 H209       -2.0616  -23.7657  -51.1492 H         1 UNK         0.0600 
    210 H210       -3.3300  -26.2670  -49.3105 H         1 UNK         0.3000 
    211 H211       -5.4569  -26.8500  -49.1729 H         1 UNK         0.0600 
    212 H212       -5.0569  -28.4825  -51.7394 H         1 UNK         0.0600 
    213 H213       -6.3737  -28.6537  -50.5890 H         1 UNK         0.0600 
    214 H214       -4.7331  -29.0513  -50.1026 H         1 UNK         0.0600 
    215 H215       -5.1330  -24.4421  -49.8534 H         1 UNK         0.3000 
    216 H216       -6.0043  -22.5662  -50.5204 H         1 UNK         0.0600 
    217 H217       -8.3060  -22.4036  -51.3674 H         1 UNK         0.0600 
    218 H218       -8.2346  -23.6013  -50.0860 H         1 UNK         0.0600 
    219 H219       -8.3321  -24.1127  -51.7714 H         1 UNK         0.0600 
    220 H220       -5.5873  -24.9179  -53.0591 H         1 UNK         0.3000 
    221 H221       -4.8900  -24.8790  -55.1586 H         1 UNK         0.0600 
    222 H222       -3.6826  -22.1404  -54.4738 H         1 UNK         0.0600 
    223 H223       -2.9048  -23.7066  -54.3136 H         1 UNK         0.0600 
    224 H224       -3.2996  -23.0940  -55.9044 H         1 UNK         0.0600 
    225 H225       -4.9985  -21.5618  -55.9487 H         1 UNK         0.3000 
    226 H226       -7.4218  -21.9183  -57.6069 H         1 UNK         0.0600 
    227 H227       -5.2936  -21.0880  -58.6343 H         1 UNK         0.0600 
    228 H228       -6.5776  -19.8990  -58.7559 H         1 UNK         0.0600 
    229 H229       -5.3115  -19.6982  -57.5486 H         1 UNK         0.0600 
    230 H230       -7.6010  -21.6224  -54.6707 H         1 UNK         0.3000 
    231 H231       -8.7315  -20.6578  -53.0438 H         1 UNK         0.0600 
    232 H232      -10.6757  -20.4911  -54.6311 H         1 UNK         0.0600 
    233 H233      -10.1577  -18.8647  -55.0756 H         1 UNK         0.0600 
    234 H234      -10.6639  -19.2102  -53.4303 H         1 UNK         0.0600 
    235 H235       -6.1519  -19.7909  -53.8862 H         1 UNK         0.3000 
    236 H236       -5.6169  -17.6192  -52.1880 H         1 UNK         0.0600 
    237 H237       -4.7178  -16.0309  -53.9571 H         1 UNK         0.0600 
    238 H238       -5.4646  -17.0175  -55.2085 H         1 UNK         0.0600 
    239 H239       -6.4662  -16.1601  -54.0384 H         1 UNK         0.0600 
    240 H240       -3.4294  -17.6792  -51.7509 H         1 UNK         0.3000 
    241 H241       -1.3720  -18.3506  -51.5632 H         1 UNK         0.0600 
    242 H242       -2.5972  -22.1190  -51.6874 H         1 UNK         0.3800 
    243 H243       -3.6504  -20.8113  -52.1753 H         1 UNK         0.3800 
    244 H244        0.0690  -18.8244  -53.5271 H         1 UNK         0.0800 
    245 H245       -1.3287  -19.0699  -54.5336 H         1 UNK         0.0800 
    246 H246        0.6741  -15.0806  -53.5589 H         1 UNK         0.0800 
    247 H247        1.4039  -16.6420  -53.8433 H         1 UNK         0.0800 
@<TRIPOS>BOND
     1    1    2 1    
     2    1  127 1    
     3    1  128 1    
     4    1  129 1    
     5    2    3 2    
     6    2    4 am   BACKBONE|DICT|INTERRES
     7    4    5 1    
     8    4  130 1    
     9    5    6 1    
    10    5   65 1    
    11    5  131 1    
    12    6    7 1    
    13    6  132 1    
    14    6  133 1    
    15    7    8 1    
    16    8    9 1    
    17    8  134 1    
    18    8  135 1    
    19    9   10 ar   
    20    9   14 ar   
    21   10   11 ar   
    22   10  136 1    
    23   11   12 ar   
    24   11  126 1    
    25   12   13 ar   
    26   12  137 1    
    27   13   14 ar   
    28   13   15 1    
    29   14  138 1    
    30   15   16 1    
    31   15  139 1    
    32   15  140 1    
    33   16   17 1    
    34   17   18 1    
    35   17  141 1    
    36   17  142 1    
    37   18   19 1    
    38   18   67 1    
    39   18  143 1    
    40   19   20 am   BACKBONE|DICT|INTERRES
    41   19  144 1    
    42   20   21 2    
    43   20   22 1    
    44   22   23 1    
    45   22   24 1    
    46   22  145 1    
    47   23  146 1    
    48   23  147 1    
    49   23  148 1    
    50   24   25 am   BACKBONE|DICT|INTERRES
    51   24  149 1    
    52   25   26 2    
    53   25   27 1    
    54   27   28 1    
    55   27   29 1    
    56   27  150 1    
    57   28  151 1    
    58   28  152 1    
    59   28  153 1    
    60   29   30 am   BACKBONE|DICT|INTERRES
    61   29  154 1    
    62   30   31 2    
    63   30   32 1    
    64   32   33 1    
    65   32   34 1    
    66   32  155 1    
    67   33  156 1    
    68   33  157 1    
    69   33  158 1    
    70   34   35 am   BACKBONE|DICT|INTERRES
    71   34  159 1    
    72   35   36 2    
    73   35   37 1    
    74   37   38 1    
    75   37   39 1    
    76   37  160 1    
    77   38  161 1    
    78   38  162 1    
    79   38  163 1    
    80   39   40 am   BACKBONE|DICT|INTERRES
    81   39  164 1    
    82   40   41 2    
    83   40   42 1    
    84   42   43 1    
    85   42   44 1    
    86   42  165 1    
    87   43  166 1    
    88   43  167 1    
    89   43  168 1    
    90   44   45 am   BACKBONE|DICT|INTERRES
    91   44  169 1    
    92   45   46 2    
    93   45   47 1    
    94   47   48 1    
    95   47   49 1    
    96   47  170 1    
    97   48  171 1    
    98   48  172 1    
    99   48  173 1    
   100   49   50 am   BACKBONE|DICT|INTERRES
   101   49  174 1    
   102   50   51 2    
   103   50   52 1    
   104   52   53 1    
   105   52   54 1    
   106   52  175 1    
   107   53  176 1    
   108   53  177 1    
   109   53  178 1    
   110   54   55 am   BACKBONE|DICT|INTERRES
   111   54  179 1    
   112   55   56 2    
   113   55   57 1    
   114   57   58 1    
   115   57   59 1    
   116   57  180 1    
   117   58  181 1    
   118   58  182 1    
   119   58  183 1    
   120   59   60 am   BACKBONE|DICT|INTERRES
   121   59  184 1    
   122   60   61 2    
   123   60   62 1    
   124   62   63 1    
   125   62   64 1    
   126   62  185 1    
   127   63  186 1    
   128   63  187 1    
   129   63  188 1    
   130   64   65 am   BACKBONE|DICT|INTERRES
   131   64  189 1    
   132   65   66 2    
   133   67   68 2    
   134   67   69 am   BACKBONE|DICT|INTERRES
   135   69   70 1    
   136   69  190 1    
   137   70   71 1    
   138   70   72 1    
   139   70  191 1    
   140   71  192 1    
   141   71  193 1    
   142   71  194 1    
   143   72   73 2    
   144   72   74 am   BACKBONE|DICT|INTERRES
   145   74   75 1    
   146   74  195 1    
   147   75   76 1    
   148   75   77 1    
   149   75  196 1    
   150   76  197 1    
   151   76  198 1    
   152   76  199 1    
   153   77   78 2    
   154   77   79 am   BACKBONE|DICT|INTERRES
   155   79   80 1    
   156   79  200 1    
   157   80   81 1    
   158   80   82 1    
   159   80  201 1    
   160   81  202 1    
   161   81  203 1    
   162   81  204 1    
   163   82   83 2    
   164   82   84 am   BACKBONE|DICT|INTERRES
   165   84   85 1    
   166   84  205 1    
   167   85   86 1    
   168   85   87 1    
   169   85  206 1    
   170   86  207 1    
   171   86  208 1    
   172   86  209 1    
   173   87   88 2    
   174   87   89 am   BACKBONE|DICT|INTERRES
   175   89   90 1    
   176   89  210 1    
   177   90   91 1    
   178   90   92 1    
   179   90  211 1    
   180   91  212 1    
   181   91  213 1    
   182   91  214 1    
   183   92   93 2    
   184   92   94 am   BACKBONE|DICT|INTERRES
   185   94   95 1    
   186   94  215 1    
   187   95   96 1    
   188   95   97 1    
   189   95  216 1    
   190   96  217 1    
   191   96  218 1    
   192   96  219 1    
   193   97   98 2    
   194   97   99 am   BACKBONE|DICT|INTERRES
   195   99  100 1    
   196   99  220 1    
   197  100  101 1    
   198  100  102 1    
   199  100  221 1    
   200  101  222 1    
   201  101  223 1    
   202  101  224 1    
   203  102  103 2    
   204  102  104 am   BACKBONE|DICT|INTERRES
   205  104  105 1    
   206  104  225 1    
   207  105  106 1    
   208  105  107 1    
   209  105  226 1    
   210  106  227 1    
   211  106  228 1    
   212  106  229 1    
   213  107  108 2    
   214  107  109 am   BACKBONE|DICT|INTERRES
   215  109  110 1    
   216  109  230 1    
   217  110  111 1    
   218  110  112 1    
   219  110  231 1    
   220  111  232 1    
   221  111  233 1    
   222  111  234 1    
   223  112  113 2    
   224  112  114 am   BACKBONE|DICT|INTERRES
   225  114  115 1    
   226  114  235 1    
   227  115  116 1    
   228  115  117 1    
   229  115  236 1    
   230  116  237 1    
   231  116  238 1    
   232  116  239 1    
   233  117  118 2    
   234  117  119 am   BACKBONE|DICT|INTERRES
   235  119  120 1    
   236  119  240 1    
   237  120  121 1    
   238  120  124 1    
   239  120  241 1    
   240  121  122 am   BACKBONE|DICT|INTERRES
   241  121  123 2    
   242  122  242 1    
   243  122  243 1    
   244  124  125 1    
   245  124  244 1    
   246  124  245 1    
   247  125  126 1    
   248  126  246 1    
   249  126  247 1    
@<TRIPOS>SUBSTRUCTURE
     1 UNK         1 GROUP             0       ****    0 ROOT    
