@<TRIPOS>MOLECULE
3R540
247   249    1
SMALL
USER_CHARGES


@<TRIPOS>ATOM
      1 CA         -0.7448  -15.5948  -51.9171 C.3       0 UNK        -0.1800 
      2 C           0.0644  -14.3371  -51.6405 C.2       0 UNK         0.5000 
      3 O          -0.4221  -13.2352  -51.8952 O.2       0 UNK        -0.5000 
      4 N           1.2869  -14.4879  -51.1096 N.am      1 UNK        -0.5000 
      5 CA          2.1625  -13.3782  -50.6952 C.3       1 UNK         0.1400 
      6 C6          3.5930  -13.8512  -50.3333 C.3       23 UNK        -0.0398 
      7 S7          4.4602  -14.6724  -51.7128 S.3       23 UNK        -0.2404 
      8 C8          4.7862  -16.3272  -51.0223 C.3       23 UNK        -0.0205 
      9 C9          3.5303  -17.1831  -50.9960 C.ar      23 UNK        -0.0193 
     10 C10         3.0627  -17.7612  -52.1786 C.ar      23 UNK        -0.1150 
     11 C11         1.8937  -18.5253  -52.1840 C.ar      23 UNK        -0.0193 
     12 C12         1.2029  -18.7262  -50.9847 C.ar      23 UNK        -0.1150 
     13 C13         1.6602  -18.1562  -49.7934 C.ar      23 UNK        -0.0193 
     14 C14         2.8287  -17.3885  -49.8039 C.ar      23 UNK        -0.1150 
     15 C15         0.8624  -18.3185  -48.5080 C.3       23 UNK        -0.0205 
     16 S16         1.4423  -19.7130  -47.4873 S.3       23 UNK        -0.2404 
     17 C17         0.8026  -21.1683  -48.3898 C.3       23 UNK        -0.0398 
     18 CA          0.4870  -22.3944  -47.4894 C.3       11 UNK         0.1400 
     19 N           1.6120  -22.7521  -46.6207 N.am      11 UNK        -0.5000 
     20 C           1.7541  -23.9163  -45.9728 C.2       10 UNK         0.5000 
     21 O           0.9640  -24.8549  -46.0789 O.2       10 UNK        -0.5000 
     22 CA          2.9533  -24.0371  -45.0095 C.3       10 UNK         0.1400 
     23 CB          4.1361  -24.7195  -45.7128 C.3       10 UNK        -0.1800 
     24 N           3.4091  -22.7655  -44.4310 N.am      10 UNK        -0.5000 
     25 C           2.6555  -21.9380  -43.6937 C.2       9 UNK         0.5000 
     26 O           1.4538  -22.1167  -43.4906 O.2       9 UNK        -0.5000 
     27 CA          3.3533  -20.6830  -43.1398 C.3       9 UNK         0.1400 
     28 CB          3.4838  -19.6139  -44.2357 C.3       9 UNK        -0.1800 
     29 N           2.6178  -20.1133  -42.0104 N.am      9 UNK        -0.5000 
     30 C           2.6334  -20.6045  -40.7639 C.2       8 UNK         0.5000 
     31 O           3.3183  -21.5714  -40.4258 O.2       8 UNK        -0.5000 
     32 CA          1.7556  -19.9067  -39.7089 C.3       8 UNK         0.1400 
     33 CB          2.5583  -18.8101  -38.9924 C.3       8 UNK        -0.1800 
     34 N           0.5540  -19.3070  -40.2905 N.am      8 UNK        -0.5000 
     35 C          -0.7043  -19.6482  -39.9910 C.2       7 UNK         0.5000 
     36 O          -0.9988  -20.5282  -39.1794 O.2       7 UNK        -0.5000 
     37 CA         -1.8176  -18.8656  -40.7243 C.3       7 UNK         0.1400 
     38 CB         -3.2286  -19.1568  -40.1730 C.3       7 UNK        -0.1800 
     39 N          -1.5799  -17.4194  -40.7879 N.am      7 UNK        -0.5000 
     40 C          -1.4241  -16.5701  -39.7611 C.2       6 UNK         0.5000 
     41 O          -1.4551  -16.9007  -38.5742 O.2       6 UNK        -0.5000 
     42 CA         -1.1970  -15.0970  -40.1580 C.3       6 UNK         0.1400 
     43 CB         -0.9709  -14.1549  -38.9561 C.3       6 UNK        -0.1800 
     44 N          -0.1319  -14.9699  -41.1582 N.am      6 UNK        -0.5000 
     45 C           1.1746  -15.2334  -40.9995 C.2       5 UNK         0.5000 
     46 O           1.6974  -15.5140  -39.9206 O.2       5 UNK        -0.5000 
     47 CA          2.0268  -15.1964  -42.2892 C.3       5 UNK         0.1400 
     48 CB          3.4227  -15.8320  -42.1111 C.3       5 UNK        -0.1800 
     49 N           1.3349  -15.7905  -43.4415 N.am      5 UNK        -0.5000 
     50 C           0.8773  -17.0484  -43.5307 C.2       4 UNK         0.5000 
     51 O           1.0131  -17.8885  -42.6420 O.2       4 UNK        -0.5000 
     52 CA          0.1106  -17.4115  -44.8162 C.3       4 UNK         0.1400 
     53 CB         -0.6404  -18.7499  -44.7154 C.3       4 UNK        -0.1800 
     54 N          -0.8024  -16.3617  -45.2689 N.am      4 UNK        -0.5000 
     55 C          -1.7641  -15.7378  -44.5757 C.2       3 UNK         0.5000 
     56 O          -2.0097  -15.9705  -43.3896 O.2       3 UNK        -0.5000 
     57 CA         -2.5313  -14.6307  -45.3379 C.3       3 UNK         0.1400 
     58 CB         -3.5147  -13.8687  -44.4318 C.3       3 UNK        -0.1800 
     59 N          -1.6299  -13.6616  -45.9771 N.am      3 UNK        -0.5000 
     60 C          -0.8828  -13.8897  -47.0653 C.2       2 UNK         0.5000 
     61 O          -0.9128  -14.9537  -47.6945 O.2       2 UNK        -0.5000 
     62 CA          0.1102  -12.7905  -47.4767 C.3       2 UNK         0.1400 
     63 CB          1.1257  -12.5021  -46.3513 C.3       2 UNK        -0.1800 
     64 N           0.8022  -13.2704  -48.6644 N.am      2 UNK        -0.5000 
     65 C           1.5750  -12.5808  -49.5079 C.2       1 UNK         0.5000 
     66 O           1.8330  -11.3828  -49.3834 O.2       1 UNK        -0.5000 
     67 C          -0.8573  -22.2536  -46.7345 C.2       11 UNK         0.5000 
     68 O          -1.9041  -22.3010  -47.3829 O.2       11 UNK        -0.5000 
     69 N          -0.8398  -22.1330  -45.3944 N.am      12 UNK        -0.5000 
     70 CA         -2.0329  -22.0661  -44.5386 C.3       12 UNK         0.1400 
     71 CB         -1.6189  -21.8765  -43.0714 C.3       12 UNK        -0.1800 
     72 C          -2.9386  -23.3047  -44.6561 C.2       12 UNK         0.5000 
     73 O          -4.1611  -23.1699  -44.6017 O.2       12 UNK        -0.5000 
     74 N          -2.3259  -24.4769  -44.8767 N.am      13 UNK        -0.5000 
     75 CA         -3.0039  -25.7575  -45.0949 C.3       13 UNK         0.1400 
     76 CB         -1.9527  -26.8777  -45.0977 C.3       13 UNK        -0.1800 
     77 C          -3.8436  -25.8030  -46.3887 C.2       13 UNK         0.5000 
     78 O          -4.7501  -26.6299  -46.4911 O.2       13 UNK        -0.5000 
     79 N          -3.5393  -24.9084  -47.3371 N.am      14 UNK        -0.5000 
     80 CA         -4.2466  -24.7279  -48.6019 C.3       14 UNK         0.1400 
     81 CB         -3.2127  -24.7877  -49.7399 C.3       14 UNK        -0.1800 
     82 C          -5.0443  -23.4067  -48.6183 C.2       14 UNK         0.5000 
     83 O          -5.3840  -22.9269  -49.6995 O.2       14 UNK        -0.5000 
     84 N          -5.3058  -22.8221  -47.4363 N.am      15 UNK        -0.5000 
     85 CA         -6.0116  -21.5528  -47.2107 C.3       15 UNK         0.1400 
     86 CB         -7.4977  -21.6721  -47.6084 C.3       15 UNK        -0.1800 
     87 C          -5.2959  -20.3571  -47.8746 C.2       15 UNK         0.5000 
     88 O          -5.9185  -19.5699  -48.5885 O.2       15 UNK        -0.5000 
     89 N          -3.9758  -20.2870  -47.6489 N.am      16 UNK        -0.5000 
     90 CA         -3.0064  -19.3608  -48.2469 C.3       16 UNK         0.1400 
     91 CB         -3.3390  -17.8865  -47.9381 C.3       16 UNK        -0.1800 
     92 C          -2.7549  -19.6329  -49.7447 C.2       16 UNK         0.5000 
     93 O          -2.2579  -18.7563  -50.4512 O.2       16 UNK        -0.5000 
     94 N          -3.0858  -20.8527  -50.1934 N.am      17 UNK        -0.5000 
     95 CA         -2.9402  -21.4506  -51.5261 C.3       17 UNK         0.1400 
     96 CB         -1.4638  -21.5669  -51.9255 C.3       17 UNK        -0.1800 
     97 C          -3.7561  -20.7784  -52.6420 C.2       17 UNK         0.5000 
     98 O          -4.3277  -21.4885  -53.4667 O.2       17 UNK        -0.5000 
     99 N          -3.8333  -19.4420  -52.6395 N.am      18 UNK        -0.5000 
    100 CA        -4.5272  -18.5916  -53.6111 C.3       18 UNK         0.1400 
    101 CB        -4.2960  -17.1229  -53.2266 C.3       18 UNK        -0.1800 
    102 C         -6.0334  -18.8818  -53.7704 C.2       18 UNK         0.5000 
    103 O         -6.6078  -18.5333  -54.8020 O.2       18 UNK        -0.5000 
    104 N         -6.6346  -19.5454  -52.7729 N.am      19 UNK        -0.5000 
    105 CA        -7.9826  -20.1120  -52.8232 C.3       19 UNK         0.1400 
    106 CB        -8.3391  -20.6516  -51.4295 C.3       19 UNK        -0.1800 
    107 C         -8.1372  -21.2237  -53.8846 C.2       19 UNK         0.5000 
    108 O         -9.2381  -21.4071  -54.4056 O.2       19 UNK        -0.5000 
    109 N         -7.0399  -21.9296  -54.1899 N.am      20 UNK        -0.5000 
    110 CA        -6.9413  -22.9277  -55.2489 C.3       20 UNK         0.1400 
    111 CB        -6.2516  -24.1899  -54.7018 C.3       20 UNK        -0.1800 
    112 C         -6.1760  -22.3355  -56.4432 C.2       20 UNK         0.5000 
    113 O         -6.7539  -22.2046  -57.5230 O.2       20 UNK        -0.5000 
    114 N         -4.9066  -21.9661  -56.2251 N.am      21 UNK        -0.5000 
    115 CA        -4.0011  -21.3722  -57.2060 C.3       21 UNK         0.1400 
    116 CB        -3.6690  -22.3708  -58.3338 C.3       21 UNK        -0.1800 
    117 C         -2.7061  -20.9295  -56.5081 C.2       21 UNK         0.5000 
    118 O         -2.1890  -21.6520  -55.6545 O.2       21 UNK        -0.5000 
    119 N         -2.1822  -19.7731  -56.9178 N.am      22 UNK        -0.5000 
    120 CA        -0.8991  -19.2054  -56.4917 C.3       22 UNK         0.1400 
    121 C         -0.4441  -18.1902  -57.5744 C.2       22 UNK         0.5000 
    122 N          0.8102  -18.2371  -58.0014 N.am      22 UNK        -0.7600 
    123 O         -1.2238  -17.3544  -58.0279 O.2       22 UNK        -0.5000 
    124 C124       -0.9820  -18.5930  -55.0650 C.3       23 UNK        -0.0398 
    125 S125        0.5574  -17.7971  -54.4795 S.3       23 UNK        -0.2404 
    126 C126        1.3690  -19.0960  -53.4937 C.3       23 UNK        -0.0205 
    127 H127       -1.0352  -15.6315  -52.9667 H         1 UNK         0.0600 
    128 H128       -1.6503  -15.6021  -51.3102 H         1 UNK         0.0600 
    129 H129       -0.1819  -16.4968  -51.6885 H         1 UNK         0.0600 
    130 H130        1.6578  -15.4180  -50.9692 H         1 UNK         0.3000 
    131 H131        2.2385  -12.6882  -51.5383 H         1 UNK         0.0600 
    132 H132        3.5688  -14.5123  -49.4658 H         1 UNK         0.0800 
    133 H133        4.2073  -12.9981  -50.0385 H         1 UNK         0.0800 
    134 H134        5.2198  -16.2362  -50.0252 H         1 UNK         0.0800 
    135 H135        5.5418  -16.8199  -51.6361 H         1 UNK         0.0800 
    136 H136        3.5953  -17.5922  -53.1042 H         1 UNK         0.1150 
    137 H137        0.2891  -19.2974  -50.9772 H         1 UNK         0.1150 
    138 H138        3.1831  -16.9422  -48.8853 H         1 UNK         0.1150 
    139 H139        0.9403  -17.3995  -47.9268 H         1 UNK         0.0800 
    140 H140       -0.1966  -18.4319  -48.7313 H         1 UNK         0.0800 
    141 H141        1.5593  -21.4490  -49.1236 H         1 UNK         0.0800 
    142 H142       -0.0739  -20.8857  -48.9741 H         1 UNK         0.0800 
    143 H143        0.3394  -23.2394  -48.1656 H         1 UNK         0.0600 
    144 H144        2.2953  -22.0254  -46.4635 H         1 UNK         0.3000 
    145 H145        2.6352  -24.6747  -44.1821 H         1 UNK         0.0600 
    146 H146        4.9535  -24.9099  -45.0171 H         1 UNK         0.0600 
    147 H147        3.8395  -25.6816  -46.1331 H         1 UNK         0.0600 
    148 H148        4.5239  -24.1099  -46.5300 H         1 UNK         0.0600 
    149 H149        4.3829  -22.5385  -44.5721 H         1 UNK         0.3000 
    150 H150        4.3542  -20.9602  -42.8024 H         1 UNK         0.0600 
    151 H151        4.1023  -19.9676  -45.0612 H         1 UNK         0.0600 
    152 H152        3.9460  -18.7050  -43.8498 H         1 UNK         0.0600 
    153 H153        2.5127  -19.3456  -44.6494 H         1 UNK         0.0600 
    154 H154        2.0044  -19.3323  -42.2260 H         1 UNK         0.3000 
    155 H155        1.4846  -20.6622  -38.9689 H         1 UNK         0.0600 
    156 H156        2.8866  -18.0352  -39.6856 H         1 UNK         0.0600 
    157 H157        3.4473  -19.2233  -38.5145 H         1 UNK         0.0600 
    158 H158        1.9623  -18.3302  -38.2158 H         1 UNK         0.0600 
    159 H159        0.7008  -18.6030  -41.0106 H         1 UNK         0.3000 
    160 H160       -1.7996  -19.2131  -41.7551 H         1 UNK         0.0600 
    161 H161       -3.3223  -18.8661  -39.1263 H         1 UNK         0.0600 
    162 H162       -3.4633  -20.2197  -40.2404 H         1 UNK         0.0600 
    163 H163       -3.9905  -18.6216  -40.7396 H         1 UNK         0.0600 
    164 H164       -1.5525  -17.0240  -41.7229 H         1 UNK         0.3000 
    165 H165       -2.1142  -14.7729  -40.6523 H         1 UNK         0.0600 
    166 H166       -0.1106  -14.4520  -38.3562 H         1 UNK         0.0600 
    167 H167       -0.8133  -13.1277  -39.2845 H         1 UNK         0.0600 
    168 H168       -1.8395  -14.1554  -38.2967 H         1 UNK         0.0600 
    169 H169       -0.4604  -14.8112  -42.1010 H         1 UNK         0.3000 
    170 H170        2.1735  -14.1415  -42.5252 H         1 UNK         0.0600 
    171 H171        3.9898  -15.3197  -41.3332 H         1 UNK         0.0600 
    172 H172        3.3597  -16.8834  -41.8298 H         1 UNK         0.0600 
    173 H173        4.0042  -15.7677  -43.0306 H         1 UNK         0.0600 
    174 H174        1.1609  -15.1698  -44.2182 H         1 UNK         0.3000 
    175 H175        0.8744  -17.5134  -45.5853 H         1 UNK         0.0600 
    176 H176       -1.4322  -18.7140  -43.9689 H         1 UNK         0.0600 
    177 H177       -1.0963  -19.0149  -45.6678 H         1 UNK         0.0600 
    178 H178        0.0405  -19.5586  -44.4502 H         1 UNK         0.0600 
    179 H179       -0.6911  -16.0621  -46.2348 H         1 UNK         0.3000 
    180 H180       -3.1137  -15.1273  -46.1167 H         1 UNK         0.0600 
    181 H181       -2.9984  -13.3490  -43.6237 H         1 UNK         0.0600 
    182 H182       -4.2365  -14.5487  -43.9773 H         1 UNK         0.0600 
    183 H183       -4.0816  -13.1299  -44.9985 H         1 UNK         0.0600 
    184 H184       -1.5346  -12.7742  -45.5047 H         1 UNK         0.3000 
    185 H185       -0.4498  -11.8869  -47.7242 H         1 UNK         0.0600 
    186 H186        0.6316  -12.1369  -45.4506 H         1 UNK         0.0600 
    187 H187        1.6881  -13.3964  -46.0805 H         1 UNK         0.0600 
    188 H188        1.8432  -11.7372  -46.6480 H         1 UNK         0.0600 
    189 H189        0.5848  -14.2368  -48.8793 H         1 UNK         0.3000 
    190 H190        0.0526  -22.1233  -44.9091 H         1 UNK         0.3000 
    191 H191       -2.6125  -21.1943  -44.8481 H         1 UNK         0.0600 
    192 H192       -2.4905  -21.7107  -42.4370 H         1 UNK         0.0600 
    193 H193       -0.9569  -21.0223  -42.9465 H         1 UNK         0.0600 
    194 H194       -1.0956  -22.7523  -42.6855 H         1 UNK         0.0600 
    195 H195       -1.3165  -24.4864  -44.9391 H         1 UNK         0.3000 
    196 H196       -3.6842  -25.9248  -44.2574 H         1 UNK         0.0600 
    197 H197       -1.2330  -26.7501  -45.9075 H         1 UNK         0.0600 
    198 H198       -1.3996  -26.9028  -44.1586 H         1 UNK         0.0600 
    199 H199       -2.4210  -27.8547  -45.2245 H         1 UNK         0.0600 
    200 H200       -2.7980  -24.2424  -47.1552 H         1 UNK         0.3000 
    201 H201       -4.9675  -25.5327  -48.7572 H         1 UNK         0.0600 
    202 H202       -2.4913  -23.9726  -49.6710 H         1 UNK         0.0600 
    203 H203       -3.6955  -24.7288  -50.7160 H         1 UNK         0.0600 
    204 H204       -2.6573  -25.7254  -49.7152 H         1 UNK         0.0600 
    205 H205       -4.9677  -23.2776  -46.5964 H         1 UNK         0.3000 
    206 H206       -5.9757  -21.3689  -46.1359 H         1 UNK         0.0600 
    207 H207       -7.9788  -22.4996  -47.0871 H         1 UNK         0.0600 
    208 H208       -8.0449  -20.7646  -47.3509 H         1 UNK         0.0600 
    209 H209       -7.6217  -21.8343  -48.6789 H         1 UNK         0.0600 
    210 H210       -3.5517  -21.0453  -47.1277 H         1 UNK         0.3000 
    211 H211       -2.0597  -19.5790  -47.7546 H         1 UNK         0.0600 
    212 H212       -2.5213  -17.2309  -48.2400 H         1 UNK         0.0600 
    213 H213       -3.4965  -17.7336  -46.8705 H         1 UNK         0.0600 
    214 H214       -4.2324  -17.5504  -48.4643 H         1 UNK         0.0600 
    215 H215       -3.5426  -21.4577  -49.5249 H         1 UNK         0.3000 
    216 H216       -3.3317  -22.4631  -51.4380 H         1 UNK         0.0600 
    217 H217       -1.0398  -20.5843  -52.1077 H         1 UNK         0.0600 
    218 H218       -1.3533  -22.1433  -52.8451 H         1 UNK         0.0600 
    219 H219       -0.8752  -22.0611  -51.1528 H         1 UNK         0.0600 
    220 H220       -3.3126  -18.9627  -51.9074 H         1 UNK         0.3000 
    221 H221       -4.0666  -18.7697  -54.5841 H         1 UNK         0.0600 
    222 H222       -3.2328  -16.8852  -53.1996 H         1 UNK         0.0600 
    223 H223       -4.7134  -16.8962  -52.2446 H         1 UNK         0.0600 
    224 H224       -4.7612  -16.4492  -53.9473 H         1 UNK         0.0600 
    225 H225       -6.0820  -19.7742  -51.9594 H         1 UNK         0.3000 
    226 H226       -8.6785  -19.3093  -53.0750 H         1 UNK         0.0600 
    227 H227       -7.6622  -21.4518  -51.1262 H         1 UNK         0.0600 
    228 H228       -8.2873  -19.8666  -50.6745 H         1 UNK         0.0600 
    229 H229       -9.3528  -21.0537  -51.4122 H         1 UNK         0.0600 
    230 H230       -6.1603  -21.6814  -53.7446 H         1 UNK         0.3000 
    231 H231       -7.9351  -23.2165  -55.5973 H         1 UNK         0.0600 
    232 H232       -5.2624  -23.9758  -54.2958 H         1 UNK         0.0600 
    233 H233       -6.1312  -24.9389  -55.4854 H         1 UNK         0.0600 
    234 H234       -6.8435  -24.6432  -53.9067 H         1 UNK         0.0600 
    235 H235       -4.5184  -22.0455  -55.2868 H         1 UNK         0.3000 
    236 H236       -4.4903  -20.4944  -57.6331 H         1 UNK         0.0600 
    237 H237       -4.5478  -22.6214  -58.9269 H         1 UNK         0.0600 
    238 H238       -2.9316  -21.9536  -59.0209 H         1 UNK         0.0600 
    239 H239       -3.2577  -23.2992  -57.9357 H         1 UNK         0.0600 
    240 H240       -2.6441  -19.2402  -57.6436 H         1 UNK         0.3000 
    241 H241       -0.1697  -20.0178  -56.4678 H         1 UNK         0.0600 
    242 H242        1.4703  -18.9031  -57.6308 H         1 UNK         0.3800 
    243 H243        1.1141  -17.5781  -58.7013 H         1 UNK         0.3800 
    244 H244       -1.7635  -17.8327  -55.0419 H         1 UNK         0.0800 
    245 H245       -1.2900  -19.3513  -54.3451 H         1 UNK         0.0800 
    246 H246        2.1973  -19.5098  -54.0704 H         1 UNK         0.0800 
    247 H247        0.6924  -19.9273  -53.3082 H         1 UNK         0.0800 
@<TRIPOS>BOND
     1    1    2 1    
     2    1  127 1    
     3    1  128 1    
     4    1  129 1    
     5    2    3 2    
     6    2    4 am   BACKBONE|DICT|INTERRES
     7    4    5 1    
     8    4  130 1    
     9    5    6 1    
    10    5   65 1    
    11    5  131 1    
    12    6    7 1    
    13    6  132 1    
    14    6  133 1    
    15    7    8 1    
    16    8    9 1    
    17    8  134 1    
    18    8  135 1    
    19    9   10 ar   
    20    9   14 ar   
    21   10   11 ar   
    22   10  136 1    
    23   11   12 ar   
    24   11  126 1    
    25   12   13 ar   
    26   12  137 1    
    27   13   14 ar   
    28   13   15 1    
    29   14  138 1    
    30   15   16 1    
    31   15  139 1    
    32   15  140 1    
    33   16   17 1    
    34   17   18 1    
    35   17  141 1    
    36   17  142 1    
    37   18   19 1    
    38   18   67 1    
    39   18  143 1    
    40   19   20 am   BACKBONE|DICT|INTERRES
    41   19  144 1    
    42   20   21 2    
    43   20   22 1    
    44   22   23 1    
    45   22   24 1    
    46   22  145 1    
    47   23  146 1    
    48   23  147 1    
    49   23  148 1    
    50   24   25 am   BACKBONE|DICT|INTERRES
    51   24  149 1    
    52   25   26 2    
    53   25   27 1    
    54   27   28 1    
    55   27   29 1    
    56   27  150 1    
    57   28  151 1    
    58   28  152 1    
    59   28  153 1    
    60   29   30 am   BACKBONE|DICT|INTERRES
    61   29  154 1    
    62   30   31 2    
    63   30   32 1    
    64   32   33 1    
    65   32   34 1    
    66   32  155 1    
    67   33  156 1    
    68   33  157 1    
    69   33  158 1    
    70   34   35 am   BACKBONE|DICT|INTERRES
    71   34  159 1    
    72   35   36 2    
    73   35   37 1    
    74   37   38 1    
    75   37   39 1    
    76   37  160 1    
    77   38  161 1    
    78   38  162 1    
    79   38  163 1    
    80   39   40 am   BACKBONE|DICT|INTERRES
    81   39  164 1    
    82   40   41 2    
    83   40   42 1    
    84   42   43 1    
    85   42   44 1    
    86   42  165 1    
    87   43  166 1    
    88   43  167 1    
    89   43  168 1    
    90   44   45 am   BACKBONE|DICT|INTERRES
    91   44  169 1    
    92   45   46 2    
    93   45   47 1    
    94   47   48 1    
    95   47   49 1    
    96   47  170 1    
    97   48  171 1    
    98   48  172 1    
    99   48  173 1    
   100   49   50 am   BACKBONE|DICT|INTERRES
   101   49  174 1    
   102   50   51 2    
   103   50   52 1    
   104   52   53 1    
   105   52   54 1    
   106   52  175 1    
   107   53  176 1    
   108   53  177 1    
   109   53  178 1    
   110   54   55 am   BACKBONE|DICT|INTERRES
   111   54  179 1    
   112   55   56 2    
   113   55   57 1    
   114   57   58 1    
   115   57   59 1    
   116   57  180 1    
   117   58  181 1    
   118   58  182 1    
   119   58  183 1    
   120   59   60 am   BACKBONE|DICT|INTERRES
   121   59  184 1    
   122   60   61 2    
   123   60   62 1    
   124   62   63 1    
   125   62   64 1    
   126   62  185 1    
   127   63  186 1    
   128   63  187 1    
   129   63  188 1    
   130   64   65 am   BACKBONE|DICT|INTERRES
   131   64  189 1    
   132   65   66 2    
   133   67   68 2    
   134   67   69 am   BACKBONE|DICT|INTERRES
   135   69   70 1    
   136   69  190 1    
   137   70   71 1    
   138   70   72 1    
   139   70  191 1    
   140   71  192 1    
   141   71  193 1    
   142   71  194 1    
   143   72   73 2    
   144   72   74 am   BACKBONE|DICT|INTERRES
   145   74   75 1    
   146   74  195 1    
   147   75   76 1    
   148   75   77 1    
   149   75  196 1    
   150   76  197 1    
   151   76  198 1    
   152   76  199 1    
   153   77   78 2    
   154   77   79 am   BACKBONE|DICT|INTERRES
   155   79   80 1    
   156   79  200 1    
   157   80   81 1    
   158   80   82 1    
   159   80  201 1    
   160   81  202 1    
   161   81  203 1    
   162   81  204 1    
   163   82   83 2    
   164   82   84 am   BACKBONE|DICT|INTERRES
   165   84   85 1    
   166   84  205 1    
   167   85   86 1    
   168   85   87 1    
   169   85  206 1    
   170   86  207 1    
   171   86  208 1    
   172   86  209 1    
   173   87   88 2    
   174   87   89 am   BACKBONE|DICT|INTERRES
   175   89   90 1    
   176   89  210 1    
   177   90   91 1    
   178   90   92 1    
   179   90  211 1    
   180   91  212 1    
   181   91  213 1    
   182   91  214 1    
   183   92   93 2    
   184   92   94 am   BACKBONE|DICT|INTERRES
   185   94   95 1    
   186   94  215 1    
   187   95   96 1    
   188   95   97 1    
   189   95  216 1    
   190   96  217 1    
   191   96  218 1    
   192   96  219 1    
   193   97   98 2    
   194   97   99 am   BACKBONE|DICT|INTERRES
   195   99  100 1    
   196   99  220 1    
   197  100  101 1    
   198  100  102 1    
   199  100  221 1    
   200  101  222 1    
   201  101  223 1    
   202  101  224 1    
   203  102  103 2    
   204  102  104 am   BACKBONE|DICT|INTERRES
   205  104  105 1    
   206  104  225 1    
   207  105  106 1    
   208  105  107 1    
   209  105  226 1    
   210  106  227 1    
   211  106  228 1    
   212  106  229 1    
   213  107  108 2    
   214  107  109 am   BACKBONE|DICT|INTERRES
   215  109  110 1    
   216  109  230 1    
   217  110  111 1    
   218  110  112 1    
   219  110  231 1    
   220  111  232 1    
   221  111  233 1    
   222  111  234 1    
   223  112  113 2    
   224  112  114 am   BACKBONE|DICT|INTERRES
   225  114  115 1    
   226  114  235 1    
   227  115  116 1    
   228  115  117 1    
   229  115  236 1    
   230  116  237 1    
   231  116  238 1    
   232  116  239 1    
   233  117  118 2    
   234  117  119 am   BACKBONE|DICT|INTERRES
   235  119  120 1    
   236  119  240 1    
   237  120  121 1    
   238  120  124 1    
   239  120  241 1    
   240  121  122 am   BACKBONE|DICT|INTERRES
   241  121  123 2    
   242  122  242 1    
   243  122  243 1    
   244  124  125 1    
   245  124  244 1    
   246  124  245 1    
   247  125  126 1    
   248  126  246 1    
   249  126  247 1    
@<TRIPOS>SUBSTRUCTURE
     1 UNK         1 GROUP             0       ****    0 ROOT    
