@<TRIPOS>MOLECULE
3R540
247   249    1
SMALL
USER_CHARGES


@<TRIPOS>ATOM
      1 CA          1.1935   -9.4701  -50.2173 C.3       0 UNK        -0.1800 
      2 C           1.8342   -9.7980  -48.8766 C.2       0 UNK         0.5000 
      3 O           1.5281   -9.1496  -47.8755 O.2       0 UNK        -0.5000 
      4 N           2.7136  -10.8090  -48.8498 N.am      1 UNK        -0.5000 
      5 CA          3.4341  -11.2810  -47.6590 C.3       1 UNK         0.1400 
      6 C6          4.5404  -12.3174  -47.9949 C.3       23 UNK        -0.0398 
      7 S7          4.0288  -13.6612  -49.1271 S.3       23 UNK        -0.2404 
      8 C8          3.5366  -14.9884  -47.9751 C.3       23 UNK        -0.0205 
      9 C9          3.1526  -16.2701  -48.7065 C.ar      23 UNK        -0.0193 
     10 C10         2.1932  -16.2455  -49.7276 C.ar      23 UNK        -0.1150 
     11 C11         1.8901  -17.4060  -50.4446 C.ar      23 UNK        -0.0193 
     12 C12         2.5327  -18.5986  -50.1155 C.ar      23 UNK        -0.1150 
     13 C13         3.4468  -18.6558  -49.0635 C.ar      23 UNK        -0.0193 
     14 C14         3.7598  -17.4853  -48.3647 C.ar      23 UNK        -0.1150 
     15 C15         4.1059  -19.9833  -48.7153 C.3       23 UNK        -0.0205 
     16 S16         3.1595  -20.9286  -47.4775 S.3       23 UNK        -0.2404 
     17 C17         1.5444  -21.1572  -48.3038 C.3       23 UNK        -0.0398 
     18 CA          0.7536  -22.3887  -47.8012 C.3       11 UNK         0.1400 
     19 N           0.6417  -22.4476  -46.3394 N.am      11 UNK        -0.5000 
     20 C           0.1530  -23.4904  -45.6530 C.2       10 UNK         0.5000 
     21 O          -0.2090  -24.5444  -46.1755 O.2       10 UNK        -0.5000 
     22 CA         -0.0114  -23.3032  -44.1355 C.3       10 UNK         0.1400 
     23 CB          1.2913  -23.6361  -43.3931 C.3       10 UNK        -0.1800 
     24 N          -0.4444  -21.9442  -43.8078 N.am      10 UNK        -0.5000 
     25 C          -1.6854  -21.4840  -44.0268 C.2       9 UNK         0.5000 
     26 O          -2.5976  -22.1794  -44.4724 O.2       9 UNK        -0.5000 
     27 CA         -1.9423  -19.9901  -43.7505 C.3       9 UNK         0.1400 
     28 CB         -2.3157  -19.7699  -42.2778 C.3       9 UNK        -0.1800 
     29 N          -0.7973  -19.1475  -44.0966 N.am      9 UNK        -0.5000 
     30 C          -0.3294  -18.9875  -45.3446 C.2       8 UNK         0.5000 
     31 O          -0.8724  -19.4707  -46.3359 O.2       8 UNK        -0.5000 
     32 CA          0.9878  -18.2078  -45.5212 C.3       8 UNK         0.1400 
     33 CB          0.6941  -16.7593  -45.9251 C.3       8 UNK        -0.1800 
     34 N           1.8434  -18.2193  -44.3327 N.am      8 UNK        -0.5000 
     35 C           2.3417  -19.3271  -43.7597 C.2       7 UNK         0.5000 
     36 O           2.1550  -20.4591  -44.2045 O.2       7 UNK        -0.5000 
     37 CA          3.1231  -19.1645  -42.4404 C.3       7 UNK         0.1400 
     38 CB          4.6342  -19.2059  -42.7114 C.3       7 UNK        -0.1800 
     39 N           2.8065  -17.9389  -41.7042 N.am      7 UNK        -0.5000 
     40 C           1.5960  -17.5768  -41.2523 C.2       6 UNK         0.5000 
     41 O           0.5932  -18.2855  -41.3432 O.2       6 UNK        -0.5000 
     42 CA          1.4771  -16.1574  -40.6581 C.3       6 UNK         0.1400 
     43 CB          1.5518  -16.2078  -39.1250 C.3       6 UNK        -0.1800 
     44 N           2.4912  -15.2202  -41.1583 N.am      6 UNK        -0.5000 
     45 C           2.6481  -14.8705  -42.4420 C.2       5 UNK         0.5000 
     46 O           1.9265  -15.2785  -43.3531 O.2       5 UNK        -0.5000 
     47 CA          3.8235  -13.9341  -42.7588 C.3       5 UNK         0.1400 
     48 CB          4.4825  -14.2920  -44.1034 C.3       5 UNK        -0.1800 
     49 N           3.3718  -12.5487  -42.8010 N.am      5 UNK        -0.5000 
     50 C           3.1600  -11.7743  -41.7297 C.2       4 UNK         0.5000 
     51 O           3.3260  -12.1579  -40.5709 O.2       4 UNK        -0.5000 
     52 CA          2.6950  -10.3322  -41.9890 C.3       4 UNK         0.1400 
     53 CB          3.8873   -9.4458  -42.3835 C.3       4 UNK        -0.1800 
     54 N           1.6841  -10.2699  -43.0455 N.am      4 UNK        -0.5000 
     55 C           0.4501   -9.7660  -42.8990 C.2       3 UNK         0.5000 
     56 O           0.0247   -9.2953  -41.8431 O.2       3 UNK        -0.5000 
     57 CA         -0.4744   -9.7736  -44.1356 C.3       3 UNK         0.1400 
     58 CB         -0.4750   -8.3944  -44.8124 C.3       3 UNK        -0.1800 
     59 N          -0.1089  -10.7824  -45.1288 N.am      3 UNK        -0.5000 
     60 C          -0.2331  -12.1055  -44.9571 C.2       2 UNK         0.5000 
     61 O          -0.7800  -12.6146  -43.9788 O.2       2 UNK        -0.5000 
     62 CA          0.3740  -13.0164  -46.0438 C.3       2 UNK         0.1400 
     63 CB         -0.7310  -13.6385  -46.9107 C.3       2 UNK        -0.1800 
     64 N           1.3479  -12.3656  -46.9266 N.am      2 UNK        -0.5000 
     65 C           2.5070  -11.8085  -46.5470 C.2       1 UNK         0.5000 
     66 O           2.8494  -11.6822  -45.3719 O.2       1 UNK        -0.5000 
     67 C          -0.6377  -22.4489  -48.4693 C.2       11 UNK         0.5000 
     68 O          -0.8234  -23.1965  -49.4287 O.2       11 UNK        -0.5000 
     69 N          -1.6028  -21.7022  -47.9119 N.am      12 UNK        -0.5000 
     70 CA         -3.0110  -21.7264  -48.2990 C.3       12 UNK         0.1400 
     71 CB         -3.7736  -20.6094  -47.5726 C.3       12 UNK        -0.1800 
     72 C          -3.6677  -23.0912  -48.0387 C.2       12 UNK         0.5000 
     73 O          -4.3681  -23.5914  -48.9169 O.2       12 UNK        -0.5000 
     74 N          -3.4125  -23.6930  -46.8675 N.am      13 UNK        -0.5000 
     75 CA         -3.8950  -25.0288  -46.5026 C.3       13 UNK         0.1400 
     76 CB         -3.5269  -25.3455  -45.0463 C.3       13 UNK        -0.1800 
     77 C          -3.3832  -26.1290  -47.4512 C.2       13 UNK         0.5000 
     78 O          -4.1700  -26.9779  -47.8715 O.2       13 UNK        -0.5000 
     79 N          -2.0983  -26.0523  -47.8279 N.am      14 UNK        -0.5000 
     80 CA         -1.4668  -26.9130  -48.8331 C.3       14 UNK         0.1400 
     81 CB          0.0483  -26.6613  -48.8382 C.3       14 UNK        -0.1800 
     82 C          -2.0565  -26.7342  -50.2483 C.2       14 UNK         0.5000 
     83 O          -2.0679  -27.6886  -51.0255 O.2       14 UNK        -0.5000 
     84 N          -2.5818  -25.5367  -50.5367 N.am      15 UNK        -0.5000 
     85 CA         -3.3188  -25.1845  -51.7511 C.3       15 UNK         0.1400 
     86 CB         -3.0109  -23.7192  -52.1065 C.3       15 UNK        -0.1800 
     87 C          -4.8378  -25.4434  -51.6194 C.2       15 UNK         0.5000 
     88 O          -5.6221  -24.8112  -52.3286 O.2       15 UNK        -0.5000 
     89 N          -5.2293  -26.3558  -50.7154 N.am      16 UNK        -0.5000 
     90 CA         -6.5933  -26.8193  -50.4374 C.3       16 UNK         0.1400 
     91 CB         -7.1668  -27.5845  -51.6483 C.3       16 UNK        -0.1800 
     92 C          -7.5187  -25.6950  -49.9300 C.2       16 UNK         0.5000 
     93 O          -8.6462  -25.5549  -50.4057 O.2       16 UNK        -0.5000 
     94 N          -7.0031  -24.9123  -48.9715 N.am      17 UNK        -0.5000 
     95 CA         -7.6009  -23.7031  -48.3921 C.3       17 UNK         0.1400 
     96 CB         -8.9279  -24.0122  -47.6675 C.3       17 UNK        -0.1800 
     97 C          -7.7094  -22.5714  -49.4346 C.2       17 UNK         0.5000 
     98 O          -8.7389  -21.9009  -49.5278 O.2       17 UNK        -0.5000 
     99 N          -6.6187  -22.4009  -50.1950 N.am      18 UNK        -0.5000 
    100 CA        -6.4125  -21.4548  -51.2912 C.3       18 UNK         0.1400 
    101 CB        -6.2845  -20.0163  -50.7514 C.3       18 UNK        -0.1800 
    102 C         -7.4696  -21.5951  -52.4041 C.2       18 UNK         0.5000 
    103 O         -8.1583  -20.6282  -52.7400 O.2       18 UNK        -0.5000 
    104 N         -7.5877  -22.8095  -52.9561 N.am      19 UNK        -0.5000 
    105 CA        -8.5219  -23.1753  -54.0226 C.3       19 UNK         0.1400 
    106 CB        -8.6920  -24.7044  -54.0265 C.3       19 UNK        -0.1800 
    107 C         -8.0675  -22.6278  -55.3923 C.2       19 UNK         0.5000 
    108 O         -7.6832  -23.3996  -56.2729 O.2       19 UNK        -0.5000 
    109 N         -8.0916  -21.2932  -55.5240 N.am      20 UNK        -0.5000 
    110 CA        -7.6190  -20.4954  -56.6632 C.3       20 UNK         0.1400 
    111 CB        -8.4895  -20.7466  -57.9124 C.3       20 UNK        -0.1800 
    112 C         -6.1081  -20.6791  -56.9272 C.2       20 UNK         0.5000 
    113 O         -5.6702  -20.6865  -58.0795 O.2       20 UNK        -0.5000 
    114 N         -5.3407  -20.8335  -55.8432 N.am      21 UNK        -0.5000 
    115 CA        -3.9086  -21.0980  -55.8277 C.3       21 UNK         0.1400 
    116 CB        -3.6570  -22.5877  -56.1326 C.3       21 UNK        -0.1800 
    117 C         -3.3490  -20.7120  -54.4506 C.2       21 UNK         0.5000 
    118 O         -4.1186  -20.4819  -53.5152 O.2       21 UNK        -0.5000 
    119 N         -2.0190  -20.6659  -54.3525 N.am      22 UNK        -0.5000 
    120 CA        -1.2547  -20.3691  -53.1302 C.3       22 UNK         0.1400 
    121 C          0.0698  -21.1952  -53.0683 C.2       22 UNK         0.5000 
    122 N          0.2037  -22.2873  -53.8138 N.am      22 UNK        -0.7600 
    123 O          0.9968  -20.8637  -52.3389 O.2       22 UNK        -0.5000 
    124 C124       -1.0863  -18.8322  -52.9484 C.3       23 UNK        -0.0398 
    125 S125       -0.6151  -18.3021  -51.2611 S.3       23 UNK        -0.2404 
    126 C126        0.9203  -17.3822  -51.6153 C.3       23 UNK        -0.0205 
    127 H127        0.1106   -9.5754  -50.1509 H         1 UNK         0.0600 
    128 H128        1.5516  -10.1280  -51.0096 H         1 UNK         0.0600 
    129 H129        1.4207   -8.4422  -50.4998 H         1 UNK         0.0600 
    130 H130        2.9180  -11.3133  -49.7017 H         1 UNK         0.3000 
    131 H131        3.9344  -10.4077  -47.2348 H         1 UNK         0.0600 
    132 H132        5.3634  -11.7957  -48.4849 H         1 UNK         0.0800 
    133 H133        4.9771  -12.7426  -47.0889 H         1 UNK         0.0800 
    134 H134        2.6870  -14.6605  -47.3804 H         1 UNK         0.0800 
    135 H135        4.3554  -15.1754  -47.2787 H         1 UNK         0.0800 
    136 H136        1.7119  -15.3134  -49.9880 H         1 UNK         0.1150 
    137 H137        2.3123  -19.4899  -50.6829 H         1 UNK         0.1150 
    138 H138        4.4841  -17.5212  -47.5632 H         1 UNK         0.1150 
    139 H139        4.2296  -20.5900  -49.6139 H         1 UNK         0.0800 
    140 H140        5.1108  -19.8065  -48.3292 H         1 UNK         0.0800 
    141 H141        1.7142  -21.2635  -49.3762 H         1 UNK         0.0800 
    142 H142        0.9666  -20.2406  -48.1743 H         1 UNK         0.0800 
    143 H143        1.3007  -23.2808  -48.1136 H         1 UNK         0.0600 
    144 H144        0.9607  -21.6353  -45.8272 H         1 UNK         0.3000 
    145 H145       -0.7779  -23.9998  -43.7903 H         1 UNK         0.0600 
    146 H146        1.1808  -23.4959  -42.3178 H         1 UNK         0.0600 
    147 H147        1.5737  -24.6766  -43.5583 H         1 UNK         0.0600 
    148 H148        2.1236  -23.0180  -43.7295 H         1 UNK         0.0600 
    149 H149        0.2783  -21.2975  -43.5185 H         1 UNK         0.3000 
    150 H150       -2.7878  -19.6770  -44.3663 H         1 UNK         0.0600 
    151 H151       -3.2004  -20.3486  -42.0094 H         1 UNK         0.0600 
    152 H152       -2.5394  -18.7216  -42.0793 H         1 UNK         0.0600 
    153 H153       -1.5097  -20.0730  -41.6084 H         1 UNK         0.0600 
    154 H154       -0.2884  -18.7337  -43.3243 H         1 UNK         0.3000 
    155 H155        1.5472  -18.6770  -46.3315 H         1 UNK         0.0600 
    156 H156        0.0746  -16.2526  -45.1841 H         1 UNK         0.0600 
    157 H157        0.1699  -16.7205  -46.8808 H         1 UNK         0.0600 
    158 H158        1.6165  -16.1920  -46.0337 H         1 UNK         0.0600 
    159 H159        2.0090  -17.3198  -43.8951 H         1 UNK         0.3000 
    160 H160        2.8624  -20.0109  -41.8020 H         1 UNK         0.0600 
    161 H161        5.2037  -19.1832  -41.7821 H         1 UNK         0.0600 
    162 H162        4.9556  -18.3633  -43.3251 H         1 UNK         0.0600 
    163 H163        4.9116  -20.1200  -43.2385 H         1 UNK         0.0600 
    164 H164        3.5656  -17.2865  -41.5775 H         1 UNK         0.3000 
    165 H165        0.4974  -15.7678  -40.9424 H         1 UNK         0.0600 
    166 H166        1.3834  -15.2228  -38.6891 H         1 UNK         0.0600 
    167 H167        0.7912  -16.8759  -38.7184 H         1 UNK         0.0600 
    168 H168        2.5225  -16.5669  -38.7810 H         1 UNK         0.0600 
    169 H169        3.0977  -14.8009  -40.4668 H         1 UNK         0.3000 
    170 H170        4.5814  -14.0413  -41.9797 H         1 UNK         0.0600 
    171 H171        4.8571  -15.3163  -44.0934 H         1 UNK         0.0600 
    172 H172        3.7813  -14.2100  -44.9342 H         1 UNK         0.0600 
    173 H173        5.3277  -13.6371  -44.3153 H         1 UNK         0.0600 
    174 H174        3.1957  -12.1744  -43.7313 H         1 UNK         0.3000 
    175 H175        2.2921   -9.9534  -41.0475 H         1 UNK         0.0600 
    176 H176        4.3324   -9.7649  -43.3269 H         1 UNK         0.0600 
    177 H177        3.5823   -8.4050  -42.4933 H         1 UNK         0.0600 
    178 H178        4.6680   -9.4776  -41.6224 H         1 UNK         0.0600 
    179 H179        1.9462  -10.6618  -43.9438 H         1 UNK         0.3000 
    180 H180       -1.4879   -9.9859  -43.7888 H         1 UNK         0.0600 
    181 H181        0.5124   -8.1360  -45.1976 H         1 UNK         0.0600 
    182 H182       -0.7694   -7.6132  -44.1104 H         1 UNK         0.0600 
    183 H183       -1.1776   -8.3637  -45.6454 H         1 UNK         0.0600 
    184 H184        0.3531  -10.4484  -45.9641 H         1 UNK         0.3000 
    185 H185        0.8970  -13.8198  -45.5222 H         1 UNK         0.0600 
    186 H186       -1.4466  -14.1883  -46.2978 H         1 UNK         0.0600 
    187 H187       -1.2851  -12.8770  -47.4610 H         1 UNK         0.0600 
    188 H188       -0.3178  -14.3418  -47.6341 H         1 UNK         0.0600 
    189 H189        1.1427  -12.3906  -47.9148 H         1 UNK         0.3000 
    190 H190       -1.3505  -21.0510  -47.1720 H         1 UNK         0.3000 
    191 H191       -3.0657  -21.5302  -49.3717 H         1 UNK         0.0600 
    192 H192       -3.6986  -20.7071  -46.4899 H         1 UNK         0.0600 
    193 H193       -4.8337  -20.6267  -47.8280 H         1 UNK         0.0600 
    194 H194       -3.3865  -19.6277  -47.8465 H         1 UNK         0.0600 
    195 H195       -2.8778  -23.1948  -46.1628 H         1 UNK         0.3000 
    196 H196       -4.9843  -25.0131  -46.5742 H         1 UNK         0.0600 
    197 H197       -3.9196  -26.3184  -44.7484 H         1 UNK         0.0600 
    198 H198       -3.9437  -24.6050  -44.3636 H         1 UNK         0.0600 
    199 H199       -2.4480  -25.3698  -44.8982 H         1 UNK         0.0600 
    200 H200       -1.5048  -25.3495  -47.3953 H         1 UNK         0.3000 
    201 H201       -1.6377  -27.9497  -48.5362 H         1 UNK         0.0600 
    202 H202        0.4831  -26.8542  -47.8573 H         1 UNK         0.0600 
    203 H203        0.2850  -25.6329  -49.1114 H         1 UNK         0.0600 
    204 H204        0.5511  -27.3150  -49.5519 H         1 UNK         0.0600 
    205 H205       -2.5178  -24.8082  -49.8368 H         1 UNK         0.3000 
    206 H206       -2.9655  -25.8048  -52.5768 H         1 UNK         0.0600 
    207 H207       -1.9379  -23.5580  -52.2073 H         1 UNK         0.0600 
    208 H208       -3.4716  -23.4379  -53.0530 H         1 UNK         0.0600 
    209 H209       -3.3782  -23.0315  -51.3458 H         1 UNK         0.0600 
    210 H210       -4.5131  -26.7693  -50.1328 H         1 UNK         0.3000 
    211 H211       -6.5089  -27.5310  -49.6149 H         1 UNK         0.0600 
    212 H212       -7.3048  -26.9345  -52.5117 H         1 UNK         0.0600 
    213 H213       -8.1369  -28.0224  -51.4107 H         1 UNK         0.0600 
    214 H214       -6.5079  -28.4001  -51.9459 H         1 UNK         0.0600 
    215 H215       -6.0351  -25.0710  -48.7225 H         1 UNK         0.3000 
    216 H216       -6.8979  -23.3500  -47.6363 H         1 UNK         0.0600 
    217 H217       -9.2808  -23.1392  -47.1175 H         1 UNK         0.0600 
    218 H218       -8.8047  -24.8211  -46.9475 H         1 UNK         0.0600 
    219 H219       -9.7181  -24.2975  -48.3621 H         1 UNK         0.0600 
    220 H220       -5.8286  -23.0071  -49.9932 H         1 UNK         0.3000 
    221 H221       -5.4576  -21.7275  -51.7385 H         1 UNK         0.0600 
    222 H222       -7.1978  -19.6841  -50.2572 H         1 UNK         0.0600 
    223 H223       -5.4650  -19.9355  -50.0388 H         1 UNK         0.0600 
    224 H224       -6.0739  -19.3159  -51.5606 H         1 UNK         0.0600 
    225 H225       -6.9521  -23.5452  -52.6520 H         1 UNK         0.3000 
    226 H226       -9.4962  -22.7356  -53.7995 H         1 UNK         0.0600 
    227 H227       -9.3985  -25.0188  -54.7955 H         1 UNK         0.0600 
    228 H228       -7.7464  -25.2127  -54.2186 H         1 UNK         0.0600 
    229 H229       -9.0748  -25.0599  -53.0701 H         1 UNK         0.0600 
    230 H230       -8.3638  -20.7649  -54.6996 H         1 UNK         0.3000 
    231 H231       -7.7498  -19.4507  -56.3777 H         1 UNK         0.0600 
    232 H232       -9.5471  -20.6039  -57.6911 H         1 UNK         0.0600 
    233 H233       -8.3611  -21.7572  -58.3011 H         1 UNK         0.0600 
    234 H234       -8.2308  -20.0540  -58.7141 H         1 UNK         0.0600 
    235 H235       -5.7535  -20.7584  -54.9224 H         1 UNK         0.3000 
    236 H236       -3.4190  -20.4772  -56.5808 H         1 UNK         0.0600 
    237 H237       -4.0173  -22.8541  -57.1263 H         1 UNK         0.0600 
    238 H238       -2.5942  -22.8287  -56.1029 H         1 UNK         0.0600 
    239 H239       -4.1636  -23.2336  -55.4142 H         1 UNK         0.0600 
    240 H240       -1.4579  -20.8460  -55.1733 H         1 UNK         0.3000 
    241 H241       -1.8356  -20.7362  -52.2816 H         1 UNK         0.0600 
    242 H242       -0.5487  -22.6365  -54.3831 H         1 UNK         0.3800 
    243 H243        1.0660  -22.8060  -53.7583 H         1 UNK         0.3800 
    244 H244       -0.3858  -18.4441  -53.6884 H         1 UNK         0.0800 
    245 H245       -2.0340  -18.3363  -53.1623 H         1 UNK         0.0800 
    246 H246        1.4286  -17.8209  -52.4751 H         1 UNK         0.0800 
    247 H247        0.6682  -16.3582  -51.8944 H         1 UNK         0.0800 
@<TRIPOS>BOND
     1    1    2 1    
     2    1  127 1    
     3    1  128 1    
     4    1  129 1    
     5    2    3 2    
     6    2    4 am   BACKBONE|DICT|INTERRES
     7    4    5 1    
     8    4  130 1    
     9    5    6 1    
    10    5   65 1    
    11    5  131 1    
    12    6    7 1    
    13    6  132 1    
    14    6  133 1    
    15    7    8 1    
    16    8    9 1    
    17    8  134 1    
    18    8  135 1    
    19    9   10 ar   
    20    9   14 ar   
    21   10   11 ar   
    22   10  136 1    
    23   11   12 ar   
    24   11  126 1    
    25   12   13 ar   
    26   12  137 1    
    27   13   14 ar   
    28   13   15 1    
    29   14  138 1    
    30   15   16 1    
    31   15  139 1    
    32   15  140 1    
    33   16   17 1    
    34   17   18 1    
    35   17  141 1    
    36   17  142 1    
    37   18   19 1    
    38   18   67 1    
    39   18  143 1    
    40   19   20 am   BACKBONE|DICT|INTERRES
    41   19  144 1    
    42   20   21 2    
    43   20   22 1    
    44   22   23 1    
    45   22   24 1    
    46   22  145 1    
    47   23  146 1    
    48   23  147 1    
    49   23  148 1    
    50   24   25 am   BACKBONE|DICT|INTERRES
    51   24  149 1    
    52   25   26 2    
    53   25   27 1    
    54   27   28 1    
    55   27   29 1    
    56   27  150 1    
    57   28  151 1    
    58   28  152 1    
    59   28  153 1    
    60   29   30 am   BACKBONE|DICT|INTERRES
    61   29  154 1    
    62   30   31 2    
    63   30   32 1    
    64   32   33 1    
    65   32   34 1    
    66   32  155 1    
    67   33  156 1    
    68   33  157 1    
    69   33  158 1    
    70   34   35 am   BACKBONE|DICT|INTERRES
    71   34  159 1    
    72   35   36 2    
    73   35   37 1    
    74   37   38 1    
    75   37   39 1    
    76   37  160 1    
    77   38  161 1    
    78   38  162 1    
    79   38  163 1    
    80   39   40 am   BACKBONE|DICT|INTERRES
    81   39  164 1    
    82   40   41 2    
    83   40   42 1    
    84   42   43 1    
    85   42   44 1    
    86   42  165 1    
    87   43  166 1    
    88   43  167 1    
    89   43  168 1    
    90   44   45 am   BACKBONE|DICT|INTERRES
    91   44  169 1    
    92   45   46 2    
    93   45   47 1    
    94   47   48 1    
    95   47   49 1    
    96   47  170 1    
    97   48  171 1    
    98   48  172 1    
    99   48  173 1    
   100   49   50 am   BACKBONE|DICT|INTERRES
   101   49  174 1    
   102   50   51 2    
   103   50   52 1    
   104   52   53 1    
   105   52   54 1    
   106   52  175 1    
   107   53  176 1    
   108   53  177 1    
   109   53  178 1    
   110   54   55 am   BACKBONE|DICT|INTERRES
   111   54  179 1    
   112   55   56 2    
   113   55   57 1    
   114   57   58 1    
   115   57   59 1    
   116   57  180 1    
   117   58  181 1    
   118   58  182 1    
   119   58  183 1    
   120   59   60 am   BACKBONE|DICT|INTERRES
   121   59  184 1    
   122   60   61 2    
   123   60   62 1    
   124   62   63 1    
   125   62   64 1    
   126   62  185 1    
   127   63  186 1    
   128   63  187 1    
   129   63  188 1    
   130   64   65 am   BACKBONE|DICT|INTERRES
   131   64  189 1    
   132   65   66 2    
   133   67   68 2    
   134   67   69 am   BACKBONE|DICT|INTERRES
   135   69   70 1    
   136   69  190 1    
   137   70   71 1    
   138   70   72 1    
   139   70  191 1    
   140   71  192 1    
   141   71  193 1    
   142   71  194 1    
   143   72   73 2    
   144   72   74 am   BACKBONE|DICT|INTERRES
   145   74   75 1    
   146   74  195 1    
   147   75   76 1    
   148   75   77 1    
   149   75  196 1    
   150   76  197 1    
   151   76  198 1    
   152   76  199 1    
   153   77   78 2    
   154   77   79 am   BACKBONE|DICT|INTERRES
   155   79   80 1    
   156   79  200 1    
   157   80   81 1    
   158   80   82 1    
   159   80  201 1    
   160   81  202 1    
   161   81  203 1    
   162   81  204 1    
   163   82   83 2    
   164   82   84 am   BACKBONE|DICT|INTERRES
   165   84   85 1    
   166   84  205 1    
   167   85   86 1    
   168   85   87 1    
   169   85  206 1    
   170   86  207 1    
   171   86  208 1    
   172   86  209 1    
   173   87   88 2    
   174   87   89 am   BACKBONE|DICT|INTERRES
   175   89   90 1    
   176   89  210 1    
   177   90   91 1    
   178   90   92 1    
   179   90  211 1    
   180   91  212 1    
   181   91  213 1    
   182   91  214 1    
   183   92   93 2    
   184   92   94 am   BACKBONE|DICT|INTERRES
   185   94   95 1    
   186   94  215 1    
   187   95   96 1    
   188   95   97 1    
   189   95  216 1    
   190   96  217 1    
   191   96  218 1    
   192   96  219 1    
   193   97   98 2    
   194   97   99 am   BACKBONE|DICT|INTERRES
   195   99  100 1    
   196   99  220 1    
   197  100  101 1    
   198  100  102 1    
   199  100  221 1    
   200  101  222 1    
   201  101  223 1    
   202  101  224 1    
   203  102  103 2    
   204  102  104 am   BACKBONE|DICT|INTERRES
   205  104  105 1    
   206  104  225 1    
   207  105  106 1    
   208  105  107 1    
   209  105  226 1    
   210  106  227 1    
   211  106  228 1    
   212  106  229 1    
   213  107  108 2    
   214  107  109 am   BACKBONE|DICT|INTERRES
   215  109  110 1    
   216  109  230 1    
   217  110  111 1    
   218  110  112 1    
   219  110  231 1    
   220  111  232 1    
   221  111  233 1    
   222  111  234 1    
   223  112  113 2    
   224  112  114 am   BACKBONE|DICT|INTERRES
   225  114  115 1    
   226  114  235 1    
   227  115  116 1    
   228  115  117 1    
   229  115  236 1    
   230  116  237 1    
   231  116  238 1    
   232  116  239 1    
   233  117  118 2    
   234  117  119 am   BACKBONE|DICT|INTERRES
   235  119  120 1    
   236  119  240 1    
   237  120  121 1    
   238  120  124 1    
   239  120  241 1    
   240  121  122 am   BACKBONE|DICT|INTERRES
   241  121  123 2    
   242  122  242 1    
   243  122  243 1    
   244  124  125 1    
   245  124  244 1    
   246  124  245 1    
   247  125  126 1    
   248  126  246 1    
   249  126  247 1    
@<TRIPOS>SUBSTRUCTURE
     1 UNK         1 GROUP             0       ****    0 ROOT    
