@<TRIPOS>MOLECULE
3R540
247   249    1
SMALL
USER_CHARGES


@<TRIPOS>ATOM
      1 CA         -3.7234  -11.4650  -50.1120 C.3       0 UNK        -0.1800 
      2 C          -2.7505  -12.5820  -49.7621 C.2       0 UNK         0.5000 
      3 O          -2.1054  -13.1326  -50.6540 O.2       0 UNK        -0.5000 
      4 N          -2.6450  -12.9161  -48.4692 N.am      1 UNK        -0.5000 
      5 CA         -1.7744  -13.9755  -47.9409 C.3       1 UNK         0.1400 
      6 C6         -2.1267  -14.3344  -46.4776 C.3       23 UNK        -0.0398 
      7 S7         -3.8230  -14.9874  -46.3041 S.3       23 UNK        -0.2404 
      8 C8         -3.5302  -16.7624  -46.0158 C.3       23 UNK        -0.0205 
      9 C9         -3.0925  -17.4892  -47.2789 C.ar      23 UNK        -0.0193 
     10 C10        -4.0437  -18.0999  -48.1014 C.ar      23 UNK        -0.1150 
     11 C11        -3.6569  -18.7777  -49.2614 C.ar      23 UNK        -0.0193 
     12 C12        -2.3009  -18.8118  -49.6059 C.ar      23 UNK        -0.1150 
     13 C13        -1.3391  -18.2137  -48.7900 C.ar      23 UNK        -0.0193 
     14 C14        -1.7395  -17.5664  -47.6196 C.ar      23 UNK        -0.1150 
     15 C15         0.1278  -18.2461  -49.1911 C.3       23 UNK        -0.0205 
     16 S16         0.8409  -19.9169  -49.0758 S.3       23 UNK        -0.2404 
     17 C17         0.8647  -20.1848  -47.2717 C.3       23 UNK        -0.0398 
     18 CA          0.3898  -21.5904  -46.8278 C.3       11 UNK         0.1400 
     19 N           0.6959  -21.8186  -45.4134 N.am      11 UNK        -0.5000 
     20 C           0.5185  -22.9636  -44.7404 C.2       10 UNK         0.5000 
     21 O           0.1012  -24.0033  -45.2497 O.2       10 UNK        -0.5000 
     22 CA          0.8111  -22.9230  -43.2285 C.3       10 UNK         0.1400 
     23 CB          2.3202  -23.0044  -42.9543 C.3       10 UNK        -0.1800 
     24 N           0.2551  -21.7325  -42.5820 N.am      10 UNK        -0.5000 
     25 C          -1.0569  -21.4681  -42.4952 C.2       9 UNK         0.5000 
     26 O          -1.9348  -22.2223  -42.9127 O.2       9 UNK        -0.5000 
     27 CA         -1.4581  -20.1145  -41.8834 C.3       9 UNK         0.1400 
     28 CB         -1.3951  -20.1675  -40.3499 C.3       9 UNK        -0.1800 
     29 N          -0.6387  -19.0074  -42.3767 N.am      9 UNK        -0.5000 
     30 C          -0.5822  -18.6227  -43.6599 C.2       8 UNK         0.5000 
     31 O          -1.2478  -19.1342  -44.5586 O.2       8 UNK        -0.5000 
     32 CA          0.4278  -17.5185  -44.0107 C.3       8 UNK         0.1400 
     33 CB         -0.1040  -16.1366  -43.6029 C.3       8 UNK        -0.1800 
     34 N           1.7310  -17.7380  -43.3894 N.am      8 UNK        -0.5000 
     35 C           2.5226  -18.7997  -43.5852 C.2       7 UNK         0.5000 
     36 O           2.2677  -19.7070  -44.3741 O.2       7 UNK        -0.5000 
     37 CA          3.7842  -18.8887  -42.7117 C.3       7 UNK         0.1400 
     38 CB          4.9319  -18.0549  -43.2991 C.3       7 UNK        -0.1800 
     39 N           3.5242  -18.4598  -41.3389 N.am      7 UNK        -0.5000 
     40 C           2.8165  -19.1639  -40.4468 C.2       6 UNK         0.5000 
     41 O           2.3298  -20.2715  -40.6796 O.2       6 UNK        -0.5000 
     42 CA          2.5957  -18.5005  -39.0742 C.3       6 UNK         0.1400 
     43 CB          3.8270  -18.6897  -38.1755 C.3       6 UNK        -0.1800 
     44 N           2.2813  -17.0721  -39.1737 N.am      6 UNK        -0.5000 
     45 C           1.1374  -16.5951  -39.6822 C.2       5 UNK         0.5000 
     46 O           0.2423  -17.3110  -40.1312 O.2       5 UNK        -0.5000 
     47 CA          0.9685  -15.0626  -39.7254 C.3       5 UNK         0.1400 
     48 CB          0.5835  -14.5280  -38.3373 C.3       5 UNK        -0.1800 
     49 N           2.1077  -14.2899  -40.2418 N.am      5 UNK        -0.5000 
     50 C           2.8162  -14.5557  -41.3476 C.2       4 UNK         0.5000 
     51 O           2.7550  -15.6180  -41.9653 O.2       4 UNK        -0.5000 
     52 CA          3.7705  -13.4549  -41.8488 C.3       4 UNK         0.1400 
     53 CB          5.1268  -13.5609  -41.1356 C.3       4 UNK        -0.1800 
     54 N           3.9877  -13.5592  -43.2954 N.am      4 UNK        -0.5000 
     55 C           3.0429  -13.3754  -44.2287 C.2       3 UNK         0.5000 
     56 O           1.9120  -12.9457  -43.9843 O.2       3 UNK        -0.5000 
     57 CA          3.4296  -13.7901  -45.6630 C.3       3 UNK         0.1400 
     58 CB          3.4551  -15.3220  -45.7953 C.3       3 UNK        -0.1800 
     59 N           2.5125  -13.2692  -46.6738 N.am      3 UNK        -0.5000 
     60 C           2.4129  -11.9975  -47.0689 C.2       2 UNK         0.5000 
     61 O           3.1211  -11.0913  -46.6268 O.2       2 UNK        -0.5000 
     62 CA          1.3614  -11.6735  -48.1525 C.3       2 UNK         0.1400 
     63 CB          1.9331  -11.9242  -49.5607 C.3       2 UNK        -0.1800 
     64 N           0.0508  -12.3256  -47.9974 N.am      2 UNK        -0.5000 
     65 C          -0.2740  -13.6278  -48.0546 C.2       1 UNK         0.5000 
     66 O           0.5437  -14.5398  -48.1832 O.2       1 UNK        -0.5000 
     67 C          -1.1010  -21.8440  -47.1395 C.2       11 UNK         0.5000 
     68 O          -1.4029  -22.5583  -48.0971 O.2       11 UNK        -0.5000 
     69 N          -1.9934  -21.3126  -46.2912 N.am      12 UNK        -0.5000 
     70 CA         -3.4391  -21.5158  -46.3635 C.3       12 UNK         0.1400 
     71 CB         -4.1386  -20.5978  -45.3501 C.3       12 UNK        -0.1800 
     72 C          -3.8507  -22.9784  -46.1226 C.2       12 UNK         0.5000 
     73 O          -4.6752  -23.5018  -46.8714 O.2       12 UNK        -0.5000 
     74 N          -3.2659  -23.6139  -45.0959 N.am      13 UNK        -0.5000 
     75 CA         -3.5280  -25.0047  -44.7162 C.3       13 UNK         0.1400 
     76 CB         -2.8560  -25.3096  -43.3689 C.3       13 UNK        -0.1800 
     77 C          -3.0806  -26.0156  -45.7863 C.2       13 UNK         0.5000 
     78 O          -3.8057  -26.9728  -46.0601 O.2       13 UNK        -0.5000 
     79 N          -1.9108  -25.7703  -46.3904 N.am      14 UNK        -0.5000 
     80 CA         -1.3827  -26.5432  -47.5155 C.3       14 UNK         0.1400 
     81 CB          0.1191  -26.2481  -47.6521 C.3       14 UNK        -0.1800 
     82 C          -2.1028  -26.2434  -48.8454 C.2       14 UNK         0.5000 
     83 O          -2.0114  -27.0492  -49.7721 O.2       14 UNK        -0.5000 
     84 N          -2.7692  -25.0812  -48.9186 N.am      15 UNK        -0.5000 
     85 CA         -3.3691  -24.4555  -50.1002 C.3       15 UNK         0.1400 
     86 CB         -4.5837  -25.2616  -50.6022 C.3       15 UNK        -0.1800 
     87 C          -2.3160  -24.1873  -51.1964 C.2       15 UNK         0.5000 
     88 O          -2.5680  -24.4233  -52.3791 O.2       15 UNK        -0.5000 
     89 N          -1.1291  -23.7379  -50.7659 N.am      16 UNK        -0.5000 
     90 CA          0.1047  -23.7337  -51.5535 C.3       16 UNK         0.1400 
     91 CB          1.2982  -23.4920  -50.6185 C.3       16 UNK        -0.1800 
     92 C           0.1183  -22.7559  -52.7426 C.2       16 UNK         0.5000 
     93 O           0.8734  -22.9825  -53.6892 O.2       16 UNK        -0.5000 
     94 N          -0.7189  -21.7099  -52.7004 N.am      17 UNK        -0.5000 
     95 CA         -0.9149  -20.7884  -53.8240 C.3       17 UNK         0.1400 
     96 CB         -1.4993  -19.4645  -53.3116 C.3       17 UNK        -0.1800 
     97 C          -1.8090  -21.3784  -54.9326 C.2       17 UNK         0.5000 
     98 O          -1.7770  -20.8763  -56.0566 O.2       17 UNK        -0.5000 
     99 N          -2.5902  -22.4207  -54.6062 N.am      18 UNK        -0.5000 
    100 CA        -3.5379  -23.1170  -55.4781 C.3       18 UNK         0.1400 
    101 CB        -2.7753  -23.9954  -56.4946 C.3       18 UNK        -0.1800 
    102 C         -4.5512  -22.1410  -56.1135 C.2       18 UNK         0.5000 
    103 O         -5.1394  -21.3305  -55.3954 O.2       18 UNK        -0.5000 
    104 N         -4.7238  -22.1983  -57.4390 N.am      19 UNK        -0.5000 
    105 CA        -5.6473  -21.3639  -58.2118 C.3       19 UNK         0.1400 
    106 CB        -5.6704  -21.8748  -59.6611 C.3       19 UNK        -0.1800 
    107 C         -5.3473  -19.8491  -58.1788 C.2       19 UNK         0.5000 
    108 O         -6.2190  -19.0642  -58.5546 O.2       19 UNK        -0.5000 
    109 N         -4.1415  -19.4532  -57.7432 N.am      20 UNK        -0.5000 
    110 CA        -3.7205  -18.0540  -57.6625 C.3       20 UNK         0.1400 
    111 CB        -2.1876  -17.9806  -57.5872 C.3       20 UNK        -0.1800 
    112 C         -4.3527  -17.2796  -56.4894 C.2       20 UNK         0.5000 
    113 O         -4.3765  -16.0489  -56.5482 O.2       20 UNK        -0.5000 
    114 N         -4.8464  -17.9783  -55.4550 N.am      21 UNK        -0.5000 
    115 CA        -5.4701  -17.3473  -54.2883 C.3       21 UNK         0.1400 
    116 CB        -4.4009  -16.7618  -53.3436 C.3       21 UNK        -0.1800 
    117 C         -6.3971  -18.2970  -53.5192 C.2       21 UNK         0.5000 
    118 O         -7.4981  -17.8898  -53.1464 O.2       21 UNK        -0.5000 
    119 N         -5.9291  -19.5220  -53.2531 N.am      22 UNK        -0.5000 
    120 CA        -6.6292  -20.5036  -52.4078 C.3       22 UNK         0.1400 
    121 C         -7.8406  -21.1840  -53.1042 C.2       22 UNK         0.5000 
    122 N         -7.8086  -21.3755  -54.4159 N.am      22 UNK        -0.7600 
    123 O         -8.8170  -21.5353  -52.4478 O.2       22 UNK        -0.5000 
    124 C124       -5.6595  -21.5756  -51.8450 C.3       23 UNK        -0.0398 
    125 S125       -4.1779  -20.9608  -50.9622 S.3       23 UNK        -0.2404 
    126 C126       -4.7237  -19.4203  -50.1435 C.3       23 UNK        -0.0205 
    127 H127       -3.1933  -10.6429  -50.5930 H         1 UNK         0.0600 
    128 H128       -4.2274  -11.0738  -49.2279 H         1 UNK         0.0600 
    129 H129       -4.4834  -11.8321  -50.8017 H         1 UNK         0.0600 
    130 H130       -3.2253  -12.4469  -47.7882 H         1 UNK         0.3000 
    131 H131       -1.9350  -14.8642  -48.5550 H         1 UNK         0.0600 
    132 H132       -2.0352  -13.4555  -45.8370 H         1 UNK         0.0800 
    133 H133       -1.4208  -15.0622  -46.0795 H         1 UNK         0.0800 
    134 H134       -2.7954  -16.9024  -45.2243 H         1 UNK         0.0800 
    135 H135       -4.4550  -17.2029  -45.6411 H         1 UNK         0.0800 
    136 H136       -5.0900  -18.0458  -47.8353 H         1 UNK         0.1150 
    137 H137       -1.9827  -19.3114  -50.5072 H         1 UNK         0.1150 
    138 H138       -0.9965  -17.1105  -46.9829 H         1 UNK         0.1150 
    139 H139        0.2203  -17.8955  -50.2198 H         1 UNK         0.0800 
    140 H140        0.7155  -17.5570  -48.5818 H         1 UNK         0.0800 
    141 H141        0.2845  -19.4124  -46.7677 H         1 UNK         0.0800 
    142 H142        1.8969  -20.0325  -46.9551 H         1 UNK         0.0800 
    143 H143        0.9643  -22.3292  -47.3904 H         1 UNK         0.0600 
    144 H144        1.0910  -21.0253  -44.9134 H         1 UNK         0.3000 
    145 H145        0.3393  -23.7979  -42.7767 H         1 UNK         0.0600 
    146 H146        2.7485  -23.9040  -43.3979 H         1 UNK         0.0600 
    147 H147        2.8545  -22.1487  -43.3668 H         1 UNK         0.0600 
    148 H148        2.5241  -23.0398  -41.8839 H         1 UNK         0.0600 
    149 H149        0.9154  -21.0701  -42.1929 H         1 UNK         0.3000 
    150 H150       -2.4919  -19.9155  -42.1732 H         1 UNK         0.0600 
    151 H151       -1.9966  -20.9903  -39.9616 H         1 UNK         0.0600 
    152 H152       -1.7799  -19.2478  -39.9090 H         1 UNK         0.0600 
    153 H153       -0.3746  -20.3074  -39.9923 H         1 UNK         0.0600 
    154 H154       -0.0949  -18.5011  -41.6846 H         1 UNK         0.3000 
    155 H155        0.5676  -17.5272  -45.0930 H         1 UNK         0.0600 
    156 H156       -0.1322  -16.0220  -42.5204 H         1 UNK         0.0600 
    157 H157        0.5213  -15.3402  -44.0047 H         1 UNK         0.0600 
    158 H158       -1.1169  -15.9729  -43.9660 H         1 UNK         0.0600 
    159 H159        2.0542  -17.0136  -42.7487 H         1 UNK         0.3000 
    160 H160        4.1005  -19.9338  -42.6951 H         1 UNK         0.0600 
    161 H161        4.7281  -16.9866  -43.2332 H         1 UNK         0.0600 
    162 H162        5.0984  -18.2982  -44.3493 H         1 UNK         0.0600 
    163 H163        5.8647  -18.2467  -42.7687 H         1 UNK         0.0600 
    164 H164        3.8027  -17.5185  -41.0995 H         1 UNK         0.3000 
    165 H165        1.7499  -19.0019  -38.5986 H         1 UNK         0.0600 
    166 H166        3.6471  -18.2995  -37.1736 H         1 UNK         0.0600 
    167 H167        4.0752  -19.7469  -38.0717 H         1 UNK         0.0600 
    168 H168        4.7047  -18.1844  -38.5805 H         1 UNK         0.0600 
    169 H169        2.9762  -16.4194  -38.8420 H         1 UNK         0.3000 
    170 H170        0.1325  -14.8596  -40.3971 H         1 UNK         0.0600 
    171 H171       -0.2710  -15.0709  -37.9307 H         1 UNK         0.0600 
    172 H172        1.4044  -14.6272  -37.6261 H         1 UNK         0.0600 
    173 H173        0.3038  -13.4753  -38.3825 H         1 UNK         0.0600 
    174 H174        2.2659  -13.4030  -39.7858 H         1 UNK         0.3000 
    175 H175        3.3281  -12.4797  -41.6354 H         1 UNK         0.0600 
    176 H176        5.6062  -14.5227  -41.3237 H         1 UNK         0.0600 
    177 H177        5.8081  -12.7760  -41.4646 H         1 UNK         0.0600 
    178 H178        5.0120  -13.4574  -40.0559 H         1 UNK         0.0600 
    179 H179        4.8773  -13.9417  -43.5790 H         1 UNK         0.3000 
    180 H180        4.4278  -13.4016  -45.8753 H         1 UNK         0.0600 
    181 H181        2.4855  -15.7622  -45.5609 H         1 UNK         0.0600 
    182 H182        4.1886  -15.7628  -45.1220 H         1 UNK         0.0600 
    183 H183        3.7243  -15.6278  -46.8065 H         1 UNK         0.0600 
    184 H184        1.8774  -13.9353  -47.1062 H         1 UNK         0.3000 
    185 H185        1.1615  -10.6038  -48.0721 H         1 UNK         0.0600 
    186 H186        2.8538  -11.3598  -49.7137 H         1 UNK         0.0600 
    187 H187        2.1659  -12.9769  -49.7241 H         1 UNK         0.0600 
    188 H188        1.2289  -11.6136  -50.3327 H         1 UNK         0.0600 
    189 H189       -0.7171  -11.6831  -47.8620 H         1 UNK         0.3000 
    190 H190       -1.6625  -20.6961  -45.5533 H         1 UNK         0.3000 
    191 H191       -3.7635  -21.2319  -47.3670 H         1 UNK         0.0600 
    192 H192       -3.8710  -20.8492  -44.3235 H         1 UNK         0.0600 
    193 H193       -5.2229  -20.6730  -45.4376 H         1 UNK         0.0600 
    194 H194       -3.8695  -19.5568  -45.5114 H         1 UNK         0.0600 
    195 H195       -2.6302  -23.0949  -44.4959 H         1 UNK         0.3000 
    196 H196       -4.6067  -25.1156  -44.5883 H         1 UNK         0.0600 
    197 H197       -3.0388  -26.3408  -43.0642 H         1 UNK         0.0600 
    198 H198       -3.2444  -24.6647  -42.5806 H         1 UNK         0.0600 
    199 H199       -1.7761  -25.1665  -43.4167 H         1 UNK         0.0600 
    200 H200       -1.3393  -24.9951  -46.0628 H         1 UNK         0.3000 
    201 H201       -1.5069  -27.6067  -47.3011 H         1 UNK         0.0600 
    202 H202        0.6586  -26.5228  -46.7455 H         1 UNK         0.0600 
    203 H203        0.3014  -25.1892  -47.8404 H         1 UNK         0.0600 
    204 H204        0.5587  -26.8107  -48.4767 H         1 UNK         0.0600 
    205 H205       -2.7502  -24.4913  -48.0970 H         1 UNK         0.3000 
    206 H206       -3.7314  -23.4855  -49.7633 H         1 UNK         0.0600 
    207 H207       -5.3068  -25.4197  -49.8020 H         1 UNK         0.0600 
    208 H208       -5.0977  -24.7313  -51.4045 H         1 UNK         0.0600 
    209 H209       -4.2918  -26.2376  -50.9903 H         1 UNK         0.0600 
    210 H210       -1.0505  -23.4820  -49.7852 H         1 UNK         0.3000 
    211 H211        0.2175  -24.7344  -51.9760 H         1 UNK         0.0600 
    212 H212        1.3790  -24.2808  -49.8710 H         1 UNK         0.0600 
    213 H213        2.2371  -23.4748  -51.1733 H         1 UNK         0.0600 
    214 H214        1.2090  -22.5431  -50.0940 H         1 UNK         0.0600 
    215 H215       -1.3092  -21.5919  -51.8893 H         1 UNK         0.3000 
    216 H216        0.0565  -20.5693  -54.2722 H         1 UNK         0.0600 
    217 H217       -2.4848  -19.6047  -52.8711 H         1 UNK         0.0600 
    218 H218       -1.6077  -18.7451  -54.1242 H         1 UNK         0.0600 
    219 H219       -0.8501  -19.0095  -52.5637 H         1 UNK         0.0600 
    220 H220       -2.5269  -22.7938  -53.6659 H         1 UNK         0.3000 
    221 H221       -4.1180  -23.7791  -54.8339 H         1 UNK         0.0600 
    222 H222       -2.1827  -23.3994  -57.1898 H         1 UNK         0.0600 
    223 H223       -2.0932  -24.6736  -55.9815 H         1 UNK         0.0600 
    224 H224       -3.4584  -24.6147  -57.0770 H         1 UNK         0.0600 
    225 H225       -4.1799  -22.8679  -57.9633 H         1 UNK         0.3000 
    226 H226       -6.6446  -21.4985  -57.7880 H         1 UNK         0.0600 
    227 H227       -5.9749  -22.9205  -59.7071 H         1 UNK         0.0600 
    228 H228       -6.3777  -21.3067  -60.2670 H         1 UNK         0.0600 
    229 H229       -4.6907  -21.7878  -60.1325 H         1 UNK         0.0600 
    230 H230       -3.4780  -20.1472  -57.4207 H         1 UNK         0.3000 
    231 H231       -4.0288  -17.5562  -58.5845 H         1 UNK         0.0600 
    232 H232       -1.8447  -16.9500  -57.6859 H         1 UNK         0.0600 
    233 H233       -1.7203  -18.5566  -58.3861 H         1 UNK         0.0600 
    234 H234       -1.8116  -18.3544  -56.6354 H         1 UNK         0.0600 
    235 H235       -4.8552  -18.9894  -55.5014 H         1 UNK         0.3000 
    236 H236       -6.0983  -16.5254  -54.6396 H         1 UNK         0.0600 
    237 H237       -3.8107  -15.9883  -53.8345 H         1 UNK         0.0600 
    238 H238       -4.8618  -16.3046  -52.4670 H         1 UNK         0.0600 
    239 H239       -3.7144  -17.5289  -52.9868 H         1 UNK         0.0600 
    240 H240       -5.0401  -19.8206  -53.6255 H         1 UNK         0.3000 
    241 H241       -7.0468  -19.9647  -51.5555 H         1 UNK         0.0600 
    242 H242       -6.9519  -21.1724  -54.9224 H         1 UNK         0.3800 
    243 H243       -8.5884  -21.8098  -54.8824 H         1 UNK         0.3800 
    244 H244       -6.1938  -22.2315  -51.1554 H         1 UNK         0.0800 
    245 H245       -5.3064  -22.2185  -52.6535 H         1 UNK         0.0800 
    246 H246       -5.6117  -19.6435  -49.5502 H         1 UNK         0.0800 
    247 H247       -5.0142  -18.6821  -50.8886 H         1 UNK         0.0800 
@<TRIPOS>BOND
     1    1    2 1    
     2    1  127 1    
     3    1  128 1    
     4    1  129 1    
     5    2    3 2    
     6    2    4 am   BACKBONE|DICT|INTERRES
     7    4    5 1    
     8    4  130 1    
     9    5    6 1    
    10    5   65 1    
    11    5  131 1    
    12    6    7 1    
    13    6  132 1    
    14    6  133 1    
    15    7    8 1    
    16    8    9 1    
    17    8  134 1    
    18    8  135 1    
    19    9   10 ar   
    20    9   14 ar   
    21   10   11 ar   
    22   10  136 1    
    23   11   12 ar   
    24   11  126 1    
    25   12   13 ar   
    26   12  137 1    
    27   13   14 ar   
    28   13   15 1    
    29   14  138 1    
    30   15   16 1    
    31   15  139 1    
    32   15  140 1    
    33   16   17 1    
    34   17   18 1    
    35   17  141 1    
    36   17  142 1    
    37   18   19 1    
    38   18   67 1    
    39   18  143 1    
    40   19   20 am   BACKBONE|DICT|INTERRES
    41   19  144 1    
    42   20   21 2    
    43   20   22 1    
    44   22   23 1    
    45   22   24 1    
    46   22  145 1    
    47   23  146 1    
    48   23  147 1    
    49   23  148 1    
    50   24   25 am   BACKBONE|DICT|INTERRES
    51   24  149 1    
    52   25   26 2    
    53   25   27 1    
    54   27   28 1    
    55   27   29 1    
    56   27  150 1    
    57   28  151 1    
    58   28  152 1    
    59   28  153 1    
    60   29   30 am   BACKBONE|DICT|INTERRES
    61   29  154 1    
    62   30   31 2    
    63   30   32 1    
    64   32   33 1    
    65   32   34 1    
    66   32  155 1    
    67   33  156 1    
    68   33  157 1    
    69   33  158 1    
    70   34   35 am   BACKBONE|DICT|INTERRES
    71   34  159 1    
    72   35   36 2    
    73   35   37 1    
    74   37   38 1    
    75   37   39 1    
    76   37  160 1    
    77   38  161 1    
    78   38  162 1    
    79   38  163 1    
    80   39   40 am   BACKBONE|DICT|INTERRES
    81   39  164 1    
    82   40   41 2    
    83   40   42 1    
    84   42   43 1    
    85   42   44 1    
    86   42  165 1    
    87   43  166 1    
    88   43  167 1    
    89   43  168 1    
    90   44   45 am   BACKBONE|DICT|INTERRES
    91   44  169 1    
    92   45   46 2    
    93   45   47 1    
    94   47   48 1    
    95   47   49 1    
    96   47  170 1    
    97   48  171 1    
    98   48  172 1    
    99   48  173 1    
   100   49   50 am   BACKBONE|DICT|INTERRES
   101   49  174 1    
   102   50   51 2    
   103   50   52 1    
   104   52   53 1    
   105   52   54 1    
   106   52  175 1    
   107   53  176 1    
   108   53  177 1    
   109   53  178 1    
   110   54   55 am   BACKBONE|DICT|INTERRES
   111   54  179 1    
   112   55   56 2    
   113   55   57 1    
   114   57   58 1    
   115   57   59 1    
   116   57  180 1    
   117   58  181 1    
   118   58  182 1    
   119   58  183 1    
   120   59   60 am   BACKBONE|DICT|INTERRES
   121   59  184 1    
   122   60   61 2    
   123   60   62 1    
   124   62   63 1    
   125   62   64 1    
   126   62  185 1    
   127   63  186 1    
   128   63  187 1    
   129   63  188 1    
   130   64   65 am   BACKBONE|DICT|INTERRES
   131   64  189 1    
   132   65   66 2    
   133   67   68 2    
   134   67   69 am   BACKBONE|DICT|INTERRES
   135   69   70 1    
   136   69  190 1    
   137   70   71 1    
   138   70   72 1    
   139   70  191 1    
   140   71  192 1    
   141   71  193 1    
   142   71  194 1    
   143   72   73 2    
   144   72   74 am   BACKBONE|DICT|INTERRES
   145   74   75 1    
   146   74  195 1    
   147   75   76 1    
   148   75   77 1    
   149   75  196 1    
   150   76  197 1    
   151   76  198 1    
   152   76  199 1    
   153   77   78 2    
   154   77   79 am   BACKBONE|DICT|INTERRES
   155   79   80 1    
   156   79  200 1    
   157   80   81 1    
   158   80   82 1    
   159   80  201 1    
   160   81  202 1    
   161   81  203 1    
   162   81  204 1    
   163   82   83 2    
   164   82   84 am   BACKBONE|DICT|INTERRES
   165   84   85 1    
   166   84  205 1    
   167   85   86 1    
   168   85   87 1    
   169   85  206 1    
   170   86  207 1    
   171   86  208 1    
   172   86  209 1    
   173   87   88 2    
   174   87   89 am   BACKBONE|DICT|INTERRES
   175   89   90 1    
   176   89  210 1    
   177   90   91 1    
   178   90   92 1    
   179   90  211 1    
   180   91  212 1    
   181   91  213 1    
   182   91  214 1    
   183   92   93 2    
   184   92   94 am   BACKBONE|DICT|INTERRES
   185   94   95 1    
   186   94  215 1    
   187   95   96 1    
   188   95   97 1    
   189   95  216 1    
   190   96  217 1    
   191   96  218 1    
   192   96  219 1    
   193   97   98 2    
   194   97   99 am   BACKBONE|DICT|INTERRES
   195   99  100 1    
   196   99  220 1    
   197  100  101 1    
   198  100  102 1    
   199  100  221 1    
   200  101  222 1    
   201  101  223 1    
   202  101  224 1    
   203  102  103 2    
   204  102  104 am   BACKBONE|DICT|INTERRES
   205  104  105 1    
   206  104  225 1    
   207  105  106 1    
   208  105  107 1    
   209  105  226 1    
   210  106  227 1    
   211  106  228 1    
   212  106  229 1    
   213  107  108 2    
   214  107  109 am   BACKBONE|DICT|INTERRES
   215  109  110 1    
   216  109  230 1    
   217  110  111 1    
   218  110  112 1    
   219  110  231 1    
   220  111  232 1    
   221  111  233 1    
   222  111  234 1    
   223  112  113 2    
   224  112  114 am   BACKBONE|DICT|INTERRES
   225  114  115 1    
   226  114  235 1    
   227  115  116 1    
   228  115  117 1    
   229  115  236 1    
   230  116  237 1    
   231  116  238 1    
   232  116  239 1    
   233  117  118 2    
   234  117  119 am   BACKBONE|DICT|INTERRES
   235  119  120 1    
   236  119  240 1    
   237  120  121 1    
   238  120  124 1    
   239  120  241 1    
   240  121  122 am   BACKBONE|DICT|INTERRES
   241  121  123 2    
   242  122  242 1    
   243  122  243 1    
   244  124  125 1    
   245  124  244 1    
   246  124  245 1    
   247  125  126 1    
   248  126  246 1    
   249  126  247 1    
@<TRIPOS>SUBSTRUCTURE
     1 UNK         1 GROUP             0       ****    0 ROOT    
