@<TRIPOS>MOLECULE
3R540
247   249    1
SMALL
USER_CHARGES


@<TRIPOS>ATOM
      1 CA         -2.7397  -18.9936  -43.7333 C.3       0 UNK        -0.1800 
      2 C          -3.3608  -17.9738  -44.6771 C.2       0 UNK         0.5000 
      3 O          -4.5543  -17.6941  -44.5669 O.2       0 UNK        -0.5000 
      4 N          -2.5659  -17.4364  -45.6147 N.am      1 UNK        -0.5000 
      5 CA         -3.0072  -16.4863  -46.6521 C.3       1 UNK         0.1400 
      6 C6         -1.9139  -16.2096  -47.7125 C.3       23 UNK        -0.0398 
      7 S7         -1.3759  -17.7109  -48.5942 S.3       23 UNK        -0.2404 
      8 C8         -0.0491  -17.0173  -49.6283 C.3       23 UNK        -0.0205 
      9 C9          0.8383  -18.1087  -50.2044 C.ar      23 UNK        -0.0193 
     10 C10         0.8874  -18.3472  -51.5801 C.ar      23 UNK        -0.1150 
     11 C11         1.7096  -19.3529  -52.0971 C.ar      23 UNK        -0.0193 
     12 C12         2.4929  -20.1196  -51.2276 C.ar      23 UNK        -0.1150 
     13 C13         2.4408  -19.8984  -49.8477 C.ar      23 UNK        -0.0193 
     14 C14         1.6207  -18.8845  -49.3479 C.ar      23 UNK        -0.1150 
     15 C15         3.2180  -20.7839  -48.8821 C.3       23 UNK        -0.0205 
     16 S16         2.6721  -22.5293  -48.8887 S.3       23 UNK        -0.2404 
     17 C17         0.8483  -22.4434  -49.0166 C.3       23 UNK        -0.0398 
     18 CA          0.0961  -22.8334  -47.7266 C.3       11 UNK         0.1400 
     19 N           0.4863  -21.9921  -46.5847 N.am      11 UNK        -0.5000 
     20 C           0.0070  -22.0693  -45.3346 C.2       10 UNK         0.5000 
     21 O          -0.9495  -22.7742  -45.0151 O.2       10 UNK        -0.5000 
     22 CA          0.7198  -21.2471  -44.2441 C.3       10 UNK         0.1400 
     23 CB          1.5310  -22.1800  -43.3316 C.3       10 UNK        -0.1800 
     24 N           1.6171  -20.2110  -44.7569 N.am      10 UNK        -0.5000 
     25 C           1.2321  -19.0385  -45.2710 C.2       9 UNK         0.5000 
     26 O           0.0541  -18.7390  -45.4699 O.2       9 UNK        -0.5000 
     27 CA          2.3547  -18.0287  -45.5880 C.3       9 UNK         0.1400 
     28 CB          1.7999  -16.6378  -45.9388 C.3       9 UNK        -0.1800 
     29 N           3.3052  -17.8901  -44.4835 N.am      9 UNK        -0.5000 
     30 C           4.3456  -18.6981  -44.2388 C.2       8 UNK         0.5000 
     31 O           4.5778  -19.7144  -44.8942 O.2       8 UNK        -0.5000 
     32 CA          5.2525  -18.3325  -43.0532 C.3       8 UNK         0.1400 
     33 CB          6.1782  -17.1622  -43.4212 C.3       8 UNK        -0.1800 
     34 N           4.4545  -17.9660  -41.8848 N.am      8 UNK        -0.5000 
     35 C           4.4548  -18.6143  -40.7121 C.2       7 UNK         0.5000 
     36 O           5.1912  -19.5673  -40.4540 O.2       7 UNK        -0.5000 
     37 CA          3.4548  -18.1255  -39.6416 C.3       7 UNK         0.1400 
     38 CB          4.1325  -17.1304  -38.6874 C.3       7 UNK        -0.1800 
     39 N           2.2598  -17.4987  -40.2099 N.am      7 UNK        -0.5000 
     40 C           1.3529  -18.1304  -40.9665 C.2       6 UNK         0.5000 
     41 O           1.3577  -19.3458  -41.1581 O.2       6 UNK        -0.5000 
     42 CA          0.2713  -17.2727  -41.6504 C.3       6 UNK         0.1400 
     43 CB         -1.0755  -17.4486  -40.9304 C.3       6 UNK        -0.1800 
     44 N           0.5499  -15.8375  -41.7796 N.am      6 UNK        -0.5000 
     45 C           1.6217  -15.2541  -42.3353 C.2       5 UNK         0.5000 
     46 O           2.6282  -15.8670  -42.6914 O.2       5 UNK        -0.5000 
     47 CA          1.5607  -13.7333  -42.5537 C.3       5 UNK         0.1400 
     48 CB          1.2064  -13.4306  -44.0178 C.3       5 UNK        -0.1800 
     49 N           0.5782  -13.0769  -41.6903 N.am      5 UNK        -0.5000 
     50 C           0.8571  -12.5133  -40.5075 C.2       4 UNK         0.5000 
     51 O           1.9752  -12.5285  -39.9916 O.2       4 UNK        -0.5000 
     52 CA         -0.2971  -11.7916  -39.7834 C.3       4 UNK         0.1400 
     53 CB         -0.2475  -10.2838  -40.0752 C.3       4 UNK        -0.1800 
     54 N          -1.6177  -12.3004  -40.1576 N.am      4 UNK        -0.5000 
     55 C          -2.1527  -13.4320  -39.6813 C.2       3 UNK         0.5000 
     56 O          -1.6029  -14.1506  -38.8464 O.2       3 UNK        -0.5000 
     57 CA         -3.5222  -13.8459  -40.2567 C.3       3 UNK         0.1400 
     58 CB         -4.6605  -13.2362  -39.4246 C.3       3 UNK        -0.1800 
     59 N          -3.7231  -13.5056  -41.6719 N.am      3 UNK        -0.5000 
     60 C          -2.9480  -13.9369  -42.6743 C.2       2 UNK         0.5000 
     61 O          -1.8973  -14.5580  -42.5047 O.2       2 UNK        -0.5000 
     62 CA         -3.3942  -13.6193  -44.1043 C.3       2 UNK         0.1400 
     63 CB         -2.7658  -12.3086  -44.6058 C.3       2 UNK        -0.1800 
     64 N          -2.9599  -14.7380  -44.9301 N.am      2 UNK        -0.5000 
     65 C          -3.5231  -15.1504  -46.0692 C.2       1 UNK         0.5000 
     66 O          -4.4231  -14.5394  -46.6473 O.2       1 UNK        -0.5000 
     67 C          -1.4224  -22.8776  -48.0115 C.2       11 UNK         0.5000 
     68 O          -1.9224  -23.9121  -48.4579 O.2       11 UNK        -0.5000 
     69 N          -2.1440  -21.7875  -47.7110 N.am      12 UNK        -0.5000 
     70 CA         -3.5998  -21.6962  -47.8473 C.3       12 UNK         0.1400 
     71 CB         -4.0512  -20.2545  -47.5958 C.3       12 UNK        -0.1800 
     72 C          -4.3814  -22.6735  -46.9455 C.2       12 UNK         0.5000 
     73 O          -5.5213  -22.9993  -47.2752 O.2       12 UNK        -0.5000 
     74 N          -3.7585  -23.1804  -45.8691 N.am      13 UNK        -0.5000 
     75 CA         -4.3064  -24.2526  -45.0304 C.3       13 UNK         0.1400 
     76 CB         -3.4689  -24.3809  -43.7495 C.3       13 UNK        -0.1800 
     77 C          -4.3855  -25.6092  -45.7639 C.2       13 UNK         0.5000 
     78 O          -5.2103  -26.4466  -45.3981 O.2       13 UNK        -0.5000 
     79 N          -3.5585  -25.7842  -46.8044 N.am      14 UNK        -0.5000 
     80 CA         -3.5816  -26.9112  -47.7381 C.3       14 UNK         0.1400 
     81 CB         -2.1334  -27.3685  -47.9877 C.3       14 UNK        -0.1800 
     82 C          -4.2924  -26.5353  -49.0578 C.2       14 UNK         0.5000 
     83 O          -4.1397  -27.2468  -50.0507 O.2       14 UNK        -0.5000 
     84 N          -5.0346  -25.4157  -49.0522 N.am      15 UNK        -0.5000 
     85 CA         -5.7807  -24.7956  -50.1544 C.3       15 UNK         0.1400 
     86 CB         -6.8175  -25.7673  -50.7544 C.3       15 UNK        -0.1800 
     87 C          -4.9040  -24.1397  -51.2415 C.2       15 UNK         0.5000 
     88 O          -5.4522  -23.5881  -52.1959 O.2       15 UNK        -0.5000 
     89 N          -3.5750  -24.1556  -51.0802 N.am      16 UNK        -0.5000 
     90 CA         -2.6078  -23.5560  -51.9976 C.3       16 UNK         0.1400 
     91 CB         -1.3127  -24.3861  -51.9672 C.3       16 UNK        -0.1800 
     92 C          -2.3873  -22.0726  -51.6500 C.2       16 UNK         0.5000 
     93 O          -1.2986  -21.6862  -51.2306 O.2       16 UNK        -0.5000 
     94 N          -3.4511  -21.2753  -51.7852 N.am      17 UNK        -0.5000 
     95 CA         -3.4263  -19.8254  -51.6123 C.3       17 UNK         0.1400 
     96 CB         -4.8503  -19.3578  -51.2704 C.3       17 UNK        -0.1800 
     97 C          -2.9161  -19.1155  -52.8814 C.2       17 UNK         0.5000 
     98 O          -2.8991  -19.7053  -53.9648 O.2       17 UNK        -0.5000 
     99 N          -2.5795  -17.8256  -52.7377 N.am      18 UNK        -0.5000 
    100 CA        -2.1301  -16.9451  -53.8248 C.3       18 UNK         0.1400 
    101 CB        -1.6727  -15.6023  -53.2320 C.3       18 UNK        -0.1800 
    102 C         -3.1803  -16.7005  -54.9290 C.2       18 UNK         0.5000 
    103 O         -2.8140  -16.2798  -56.0278 O.2       18 UNK        -0.5000 
    104 N         -4.4586  -16.9732  -54.6332 N.am      19 UNK        -0.5000 
    105 CA        -5.5980  -16.9033  -55.5481 C.3       19 UNK         0.1400 
    106 CB        -6.8912  -16.8731  -54.7136 C.3       19 UNK        -0.1800 
    107 C         -5.5843  -18.0526  -56.5809 C.2       19 UNK         0.5000 
    108 O         -6.4684  -18.9098  -56.5707 O.2       19 UNK        -0.5000 
    109 N         -4.5515  -18.0591  -57.4335 N.am      20 UNK        -0.5000 
    110 CA        -4.2739  -18.9513  -58.5676 C.3       20 UNK         0.1400 
    111 CB        -5.4053  -18.8799  -59.6116 C.3       20 UNK        -0.1800 
    112 C         -3.9394  -20.4166  -58.2164 C.2       20 UNK         0.5000 
    113 O         -3.3781  -21.1115  -59.0650 O.2       20 UNK        -0.5000 
    114 N         -4.2495  -20.8724  -56.9956 N.am      21 UNK        -0.5000 
    115 CA        -4.0662  -22.2551  -56.5418 C.3       21 UNK         0.1400 
    116 CB        -4.7764  -22.4476  -55.1963 C.3       21 UNK        -0.1800 
    117 C         -2.5951  -22.7145  -56.4711 C.2       21 UNK         0.5000 
    118 O         -2.3359  -23.9139  -56.5772 O.2       21 UNK        -0.5000 
    119 N         -1.6616  -21.7634  -56.3417 N.am      22 UNK        -0.5000 
    120 CA        -0.2136  -21.9838  -56.5039 C.3       22 UNK         0.1400 
    121 C          0.2418  -22.2300  -57.9755 C.2       22 UNK         0.5000 
    122 N         -0.5973  -22.0487  -58.9894 N.am      22 UNK        -0.7600 
    123 O          1.3886  -22.6049  -58.2043 O.2       22 UNK        -0.5000 
    124 C124        0.6215  -20.8469  -55.8607 C.3       23 UNK        -0.0398 
    125 S125        0.3922  -20.7605  -54.0580 S.3       23 UNK        -0.2404 
    126 C126        1.7300  -19.6226  -53.5927 C.3       23 UNK        -0.0205 
    127 H127       -1.6859  -18.7861  -43.5618 H         1 UNK         0.0600 
    128 H128       -2.8296  -19.9971  -44.1495 H         1 UNK         0.0600 
    129 H129       -3.2443  -18.9766  -42.7673 H         1 UNK         0.0600 
    130 H130       -1.6014  -17.7549  -45.6789 H         1 UNK         0.3000 
    131 H131       -3.8536  -16.9497  -47.1638 H         1 UNK         0.0600 
    132 H132       -1.0444  -15.7455  -47.2443 H         1 UNK         0.0800 
    133 H133       -2.2772  -15.5015  -48.4600 H         1 UNK         0.0800 
    134 H134        0.5687  -16.3373  -49.0416 H         1 UNK         0.0800 
    135 H135       -0.4964  -16.4169  -50.4192 H         1 UNK         0.0800 
    136 H136        0.2789  -17.7624  -52.2524 H         1 UNK         0.1150 
    137 H137        3.1141  -20.9129  -51.6192 H         1 UNK         0.1150 
    138 H138        1.5567  -18.7138  -48.2854 H         1 UNK         0.1150 
    139 H139        3.1440  -20.4030  -47.8631 H         1 UNK         0.0800 
    140 H140        4.2772  -20.7467  -49.1400 H         1 UNK         0.0800 
    141 H141        0.5197  -21.4587  -49.3433 H         1 UNK         0.0800 
    142 H142        0.5742  -23.1190  -49.8271 H         1 UNK         0.0800 
    143 H143        0.3879  -23.8530  -47.4671 H         1 UNK         0.0600 
    144 H144        1.2766  -21.3860  -46.7410 H         1 UNK         0.3000 
    145 H145       -0.0518  -20.7655  -43.6399 H         1 UNK         0.0600 
    146 H146        0.8923  -22.9408  -42.8808 H         1 UNK         0.0600 
    147 H147        1.9991  -21.6279  -42.5166 H         1 UNK         0.0600 
    148 H148        2.3190  -22.6955  -43.8823 H         1 UNK         0.0600 
    149 H149        2.6118  -20.3689  -44.6420 H         1 UNK         0.3000 
    150 H150        2.8950  -18.3997  -46.4598 H         1 UNK         0.0600 
    151 H151        1.1829  -16.2370  -45.1349 H         1 UNK         0.0600 
    152 H152        1.1783  -16.6832  -46.8310 H         1 UNK         0.0600 
    153 H153        2.6021  -15.9273  -46.1379 H         1 UNK         0.0600 
    154 H154        3.1462  -17.0960  -43.8674 H         1 UNK         0.3000 
    155 H155        5.8754  -19.2032  -42.8386 H         1 UNK         0.0600 
    156 H156        6.8697  -16.9398  -42.6084 H         1 UNK         0.0600 
    157 H157        5.6149  -16.2534  -43.6378 H         1 UNK         0.0600 
    158 H158        6.7763  -17.3982  -44.3023 H         1 UNK         0.0600 
    159 H159        3.7993  -17.2000  -42.0114 H         1 UNK         0.3000 
    160 H160        3.1375  -18.9958  -39.0635 H         1 UNK         0.0600 
    161 H161        3.4594  -16.8339  -37.8827 H         1 UNK         0.0600 
    162 H162        4.4520  -16.2273  -39.2092 H         1 UNK         0.0600 
    163 H163        5.0158  -17.5726  -38.2247 H         1 UNK         0.0600 
    164 H164        2.1775  -16.4977  -40.1091 H         1 UNK         0.3000 
    165 H165        0.1702  -17.6601  -42.6651 H         1 UNK         0.0600 
    166 H166       -1.8905  -16.9992  -41.4968 H         1 UNK         0.0600 
    167 H167       -1.3210  -18.5037  -40.8014 H         1 UNK         0.0600 
    168 H168       -1.0624  -16.9896  -39.9411 H         1 UNK         0.0600 
    169 H169       -0.2471  -15.2366  -41.6028 H         1 UNK         0.3000 
    170 H170        2.5562  -13.3297  -42.3571 H         1 UNK         0.0600 
    171 H171        1.1458  -12.3570  -44.1963 H         1 UNK         0.0600 
    172 H172        0.2511  -13.8735  -44.3023 H         1 UNK         0.0600 
    173 H173        1.9663  -13.8271  -44.6920 H         1 UNK         0.0600 
    174 H174       -0.3802  -13.0853  -42.0128 H         1 UNK         0.3000 
    175 H175       -0.1547  -11.9338  -38.7099 H         1 UNK         0.0600 
    176 H176        0.7146   -9.8606  -39.7835 H         1 UNK         0.0600 
    177 H177       -0.3906  -10.0735  -41.1359 H         1 UNK         0.0600 
    178 H178       -1.0179   -9.7490  -39.5193 H         1 UNK         0.0600 
    179 H179       -2.1409  -11.7674  -40.8368 H         1 UNK         0.3000 
    180 H180       -3.5875  -14.9329  -40.1737 H         1 UNK         0.0600 
    181 H181       -4.6765  -12.1483  -39.5009 H         1 UNK         0.0600 
    182 H182       -4.5531  -13.4899  -38.3690 H         1 UNK         0.0600 
    183 H183       -5.6316  -13.6108  -39.7491 H         1 UNK         0.0600 
    184 H184       -4.5584  -12.9817  -41.8904 H         1 UNK         0.3000 
    185 H185       -4.4834  -13.5456  -44.1296 H         1 UNK         0.0600 
    186 H186       -3.0738  -11.4655  -43.9864 H         1 UNK         0.0600 
    187 H187       -1.6764  -12.3499  -44.5879 H         1 UNK         0.0600 
    188 H188       -3.0740  -12.0895  -45.6282 H         1 UNK         0.0600 
    189 H189       -2.2549  -15.3174  -44.4909 H         1 UNK         0.3000 
    190 H190       -1.6661  -20.9791  -47.3393 H         1 UNK         0.3000 
    191 H191       -3.8489  -21.9487  -48.8797 H         1 UNK         0.0600 
    192 H192       -3.5971  -19.5675  -48.3076 H         1 UNK         0.0600 
    193 H193       -5.1327  -20.1554  -47.6975 H         1 UNK         0.0600 
    194 H194       -3.7851  -19.9327  -46.5922 H         1 UNK         0.0600 
    195 H195       -2.8059  -22.8925  -45.6617 H         1 UNK         0.3000 
    196 H196       -5.3221  -23.9713  -44.7448 H         1 UNK         0.0600 
    197 H197       -2.4546  -24.7190  -43.9644 H         1 UNK         0.0600 
    198 H198       -3.9147  -25.1024  -43.0639 H         1 UNK         0.0600 
    199 H199       -3.4014  -23.4288  -43.2227 H         1 UNK         0.0600 
    200 H200       -2.9295  -25.0299  -47.0584 H         1 UNK         0.3000 
    201 H201       -4.1309  -27.7491  -47.3046 H         1 UNK         0.0600 
    202 H202       -2.1048  -28.2608  -48.6141 H         1 UNK         0.0600 
    203 H203       -1.6321  -27.6159  -47.0519 H         1 UNK         0.0600 
    204 H204       -1.5468  -26.5975  -48.4882 H         1 UNK         0.0600 
    205 H205       -5.0854  -24.8993  -48.1826 H         1 UNK         0.3000 
    206 H206       -6.3389  -23.9761  -49.7002 H         1 UNK         0.0600 
    207 H207       -7.4391  -26.2117  -49.9771 H         1 UNK         0.0600 
    208 H208       -7.4844  -25.2480  -51.4435 H         1 UNK         0.0600 
    209 H209       -6.3449  -26.5758  -51.3123 H         1 UNK         0.0600 
    210 H210       -3.1932  -24.5471  -50.2288 H         1 UNK         0.3000 
    211 H211       -2.9910  -23.5952  -53.0190 H         1 UNK         0.0600 
    212 H212       -0.5413  -23.9339  -52.5923 H         1 UNK         0.0600 
    213 H213       -1.4872  -25.3938  -52.3443 H         1 UNK         0.0600 
    214 H214       -0.9138  -24.4765  -50.9577 H         1 UNK         0.0600 
    215 H215       -4.3084  -21.6810  -52.1384 H         1 UNK         0.3000 
    216 H216       -2.7626  -19.5736  -50.7820 H         1 UNK         0.0600 
    217 H217       -4.8748  -18.2893  -51.0536 H         1 UNK         0.0600 
    218 H218       -5.2335  -19.8728  -50.3895 H         1 UNK         0.0600 
    219 H219       -5.5432  -19.5442  -52.0923 H         1 UNK         0.0600 
    220 H220       -2.6395  -17.4071  -51.8210 H         1 UNK         0.3000 
    221 H221       -1.2713  -17.4202  -54.3036 H         1 UNK         0.0600 
    222 H222       -0.8052  -15.7239  -52.5866 H         1 UNK         0.0600 
    223 H223       -1.3820  -14.9042  -54.0184 H         1 UNK         0.0600 
    224 H224       -2.4643  -15.1279  -52.6509 H         1 UNK         0.0600 
    225 H225       -4.6534  -17.3324  -53.7113 H         1 UNK         0.3000 
    226 H226       -5.5395  -15.9658  -56.1050 H         1 UNK         0.0600 
    227 H227       -6.9069  -16.0147  -54.0418 H         1 UNK         0.0600 
    228 H228       -7.0027  -17.7742  -54.1089 H         1 UNK         0.0600 
    229 H229       -7.7695  -16.7964  -55.3558 H         1 UNK         0.0600 
    230 H230       -3.8435  -17.3483  -57.2682 H         1 UNK         0.3000 
    231 H231       -3.3749  -18.5479  -59.0359 H         1 UNK         0.0600 
    232 H232       -6.3378  -19.2971  -59.2305 H         1 UNK         0.0600 
    233 H233       -5.1433  -19.4405  -60.5098 H         1 UNK         0.0600 
    234 H234       -5.5967  -17.8513  -59.9170 H         1 UNK         0.0600 
    235 H235       -4.7317  -20.2453  -56.3657 H         1 UNK         0.3000 
    236 H236       -4.5616  -22.9003  -57.2704 H         1 UNK         0.0600 
    237 H237       -4.3421  -21.8221  -54.4189 H         1 UNK         0.0600 
    238 H238       -5.8363  -22.2034  -55.2685 H         1 UNK         0.0600 
    239 H239       -4.7054  -23.4839  -54.8643 H         1 UNK         0.0600 
    240 H240       -1.9638  -20.8110  -56.1933 H         1 UNK         0.3000 
    241 H241        0.0331  -22.9046  -55.9715 H         1 UNK         0.0600 
    242 H242       -1.5569  -21.7499  -58.8455 H         1 UNK         0.3800 
    243 H243       -0.2736  -22.2216  -59.9278 H         1 UNK         0.3800 
    244 H244        0.3612  -19.8822  -56.2991 H         1 UNK         0.0800 
    245 H245        1.6862  -20.9966  -56.0496 H         1 UNK         0.0800 
    246 H246        2.6909  -20.0475  -53.8869 H         1 UNK         0.0800 
    247 H247        1.6202  -18.6864  -54.1420 H         1 UNK         0.0800 
@<TRIPOS>BOND
     1    1    2 1    
     2    1  127 1    
     3    1  128 1    
     4    1  129 1    
     5    2    3 2    
     6    2    4 am   BACKBONE|DICT|INTERRES
     7    4    5 1    
     8    4  130 1    
     9    5    6 1    
    10    5   65 1    
    11    5  131 1    
    12    6    7 1    
    13    6  132 1    
    14    6  133 1    
    15    7    8 1    
    16    8    9 1    
    17    8  134 1    
    18    8  135 1    
    19    9   10 ar   
    20    9   14 ar   
    21   10   11 ar   
    22   10  136 1    
    23   11   12 ar   
    24   11  126 1    
    25   12   13 ar   
    26   12  137 1    
    27   13   14 ar   
    28   13   15 1    
    29   14  138 1    
    30   15   16 1    
    31   15  139 1    
    32   15  140 1    
    33   16   17 1    
    34   17   18 1    
    35   17  141 1    
    36   17  142 1    
    37   18   19 1    
    38   18   67 1    
    39   18  143 1    
    40   19   20 am   BACKBONE|DICT|INTERRES
    41   19  144 1    
    42   20   21 2    
    43   20   22 1    
    44   22   23 1    
    45   22   24 1    
    46   22  145 1    
    47   23  146 1    
    48   23  147 1    
    49   23  148 1    
    50   24   25 am   BACKBONE|DICT|INTERRES
    51   24  149 1    
    52   25   26 2    
    53   25   27 1    
    54   27   28 1    
    55   27   29 1    
    56   27  150 1    
    57   28  151 1    
    58   28  152 1    
    59   28  153 1    
    60   29   30 am   BACKBONE|DICT|INTERRES
    61   29  154 1    
    62   30   31 2    
    63   30   32 1    
    64   32   33 1    
    65   32   34 1    
    66   32  155 1    
    67   33  156 1    
    68   33  157 1    
    69   33  158 1    
    70   34   35 am   BACKBONE|DICT|INTERRES
    71   34  159 1    
    72   35   36 2    
    73   35   37 1    
    74   37   38 1    
    75   37   39 1    
    76   37  160 1    
    77   38  161 1    
    78   38  162 1    
    79   38  163 1    
    80   39   40 am   BACKBONE|DICT|INTERRES
    81   39  164 1    
    82   40   41 2    
    83   40   42 1    
    84   42   43 1    
    85   42   44 1    
    86   42  165 1    
    87   43  166 1    
    88   43  167 1    
    89   43  168 1    
    90   44   45 am   BACKBONE|DICT|INTERRES
    91   44  169 1    
    92   45   46 2    
    93   45   47 1    
    94   47   48 1    
    95   47   49 1    
    96   47  170 1    
    97   48  171 1    
    98   48  172 1    
    99   48  173 1    
   100   49   50 am   BACKBONE|DICT|INTERRES
   101   49  174 1    
   102   50   51 2    
   103   50   52 1    
   104   52   53 1    
   105   52   54 1    
   106   52  175 1    
   107   53  176 1    
   108   53  177 1    
   109   53  178 1    
   110   54   55 am   BACKBONE|DICT|INTERRES
   111   54  179 1    
   112   55   56 2    
   113   55   57 1    
   114   57   58 1    
   115   57   59 1    
   116   57  180 1    
   117   58  181 1    
   118   58  182 1    
   119   58  183 1    
   120   59   60 am   BACKBONE|DICT|INTERRES
   121   59  184 1    
   122   60   61 2    
   123   60   62 1    
   124   62   63 1    
   125   62   64 1    
   126   62  185 1    
   127   63  186 1    
   128   63  187 1    
   129   63  188 1    
   130   64   65 am   BACKBONE|DICT|INTERRES
   131   64  189 1    
   132   65   66 2    
   133   67   68 2    
   134   67   69 am   BACKBONE|DICT|INTERRES
   135   69   70 1    
   136   69  190 1    
   137   70   71 1    
   138   70   72 1    
   139   70  191 1    
   140   71  192 1    
   141   71  193 1    
   142   71  194 1    
   143   72   73 2    
   144   72   74 am   BACKBONE|DICT|INTERRES
   145   74   75 1    
   146   74  195 1    
   147   75   76 1    
   148   75   77 1    
   149   75  196 1    
   150   76  197 1    
   151   76  198 1    
   152   76  199 1    
   153   77   78 2    
   154   77   79 am   BACKBONE|DICT|INTERRES
   155   79   80 1    
   156   79  200 1    
   157   80   81 1    
   158   80   82 1    
   159   80  201 1    
   160   81  202 1    
   161   81  203 1    
   162   81  204 1    
   163   82   83 2    
   164   82   84 am   BACKBONE|DICT|INTERRES
   165   84   85 1    
   166   84  205 1    
   167   85   86 1    
   168   85   87 1    
   169   85  206 1    
   170   86  207 1    
   171   86  208 1    
   172   86  209 1    
   173   87   88 2    
   174   87   89 am   BACKBONE|DICT|INTERRES
   175   89   90 1    
   176   89  210 1    
   177   90   91 1    
   178   90   92 1    
   179   90  211 1    
   180   91  212 1    
   181   91  213 1    
   182   91  214 1    
   183   92   93 2    
   184   92   94 am   BACKBONE|DICT|INTERRES
   185   94   95 1    
   186   94  215 1    
   187   95   96 1    
   188   95   97 1    
   189   95  216 1    
   190   96  217 1    
   191   96  218 1    
   192   96  219 1    
   193   97   98 2    
   194   97   99 am   BACKBONE|DICT|INTERRES
   195   99  100 1    
   196   99  220 1    
   197  100  101 1    
   198  100  102 1    
   199  100  221 1    
   200  101  222 1    
   201  101  223 1    
   202  101  224 1    
   203  102  103 2    
   204  102  104 am   BACKBONE|DICT|INTERRES
   205  104  105 1    
   206  104  225 1    
   207  105  106 1    
   208  105  107 1    
   209  105  226 1    
   210  106  227 1    
   211  106  228 1    
   212  106  229 1    
   213  107  108 2    
   214  107  109 am   BACKBONE|DICT|INTERRES
   215  109  110 1    
   216  109  230 1    
   217  110  111 1    
   218  110  112 1    
   219  110  231 1    
   220  111  232 1    
   221  111  233 1    
   222  111  234 1    
   223  112  113 2    
   224  112  114 am   BACKBONE|DICT|INTERRES
   225  114  115 1    
   226  114  235 1    
   227  115  116 1    
   228  115  117 1    
   229  115  236 1    
   230  116  237 1    
   231  116  238 1    
   232  116  239 1    
   233  117  118 2    
   234  117  119 am   BACKBONE|DICT|INTERRES
   235  119  120 1    
   236  119  240 1    
   237  120  121 1    
   238  120  124 1    
   239  120  241 1    
   240  121  122 am   BACKBONE|DICT|INTERRES
   241  121  123 2    
   242  122  242 1    
   243  122  243 1    
   244  124  125 1    
   245  124  244 1    
   246  124  245 1    
   247  125  126 1    
   248  126  246 1    
   249  126  247 1    
@<TRIPOS>SUBSTRUCTURE
     1 UNK         1 GROUP             0       ****    0 ROOT    
