@<TRIPOS>MOLECULE
3R540
247   249    1
SMALL
USER_CHARGES


@<TRIPOS>ATOM
      1 CA          0.1970   -9.2858  -45.5830 C.3       0 UNK        -0.1800 
      2 C           0.3406  -10.7881  -45.3972 C.2       0 UNK         0.5000 
      3 O           1.4484  -11.2706  -45.1595 O.2       0 UNK        -0.5000 
      4 N          -0.7705  -11.5305  -45.4964 N.am      1 UNK        -0.5000 
      5 CA         -0.8343  -12.9970  -45.3973 C.3       1 UNK         0.1400 
      6 C6         -2.2457  -13.5474  -45.7158 C.3       23 UNK        -0.0398 
      7 S7         -2.8080  -13.0709  -47.3851 S.3       23 UNK        -0.2404 
      8 C8         -4.5142  -13.7009  -47.3783 C.3       23 UNK        -0.0205 
      9 C9         -4.6388  -15.0370  -48.0970 C.ar      23 UNK        -0.0193 
     10 C10        -5.0446  -15.0738  -49.4322 C.ar      23 UNK        -0.1150 
     11 C11        -5.2170  -16.2933  -50.0914 C.ar      23 UNK        -0.0193 
     12 C12        -4.9912  -17.4873  -49.3977 C.ar      23 UNK        -0.1150 
     13 C13        -4.6014  -17.4739  -48.0533 C.ar      23 UNK        -0.0193 
     14 C14        -4.4020  -16.2363  -47.4203 C.ar      23 UNK        -0.1150 
     15 C15        -4.4291  -18.8081  -47.3172 C.3       23 UNK        -0.0205 
     16 S16        -4.6957  -18.6789  -45.5135 S.3       23 UNK        -0.2404 
     17 C17        -4.7173  -20.3719  -44.8332 C.3       23 UNK        -0.0398 
     18 CA         -4.1049  -21.5384  -45.6514 C.3       11 UNK         0.1400 
     19 N          -2.6628  -21.3808  -45.9108 N.am      11 UNK        -0.5000 
     20 C          -1.8681  -22.2899  -46.5040 C.2       10 UNK         0.5000 
     21 O          -2.2718  -23.3674  -46.9413 O.2       10 UNK        -0.5000 
     22 CA         -0.3662  -21.9827  -46.5976 C.3       10 UNK         0.1400 
     23 CB         -0.0398  -21.2317  -47.8979 C.3       10 UNK        -0.1800 
     24 N           0.1132  -21.2329  -45.4381 N.am      10 UNK        -0.5000 
     25 C           0.3227  -21.7681  -44.2261 C.2       9 UNK         0.5000 
     26 O           0.1713  -22.9637  -43.9749 O.2       9 UNK        -0.5000 
     27 CA          0.7543  -20.8083  -43.1008 C.3       9 UNK         0.1400 
     28 CB          2.2858  -20.7270  -43.0188 C.3       9 UNK        -0.1800 
     29 N           0.2048  -19.4635  -43.2768 N.am      9 UNK        -0.5000 
     30 C          -1.0775  -19.1437  -43.0436 C.2       8 UNK         0.5000 
     31 O          -1.8995  -19.9325  -42.5762 O.2       8 UNK        -0.5000 
     32 CA         -1.5331  -17.7231  -43.4404 C.3       8 UNK         0.1400 
     33 CB         -1.4149  -16.7667  -42.2454 C.3       8 UNK        -0.1800 
     34 N          -0.8031  -17.1684  -44.5851 N.am      8 UNK        -0.5000 
     35 C          -0.7486  -17.7356  -45.7993 C.2       7 UNK         0.5000 
     36 O          -1.3707  -18.7539  -46.0888 O.2       7 UNK        -0.5000 
     37 CA          0.2117  -17.1377  -46.8445 C.3       7 UNK         0.1400 
     38 CB         -0.5523  -16.3285  -47.9013 C.3       7 UNK        -0.1800 
     39 N           1.2867  -16.3200  -46.2813 N.am      7 UNK        -0.5000 
     40 C           2.2427  -16.7531  -45.4470 C.2       6 UNK         0.5000 
     41 O           2.2829  -17.9073  -45.0159 O.2       6 UNK        -0.5000 
     42 CA          3.3032  -15.7274  -44.9848 C.3       6 UNK         0.1400 
     43 CB          4.7111  -16.3506  -44.9037 C.3       6 UNK        -0.1800 
     44 N           3.3431  -14.4737  -45.7517 N.am      6 UNK        -0.5000 
     45 C           3.6052  -14.3104  -47.0584 C.2       5 UNK         0.5000 
     46 O           3.7984  -15.2373  -47.8448 O.2       5 UNK        -0.5000 
     47 CA          3.6567  -12.8622  -47.5790 C.3       5 UNK         0.1400 
     48 CB          2.3143  -12.4578  -48.2065 C.3       5 UNK        -0.1800 
     49 N           4.0284  -11.9054  -46.5317 N.am      5 UNK        -0.5000 
     50 C           5.2977  -11.7074  -46.1464 C.2       4 UNK         0.5000 
     51 O           6.2582  -12.2877  -46.6553 O.2       4 UNK        -0.5000 
     52 CA          5.5642  -10.6923  -45.0190 C.3       4 UNK         0.1400 
     53 CB          5.8812   -9.3110  -45.6130 C.3       4 UNK        -0.1800 
     54 N           4.4966  -10.5429  -44.0291 N.am      4 UNK        -0.5000 
     55 C           4.0302  -11.5006  -43.2169 C.2       3 UNK         0.5000 
     56 O           4.3429  -12.6886  -43.3088 O.2       3 UNK        -0.5000 
     57 CA          3.0714  -11.0621  -42.0957 C.3       3 UNK         0.1400 
     58 CB          2.7802   -9.5470  -42.0565 C.3       3 UNK        -0.1800 
     59 N           1.8109  -11.7785  -42.2372 N.am      3 UNK        -0.5000 
     60 C           1.1898  -12.4636  -41.2690 C.2       2 UNK         0.5000 
     61 O           1.6498  -12.6046  -40.1347 O.2       2 UNK        -0.5000 
     62 CA         -0.1903  -13.0724  -41.5971 C.3       2 UNK         0.1400 
     63 CB         -1.2633  -12.5634  -40.6201 C.3       2 UNK        -0.1800 
     64 N          -0.6341  -12.7778  -42.9610 N.am      2 UNK        -0.5000 
     65 C          -0.3507  -13.5262  -44.0330 C.2       1 UNK         0.5000 
     66 O           0.2861  -14.5768  -43.9831 O.2       1 UNK        -0.5000 
     67 C          -4.4203  -22.8538  -44.9049 C.2       11 UNK         0.5000 
     68 O          -5.3432  -23.5715  -45.2913 O.2       11 UNK        -0.5000 
     69 N          -3.6099  -23.1624  -43.8815 N.am      12 UNK        -0.5000 
     70 CA         -3.7006  -24.3711  -43.0575 C.3       12 UNK         0.1400 
     71 CB         -2.7370  -24.2277  -41.8696 C.3       12 UNK        -0.1800 
     72 C          -3.4179  -25.6784  -43.8265 C.2       12 UNK         0.5000 
     73 O          -3.8296  -26.7468  -43.3739 O.2       12 UNK        -0.5000 
     74 N          -2.7429  -25.5682  -44.9765 N.am      13 UNK        -0.5000 
     75 CA         -2.4345  -26.6555  -45.9006 C.3       13 UNK         0.1400 
     76 CB         -0.9426  -26.5653  -46.2686 C.3       13 UNK        -0.1800 
     77 C          -3.3390  -26.6088  -47.1501 C.2       13 UNK         0.5000 
     78 O          -2.9660  -27.1714  -48.1790 O.2       13 UNK        -0.5000 
     79 N          -4.4943  -25.9289  -47.0602 N.am      14 UNK        -0.5000 
     80 CA         -5.4871  -25.7258  -48.1235 C.3       14 UNK         0.1400 
     81 CB         -6.1387  -27.0628  -48.5360 C.3       14 UNK        -0.1800 
     82 C          -4.9031  -24.9430  -49.3163 C.2       14 UNK         0.5000 
     83 O          -4.9901  -25.3866  -50.4628 O.2       14 UNK        -0.5000 
     84 N          -4.2664  -23.8070  -48.9980 N.am      15 UNK        -0.5000 
     85 CA         -3.5007  -22.9383  -49.8980 C.3       15 UNK         0.1400 
     86 CB         -4.4199  -22.2534  -50.9276 C.3       15 UNK        -0.1800 
     87 C          -2.3140  -23.6906  -50.5317 C.2       15 UNK         0.5000 
     88 O          -2.0953  -23.5995  -51.7400 O.2       15 UNK        -0.5000 
     89 N          -1.5988  -24.4525  -49.6892 N.am      16 UNK        -0.5000 
     90 CA         -0.4948  -25.3585  -50.0273 C.3       16 UNK         0.1400 
     91 CB          0.7534  -24.5512  -50.4389 C.3       16 UNK        -0.1800 
     92 C          -0.9074  -26.4066  -51.0822 C.2       16 UNK         0.5000 
     93 O          -0.2704  -26.5145  -52.1292 O.2       16 UNK        -0.5000 
     94 N          -2.0117  -27.1173  -50.8111 N.am      17 UNK        -0.5000 
     95 CA         -2.6983  -28.0573  -51.7070 C.3       17 UNK         0.1400 
     96 CB         -1.8634  -29.3416  -51.8876 C.3       17 UNK        -0.1800 
     97 C          -3.1009  -27.4007  -53.0469 C.2       17 UNK         0.5000 
     98 O          -2.9176  -27.9881  -54.1143 O.2       17 UNK        -0.5000 
     99 N          -3.6035  -26.1630  -52.9464 N.am      18 UNK        -0.5000 
    100 CA        -3.9714  -25.2327  -54.0159 C.3       18 UNK         0.1400 
    101 CB        -5.1229  -25.7997  -54.8705 C.3       18 UNK        -0.1800 
    102 C         -2.7990  -24.7186  -54.8830 C.2       18 UNK         0.5000 
    103 O         -3.0537  -24.0100  -55.8578 O.2       18 UNK        -0.5000 
    104 N         -1.5417  -25.0273  -54.5292 N.am      19 UNK        -0.5000 
    105 CA        -0.3553  -24.5567  -55.2523 C.3       19 UNK         0.1400 
    106 CB         0.8553  -25.4320  -54.8964 C.3       19 UNK        -0.1800 
    107 C         -0.0373  -23.0723  -54.9884 C.2       19 UNK         0.5000 
    108 O          0.5988  -22.4366  -55.8297 O.2       19 UNK        -0.5000 
    109 N         -0.4882  -22.5465  -53.8426 N.am      20 UNK        -0.5000 
    110 CA        -0.3371  -21.1529  -53.4260 C.3       20 UNK         0.1400 
    111 CB         0.3503  -21.1151  -52.0486 C.3       20 UNK        -0.1800 
    112 C         -1.6956  -20.4241  -53.4115 C.2       20 UNK         0.5000 
    113 O         -1.8268  -19.4018  -52.7368 O.2       20 UNK        -0.5000 
    114 N         -2.6889  -20.9532  -54.1425 N.am      21 UNK        -0.5000 
    115 CA        -4.0065  -20.3425  -54.3165 C.3       21 UNK         0.1400 
    116 CB        -4.9450  -21.3380  -55.0137 C.3       21 UNK        -0.1800 
    117 C         -3.9219  -19.0237  -55.1062 C.2       21 UNK         0.5000 
    118 O         -3.1732  -18.9362  -56.0831 O.2       21 UNK        -0.5000 
    119 N         -4.6906  -18.0282  -54.6581 N.am      22 UNK        -0.5000 
    120 CA        -4.7488  -16.6817  -55.2415 C.3       22 UNK         0.1400 
    121 C         -5.4851  -16.6571  -56.6095 C.2       22 UNK         0.5000 
    122 N         -5.0557  -15.8122  -57.5369 N.am      22 UNK        -0.7600 
    123 O         -6.4672  -17.3651  -56.8230 O.2       22 UNK        -0.5000 
    124 C124       -5.3894  -15.6701  -54.2586 C.3       23 UNK        -0.0398 
    125 S125       -4.4893  -15.5644  -52.6713 S.3       23 UNK        -0.2404 
    126 C126       -5.7000  -16.3121  -51.5348 C.3       23 UNK        -0.0205 
    127 H127       -0.8201   -9.0073  -45.8592 H         1 UNK         0.0600 
    128 H128        0.8696   -8.9412  -46.3684 H         1 UNK         0.0600 
    129 H129        0.4547   -8.7676  -44.6597 H         1 UNK         0.0600 
    130 H130       -1.6461  -11.0754  -45.7132 H         1 UNK         0.3000 
    131 H131       -0.1480  -13.3995  -46.1433 H         1 UNK         0.0600 
    132 H132       -2.9691  -13.1803  -44.9854 H         1 UNK         0.0800 
    133 H133       -2.2639  -14.6365  -45.6452 H         1 UNK         0.0800 
    134 H134       -4.8859  -13.7901  -46.3565 H         1 UNK         0.0800 
    135 H135       -5.1546  -12.9615  -47.8618 H         1 UNK         0.0800 
    136 H136       -5.2369  -14.1505  -49.9609 H         1 UNK         0.1150 
    137 H137       -5.1419  -18.4330  -49.8995 H         1 UNK         0.1150 
    138 H138       -4.0881  -16.1940  -46.3881 H         1 UNK         0.1150 
    139 H139       -5.1422  -19.5306  -47.7160 H         1 UNK         0.0800 
    140 H140       -3.4341  -19.1990  -47.5255 H         1 UNK         0.0800 
    141 H141       -5.7690  -20.5837  -44.6288 H         1 UNK         0.0800 
    142 H142       -4.2405  -20.3161  -43.8533 H         1 UNK         0.0800 
    143 H143       -4.6061  -21.5905  -46.6190 H         1 UNK         0.0600 
    144 H144       -2.2542  -20.4855  -45.6593 H         1 UNK         0.3000 
    145 H145        0.1631  -22.9378  -46.6281 H         1 UNK         0.0600 
    146 H146       -0.5923  -20.2969  -47.9862 H         1 UNK         0.0600 
    147 H147        1.0236  -21.0020  -47.9659 H         1 UNK         0.0600 
    148 H148       -0.2952  -21.8384  -48.7668 H         1 UNK         0.0600 
    149 H149        0.1882  -20.2313  -45.5475 H         1 UNK         0.3000 
    150 H150        0.3865  -21.2144  -42.1559 H         1 UNK         0.0600 
    151 H151        2.7176  -21.7098  -42.8254 H         1 UNK         0.0600 
    152 H152        2.6041  -20.0670  -42.2117 H         1 UNK         0.0600 
    153 H153        2.7210  -20.3559  -43.9473 H         1 UNK         0.0600 
    154 H154        0.8195  -18.7730  -43.6934 H         1 UNK         0.3000 
    155 H155       -2.5857  -17.7846  -43.7180 H         1 UNK         0.0600 
    156 H156       -1.9400  -17.1602  -41.3740 H         1 UNK         0.0600 
    157 H157       -1.8537  -15.7957  -42.4744 H         1 UNK         0.0600 
    158 H158       -0.3740  -16.6095  -41.9604 H         1 UNK         0.0600 
    159 H159       -0.2552  -16.3298  -44.4111 H         1 UNK         0.3000 
    160 H160        0.6829  -17.9822  -47.3513 H         1 UNK         0.0600 
    161 H161        0.1025  -16.0351  -48.7219 H         1 UNK         0.0600 
    162 H162       -0.9852  -15.4237  -47.4815 H         1 UNK         0.0600 
    163 H163       -1.3681  -16.9125  -48.3307 H         1 UNK         0.0600 
    164 H164        1.3272  -15.3557  -46.5710 H         1 UNK         0.3000 
    165 H165        3.0136  -15.4420  -43.9724 H         1 UNK         0.0600 
    166 H166        5.0508  -16.7096  -45.8755 H         1 UNK         0.0600 
    167 H167        5.4399  -15.6264  -44.5390 H         1 UNK         0.0600 
    168 H168        4.7279  -17.1983  -44.2177 H         1 UNK         0.0600 
    169 H169        3.2282  -13.6359  -45.1958 H         1 UNK         0.3000 
    170 H170        4.4079  -12.8257  -48.3713 H         1 UNK         0.0600 
    171 H171        1.4935  -12.5411  -47.4982 H         1 UNK         0.0600 
    172 H172        2.3409  -11.4310  -48.5713 H         1 UNK         0.0600 
    173 H173        2.0747  -13.0990  -49.0557 H         1 UNK         0.0600 
    174 H174        3.2734  -11.4322  -46.0448 H         1 UNK         0.3000 
    175 H175        6.4501  -11.0395  -44.4832 H         1 UNK         0.0600 
    176 H176        5.0171   -8.8880  -46.1270 H         1 UNK         0.0600 
    177 H177        6.1902   -8.6084  -44.8388 H         1 UNK         0.0600 
    178 H178        6.6956   -9.3723  -46.3363 H         1 UNK         0.0600 
    179 H179        4.1501   -9.6046  -43.8943 H         1 UNK         0.3000 
    180 H180        3.5628  -11.3339  -41.1595 H         1 UNK         0.0600 
    181 H181        2.2939   -9.2014  -42.9695 H         1 UNK         0.0600 
    182 H182        3.6947   -8.9688  -41.9178 H         1 UNK         0.0600 
    183 H183        2.1218   -9.3016  -41.2228 H         1 UNK         0.0600 
    184 H184        1.4124  -11.7668  -43.1691 H         1 UNK         0.3000 
    185 H185       -0.1015  -14.1522  -41.4657 H         1 UNK         0.0600 
    186 H186       -2.2316  -13.0198  -40.8268 H         1 UNK         0.0600 
    187 H187       -1.0060  -12.8088  -39.5889 H         1 UNK         0.0600 
    188 H188       -1.3815  -11.4809  -40.6808 H         1 UNK         0.0600 
    189 H189       -1.1416  -11.9147  -43.0938 H         1 UNK         0.3000 
    190 H190       -2.8626  -22.5216  -43.6527 H         1 UNK         0.3000 
    191 H191       -4.7189  -24.4356  -42.6689 H         1 UNK         0.0600 
    192 H192       -1.7010  -24.1461  -42.2013 H         1 UNK         0.0600 
    193 H193       -2.9697  -23.3434  -41.2759 H         1 UNK         0.0600 
    194 H194       -2.8022  -25.0905  -41.2056 H         1 UNK         0.0600 
    195 H195       -2.4818  -24.6434  -45.2971 H         1 UNK         0.3000 
    196 H196       -2.6062  -27.6219  -45.4232 H         1 UNK         0.0600 
    197 H197       -0.3165  -26.6372  -45.3791 H         1 UNK         0.0600 
    198 H198       -0.7064  -25.6229  -46.7628 H         1 UNK         0.0600 
    199 H199       -0.6467  -27.3757  -46.9357 H         1 UNK         0.0600 
    200 H200       -4.6957  -25.4519  -46.1895 H         1 UNK         0.3000 
    201 H201       -6.2703  -25.0970  -47.6975 H         1 UNK         0.0600 
    202 H202       -6.9542  -26.8956  -49.2405 H         1 UNK         0.0600 
    203 H203       -6.5567  -27.5800  -47.6725 H         1 UNK         0.0600 
    204 H204       -5.4274  -27.7345  -49.0174 H         1 UNK         0.0600 
    205 H205       -4.1585  -23.5991  -48.0138 H         1 UNK         0.3000 
    206 H206       -3.0676  -22.1497  -49.2819 H         1 UNK         0.0600 
    207 H207       -5.2332  -21.7199  -50.4362 H         1 UNK         0.0600 
    208 H208       -4.8589  -22.9654  -51.6256 H         1 UNK         0.0600 
    209 H209       -3.8597  -21.5234  -51.5098 H         1 UNK         0.0600 
    210 H210       -1.8776  -24.4409  -48.7150 H         1 UNK         0.3000 
    211 H211       -0.2485  -25.9124  -49.1215 H         1 UNK         0.0600 
    212 H212        1.0274  -23.8268  -49.6723 H         1 UNK         0.0600 
    213 H213        1.6106  -25.2089  -50.5860 H         1 UNK         0.0600 
    214 H214        0.5960  -24.0106  -51.3722 H         1 UNK         0.0600 
    215 H215       -2.4510  -26.9900  -49.9002 H         1 UNK         0.3000 
    216 H216       -3.6286  -28.3318  -51.2076 H         1 UNK         0.0600 
    217 H217       -2.4163  -30.0900  -52.4562 H         1 UNK         0.0600 
    218 H218       -0.9317  -29.1481  -52.4202 H         1 UNK         0.0600 
    219 H219       -1.6131  -29.7861  -50.9244 H         1 UNK         0.0600 
    220 H220       -3.7471  -25.7987  -52.0092 H         1 UNK         0.3000 
    221 H221       -4.3555  -24.3527  -53.5009 H         1 UNK         0.0600 
    222 H222       -4.8009  -26.6492  -55.4731 H         1 UNK         0.0600 
    223 H223       -5.9540  -26.1256  -54.2450 H         1 UNK         0.0600 
    224 H224       -5.5116  -25.0446  -55.5546 H         1 UNK         0.0600 
    225 H225       -1.3780  -25.5844  -53.6978 H         1 UNK         0.3000 
    226 H226       -0.5425  -24.6702  -56.3222 H         1 UNK         0.0600 
    227 H227        0.6291  -26.4921  -55.0125 H         1 UNK         0.0600 
    228 H228        1.7009  -25.2049  -55.5465 H         1 UNK         0.0600 
    229 H229        1.1843  -25.2661  -53.8702 H         1 UNK         0.0600 
    230 H230       -1.0329  -23.1298  -53.2094 H         1 UNK         0.3000 
    231 H231        0.2972  -20.6111  -54.1299 H         1 UNK         0.0600 
    232 H232        0.5602  -20.0902  -51.7408 H         1 UNK         0.0600 
    233 H233        1.3018  -21.6464  -52.0682 H         1 UNK         0.0600 
    234 H234       -0.2710  -21.5673  -51.2762 H         1 UNK         0.0600 
    235 H235       -2.4943  -21.7774  -54.6929 H         1 UNK         0.3000 
    236 H236       -4.4123  -20.1283  -53.3260 H         1 UNK         0.0600 
    237 H237       -5.0709  -22.2431  -54.4208 H         1 UNK         0.0600 
    238 H238       -5.9359  -20.9056  -55.1584 H         1 UNK         0.0600 
    239 H239       -4.5669  -21.6270  -55.9951 H         1 UNK         0.0600 
    240 H240       -5.2943  -18.1905  -53.8676 H         1 UNK         0.3000 
    241 H241       -3.7188  -16.3634  -55.4168 H         1 UNK         0.0600 
    242 H242       -5.5335  -15.7750  -58.4243 H         1 UNK         0.3800 
    243 H243       -4.2565  -15.2163  -57.3826 H         1 UNK         0.3800 
    244 H244       -5.3926  -14.6706  -54.6969 H         1 UNK         0.0800 
    245 H245       -6.4360  -15.9210  -54.0772 H         1 UNK         0.0800 
    246 H246       -5.9125  -17.3327  -51.8552 H         1 UNK         0.0800 
    247 H247       -6.6413  -15.7639  -51.5973 H         1 UNK         0.0800 
@<TRIPOS>BOND
     1    1    2 1    
     2    1  127 1    
     3    1  128 1    
     4    1  129 1    
     5    2    3 2    
     6    2    4 am   BACKBONE|DICT|INTERRES
     7    4    5 1    
     8    4  130 1    
     9    5    6 1    
    10    5   65 1    
    11    5  131 1    
    12    6    7 1    
    13    6  132 1    
    14    6  133 1    
    15    7    8 1    
    16    8    9 1    
    17    8  134 1    
    18    8  135 1    
    19    9   10 ar   
    20    9   14 ar   
    21   10   11 ar   
    22   10  136 1    
    23   11   12 ar   
    24   11  126 1    
    25   12   13 ar   
    26   12  137 1    
    27   13   14 ar   
    28   13   15 1    
    29   14  138 1    
    30   15   16 1    
    31   15  139 1    
    32   15  140 1    
    33   16   17 1    
    34   17   18 1    
    35   17  141 1    
    36   17  142 1    
    37   18   19 1    
    38   18   67 1    
    39   18  143 1    
    40   19   20 am   BACKBONE|DICT|INTERRES
    41   19  144 1    
    42   20   21 2    
    43   20   22 1    
    44   22   23 1    
    45   22   24 1    
    46   22  145 1    
    47   23  146 1    
    48   23  147 1    
    49   23  148 1    
    50   24   25 am   BACKBONE|DICT|INTERRES
    51   24  149 1    
    52   25   26 2    
    53   25   27 1    
    54   27   28 1    
    55   27   29 1    
    56   27  150 1    
    57   28  151 1    
    58   28  152 1    
    59   28  153 1    
    60   29   30 am   BACKBONE|DICT|INTERRES
    61   29  154 1    
    62   30   31 2    
    63   30   32 1    
    64   32   33 1    
    65   32   34 1    
    66   32  155 1    
    67   33  156 1    
    68   33  157 1    
    69   33  158 1    
    70   34   35 am   BACKBONE|DICT|INTERRES
    71   34  159 1    
    72   35   36 2    
    73   35   37 1    
    74   37   38 1    
    75   37   39 1    
    76   37  160 1    
    77   38  161 1    
    78   38  162 1    
    79   38  163 1    
    80   39   40 am   BACKBONE|DICT|INTERRES
    81   39  164 1    
    82   40   41 2    
    83   40   42 1    
    84   42   43 1    
    85   42   44 1    
    86   42  165 1    
    87   43  166 1    
    88   43  167 1    
    89   43  168 1    
    90   44   45 am   BACKBONE|DICT|INTERRES
    91   44  169 1    
    92   45   46 2    
    93   45   47 1    
    94   47   48 1    
    95   47   49 1    
    96   47  170 1    
    97   48  171 1    
    98   48  172 1    
    99   48  173 1    
   100   49   50 am   BACKBONE|DICT|INTERRES
   101   49  174 1    
   102   50   51 2    
   103   50   52 1    
   104   52   53 1    
   105   52   54 1    
   106   52  175 1    
   107   53  176 1    
   108   53  177 1    
   109   53  178 1    
   110   54   55 am   BACKBONE|DICT|INTERRES
   111   54  179 1    
   112   55   56 2    
   113   55   57 1    
   114   57   58 1    
   115   57   59 1    
   116   57  180 1    
   117   58  181 1    
   118   58  182 1    
   119   58  183 1    
   120   59   60 am   BACKBONE|DICT|INTERRES
   121   59  184 1    
   122   60   61 2    
   123   60   62 1    
   124   62   63 1    
   125   62   64 1    
   126   62  185 1    
   127   63  186 1    
   128   63  187 1    
   129   63  188 1    
   130   64   65 am   BACKBONE|DICT|INTERRES
   131   64  189 1    
   132   65   66 2    
   133   67   68 2    
   134   67   69 am   BACKBONE|DICT|INTERRES
   135   69   70 1    
   136   69  190 1    
   137   70   71 1    
   138   70   72 1    
   139   70  191 1    
   140   71  192 1    
   141   71  193 1    
   142   71  194 1    
   143   72   73 2    
   144   72   74 am   BACKBONE|DICT|INTERRES
   145   74   75 1    
   146   74  195 1    
   147   75   76 1    
   148   75   77 1    
   149   75  196 1    
   150   76  197 1    
   151   76  198 1    
   152   76  199 1    
   153   77   78 2    
   154   77   79 am   BACKBONE|DICT|INTERRES
   155   79   80 1    
   156   79  200 1    
   157   80   81 1    
   158   80   82 1    
   159   80  201 1    
   160   81  202 1    
   161   81  203 1    
   162   81  204 1    
   163   82   83 2    
   164   82   84 am   BACKBONE|DICT|INTERRES
   165   84   85 1    
   166   84  205 1    
   167   85   86 1    
   168   85   87 1    
   169   85  206 1    
   170   86  207 1    
   171   86  208 1    
   172   86  209 1    
   173   87   88 2    
   174   87   89 am   BACKBONE|DICT|INTERRES
   175   89   90 1    
   176   89  210 1    
   177   90   91 1    
   178   90   92 1    
   179   90  211 1    
   180   91  212 1    
   181   91  213 1    
   182   91  214 1    
   183   92   93 2    
   184   92   94 am   BACKBONE|DICT|INTERRES
   185   94   95 1    
   186   94  215 1    
   187   95   96 1    
   188   95   97 1    
   189   95  216 1    
   190   96  217 1    
   191   96  218 1    
   192   96  219 1    
   193   97   98 2    
   194   97   99 am   BACKBONE|DICT|INTERRES
   195   99  100 1    
   196   99  220 1    
   197  100  101 1    
   198  100  102 1    
   199  100  221 1    
   200  101  222 1    
   201  101  223 1    
   202  101  224 1    
   203  102  103 2    
   204  102  104 am   BACKBONE|DICT|INTERRES
   205  104  105 1    
   206  104  225 1    
   207  105  106 1    
   208  105  107 1    
   209  105  226 1    
   210  106  227 1    
   211  106  228 1    
   212  106  229 1    
   213  107  108 2    
   214  107  109 am   BACKBONE|DICT|INTERRES
   215  109  110 1    
   216  109  230 1    
   217  110  111 1    
   218  110  112 1    
   219  110  231 1    
   220  111  232 1    
   221  111  233 1    
   222  111  234 1    
   223  112  113 2    
   224  112  114 am   BACKBONE|DICT|INTERRES
   225  114  115 1    
   226  114  235 1    
   227  115  116 1    
   228  115  117 1    
   229  115  236 1    
   230  116  237 1    
   231  116  238 1    
   232  116  239 1    
   233  117  118 2    
   234  117  119 am   BACKBONE|DICT|INTERRES
   235  119  120 1    
   236  119  240 1    
   237  120  121 1    
   238  120  124 1    
   239  120  241 1    
   240  121  122 am   BACKBONE|DICT|INTERRES
   241  121  123 2    
   242  122  242 1    
   243  122  243 1    
   244  124  125 1    
   245  124  244 1    
   246  124  245 1    
   247  125  126 1    
   248  126  246 1    
   249  126  247 1    
@<TRIPOS>SUBSTRUCTURE
     1 UNK         1 GROUP             0       ****    0 ROOT    
