@<TRIPOS>MOLECULE
3R540
247   249    1
SMALL
USER_CHARGES


@<TRIPOS>ATOM
      1 CA         -0.2066  -14.0734  -42.4955 C.3       0 UNK        -0.1800 
      2 C          -0.4667  -13.0796  -43.6150 C.2       0 UNK         0.5000 
      3 O          -1.1254  -12.0643  -43.3914 O.2       0 UNK        -0.5000 
      4 N           0.0556  -13.3637  -44.8158 N.am      1 UNK        -0.5000 
      5 CA         -0.0392  -12.5013  -46.0039 C.3       1 UNK         0.1400 
      6 C6          0.4347  -13.2194  -47.2901 C.3       23 UNK        -0.0398 
      7 S7         -0.4389  -14.7890  -47.6075 S.3       23 UNK        -0.2404 
      8 C8         -0.0663  -14.9927  -49.3733 C.3       23 UNK        -0.0205 
      9 C9         -0.4163  -16.3849  -49.8734 C.ar      23 UNK        -0.0193 
     10 C10        -1.7085  -16.6713  -50.3201 C.ar      23 UNK        -0.1150 
     11 C11        -2.0153  -17.9292  -50.8475 C.ar      23 UNK        -0.0193 
     12 C12        -1.0196  -18.9077  -50.9173 C.ar      23 UNK        -0.1150 
     13 C13         0.2777  -18.6350  -50.4690 C.ar      23 UNK        -0.0193 
     14 C14         0.5683  -17.3740  -49.9396 C.ar      23 UNK        -0.1150 
     15 C15         1.3895  -19.6680  -50.6118 C.3       23 UNK        -0.0205 
     16 S16         1.0609  -21.2337  -49.7437 S.3       23 UNK        -0.2404 
     17 C17         0.9374  -20.7065  -48.0014 C.3       23 UNK        -0.0398 
     18 CA         -0.2716  -21.3580  -47.2901 C.3       11 UNK         0.1400 
     19 N          -0.1334  -21.3350  -45.8321 N.am      11 UNK        -0.5000 
     20 C          -0.9374  -21.9925  -44.9839 C.2       10 UNK         0.5000 
     21 O          -1.8581  -22.7253  -45.3435 O.2       10 UNK        -0.5000 
     22 CA         -0.7077  -21.7562  -43.4812 C.3       10 UNK         0.1400 
     23 CB          0.4657  -22.6030  -42.9669 C.3       10 UNK        -0.1800 
     24 N          -0.4767  -20.3472  -43.1652 N.am      10 UNK        -0.5000 
     25 C          -1.3711  -19.3669  -43.3589 C.2       9 UNK         0.5000 
     26 O          -2.5125  -19.5535  -43.7793 O.2       9 UNK        -0.5000 
     27 CA         -0.8902  -17.9310  -43.0837 C.3       9 UNK         0.1400 
     28 CB         -0.8761  -17.6516  -41.5721 C.3       9 UNK        -0.1800 
     29 N           0.4325  -17.6665  -43.6547 N.am      9 UNK        -0.5000 
     30 C           0.7328  -17.7484  -44.9603 C.2       8 UNK         0.5000 
     31 O          -0.0860  -18.0142  -45.8371 O.2       8 UNK        -0.5000 
     32 CA          2.2100  -17.5677  -45.3450 C.3       8 UNK         0.1400 
     33 CB          2.5874  -16.0822  -45.4277 C.3       8 UNK        -0.1800 
     34 N           3.0937  -18.2502  -44.4024 N.am      8 UNK        -0.5000 
     35 C           3.2044  -19.5825  -44.3064 C.2       7 UNK         0.5000 
     36 O           2.6005  -20.3733  -45.0315 O.2       7 UNK        -0.5000 
     37 CA          4.1081  -20.1162  -43.1804 C.3       7 UNK         0.1400 
     38 CB          5.5800  -20.1164  -43.6189 C.3       7 UNK        -0.1800 
     39 N           3.9680  -19.3468  -41.9426 N.am      7 UNK        -0.5000 
     40 C           2.8534  -19.3169  -41.1989 C.2       6 UNK         0.5000 
     41 O           1.8429  -19.9684  -41.4597 O.2       6 UNK        -0.5000 
     42 CA          2.8509  -18.3708  -39.9847 C.3       6 UNK         0.1400 
     43 CB          3.4135  -19.0832  -38.7460 C.3       6 UNK        -0.1800 
     44 N           3.5873  -17.1224  -40.2022 N.am      6 UNK        -0.5000 
     45 C           3.2840  -16.2021  -41.1270 C.2       5 UNK         0.5000 
     46 O           2.3842  -16.3387  -41.9575 O.2       5 UNK        -0.5000 
     47 CA          4.1287  -14.9142  -41.1201 C.3       5 UNK         0.1400 
     48 CB          4.6114  -14.5541  -42.5344 C.3       5 UNK        -0.1800 
     49 N           3.3920  -13.7775  -40.5676 N.am      5 UNK        -0.5000 
     50 C           2.9612  -13.6732  -39.3003 C.2       4 UNK         0.5000 
     51 O           3.1550  -14.5348  -38.4412 O.2       4 UNK        -0.5000 
     52 CA          2.2495  -12.3601  -38.9274 C.3       4 UNK         0.1400 
     53 CB          2.1180  -12.1407  -37.4082 C.3       4 UNK        -0.1800 
     54 N           2.9766  -11.2475  -39.5280 N.am      4 UNK        -0.5000 
     55 C           2.4292  -10.1479  -40.0521 C.2       3 UNK         0.5000 
     56 O           1.2325   -9.8668  -39.9674 O.2       3 UNK        -0.5000 
     57 CA          3.3686   -9.2224  -40.8561 C.3       3 UNK         0.1400 
     58 CB          4.8733   -9.5152  -40.6531 C.3       3 UNK        -0.1800 
     59 N           3.0439   -9.2428  -42.2868 N.am      3 UNK        -0.5000 
     60 C           2.9406  -10.3233  -43.0746 C.2       2 UNK         0.5000 
     61 O           3.1391  -11.4852  -42.7002 O.2       2 UNK        -0.5000 
     62 CA          2.5527  -10.0602  -44.5350 C.3       2 UNK         0.1400 
     63 CB          3.7976   -9.8883  -45.4200 C.3       2 UNK        -0.1800 
     64 N           1.7800  -11.2050  -44.9905 N.am      2 UNK        -0.5000 
     65 C           0.7384  -11.1768  -45.8285 C.2       1 UNK         0.5000 
     66 O           0.3751  -10.1694  -46.4373 O.2       1 UNK        -0.5000 
     67 C          -1.6155  -20.7569  -47.7522 C.2       11 UNK         0.5000 
     68 O          -2.2942  -21.3654  -48.5798 O.2       11 UNK        -0.5000 
     69 N          -2.0025  -19.6121  -47.1736 N.am      12 UNK        -0.5000 
     70 CA         -3.2799  -18.9473  -47.4224 C.3       12 UNK         0.1400 
     71 CB         -3.2906  -17.5709  -46.7433 C.3       12 UNK        -0.1800 
     72 C          -4.4885  -19.7935  -46.9865 C.2       12 UNK         0.5000 
     73 O          -5.4566  -19.8896  -47.7403 O.2       12 UNK        -0.5000 
     74 N          -4.3953  -20.4288  -45.8091 N.am      13 UNK        -0.5000 
     75 CA         -5.4038  -21.3475  -45.2743 C.3       13 UNK         0.1400 
     76 CB         -5.0539  -21.7064  -43.8223 C.3       13 UNK        -0.1800 
     77 C          -5.5709  -22.6208  -46.1259 C.2       13 UNK         0.5000 
     78 O          -6.6974  -23.0780  -46.3212 O.2       13 UNK        -0.5000 
     79 N          -4.4539  -23.1498  -46.6431 N.am      14 UNK        -0.5000 
     80 CA         -4.4144  -24.2843  -47.5687 C.3       14 UNK         0.1400 
     81 CB         -2.9925  -24.8687  -47.5713 C.3       14 UNK        -0.1800 
     82 C          -4.8384  -23.9224  -49.0072 C.2       14 UNK         0.5000 
     83 O          -5.0617  -24.8315  -49.8075 O.2       14 UNK        -0.5000 
     84 N          -4.9056  -22.6171  -49.3148 N.am      15 UNK        -0.5000 
     85 CA         -5.1214  -22.0148  -50.6350 C.3       15 UNK         0.1400 
     86 CB         -6.5328  -22.3497  -51.1603 C.3       15 UNK        -0.1800 
     87 C          -4.0009  -22.3865  -51.6318 C.2       15 UNK         0.5000 
     88 O          -4.2655  -22.5737  -52.8180 O.2       15 UNK        -0.5000 
     89 N          -2.7714  -22.5321  -51.1151 N.am      16 UNK        -0.5000 
     90 CA         -1.5989  -23.1881  -51.7054 C.3       16 UNK         0.1400 
     91 CB         -1.0920  -22.4780  -52.9771 C.3       16 UNK        -0.1800 
     92 C          -1.8078  -24.7009  -51.9198 C.2       16 UNK         0.5000 
     93 O          -1.0908  -25.5013  -51.3181 O.2       16 UNK        -0.5000 
     94 N          -2.7986  -25.0636  -52.7381 N.am      17 UNK        -0.5000 
     95 CA         -3.2698  -26.4191  -52.9964 C.3       17 UNK         0.1400 
     96 CB         -2.2745  -27.1809  -53.8931 C.3       17 UNK        -0.1800 
     97 C          -4.6465  -26.3255  -53.6685 C.2       17 UNK         0.5000 
     98 O          -4.9899  -25.2783  -54.2190 O.2       17 UNK        -0.5000 
     99 N          -5.3982  -27.4332  -53.6699 N.am      18 UNK        -0.5000 
    100 CA        -6.7422  -27.5248  -54.2563 C.3       18 UNK         0.1400 
    101 CB        -7.3285  -28.9101  -53.9429 C.3       18 UNK        -0.1800 
    102 C         -6.8026  -27.2464  -55.7747 C.2       18 UNK         0.5000 
    103 O         -7.8509  -26.8326  -56.2716 O.2       18 UNK        -0.5000 
    104 N         -5.6833  -27.4722  -56.4744 N.am      19 UNK        -0.5000 
    105 CA        -5.5199  -27.2349  -57.9088 C.3       19 UNK         0.1400 
    106 CB        -4.8045  -28.4545  -58.5154 C.3       19 UNK        -0.1800 
    107 C         -4.7409  -25.9395  -58.2218 C.2       19 UNK         0.5000 
    108 O         -4.5473  -25.6370  -59.4008 O.2       19 UNK        -0.5000 
    109 N         -4.2770  -25.2089  -57.1967 N.am      20 UNK        -0.5000 
    110 CA        -3.4898  -23.9855  -57.3601 C.3       20 UNK         0.1400 
    111 CB        -2.6760  -23.7270  -56.0845 C.3       20 UNK        -0.1800 
    112 C         -4.3745  -22.7678  -57.6756 C.2       20 UNK         0.5000 
    113 O         -5.5505  -22.7346  -57.3037 O.2       20 UNK        -0.5000 
    114 N         -3.7661  -21.7572  -58.3108 N.am      21 UNK        -0.5000 
    115 CA        -4.4045  -20.4944  -58.6968 C.3       21 UNK         0.1400 
    116 CB        -3.4317  -19.6915  -59.5742 C.3       21 UNK        -0.1800 
    117 C         -4.8865  -19.6407  -57.5060 C.2       21 UNK         0.5000 
    118 O         -5.8129  -18.8465  -57.6734 O.2       21 UNK        -0.5000 
    119 N         -4.2681  -19.8282  -56.3315 N.am      22 UNK        -0.5000 
    120 CA        -4.6939  -19.2245  -55.0585 C.3       22 UNK         0.1400 
    121 C         -5.9289  -19.9179  -54.4020 C.2       22 UNK         0.5000 
    122 N         -6.4431  -21.0228  -54.9319 N.am      22 UNK        -0.7600 
    123 O         -6.4531  -19.4287  -53.4058 O.2       22 UNK        -0.5000 
    124 C124       -3.4978  -19.0636  -54.0771 C.3       23 UNK        -0.0398 
    125 S125       -3.6645  -17.5716  -53.0334 S.3       23 UNK        -0.2404 
    126 C126       -3.4219  -18.2158  -51.3482 C.3       23 UNK        -0.0205 
    127 H127        0.3240  -14.9509  -42.8606 H         1 UNK         0.0600 
    128 H128       -1.1488  -14.4001  -42.0560 H         1 UNK         0.0600 
    129 H129        0.3978  -13.6123  -41.7143 H         1 UNK         0.0600 
    130 H130        0.5469  -14.2342  -44.9508 H         1 UNK         0.3000 
    131 H131       -1.0916  -12.2400  -46.1341 H         1 UNK         0.0600 
    132 H132        1.5052  -13.4273  -47.2451 H         1 UNK         0.0800 
    133 H133        0.2870  -12.5665  -48.1528 H         1 UNK         0.0800 
    134 H134       -0.6144  -14.2433  -49.9463 H         1 UNK         0.0800 
    135 H135        0.9931  -14.7951  -49.5449 H         1 UNK         0.0800 
    136 H136       -2.4720  -15.9074  -50.2753 H         1 UNK         0.1150 
    137 H137       -1.2543  -19.8792  -51.3243 H         1 UNK         0.1150 
    138 H138        1.5708  -17.1492  -49.6037 H         1 UNK         0.1150 
    139 H139        1.5279  -19.8829  -51.6722 H         1 UNK         0.0800 
    140 H140        2.3404  -19.2677  -50.2567 H         1 UNK         0.0800 
    141 H141        0.9024  -19.6190  -47.9215 H         1 UNK         0.0800 
    142 H142        1.8644  -21.0133  -47.5163 H         1 UNK         0.0800 
    143 H143       -0.2863  -22.4141  -47.5690 H         1 UNK         0.0600 
    144 H144        0.6266  -20.7789  -45.4554 H         1 UNK         0.3000 
    145 H145       -1.6103  -22.0715  -42.9539 H         1 UNK         0.0600 
    146 H146        0.5776  -22.5046  -41.8870 H         1 UNK         0.0600 
    147 H147        0.3089  -23.6605  -43.1830 H         1 UNK         0.0600 
    148 H148        1.4088  -22.3087  -43.4279 H         1 UNK         0.0600 
    149 H149        0.4253  -20.1146  -42.7591 H         1 UNK         0.3000 
    150 H150       -1.5939  -17.2414  -43.5542 H         1 UNK         0.0600 
    151 H151       -1.8838  -17.7122  -41.1596 H         1 UNK         0.0600 
    152 H152       -0.4911  -16.6588  -41.3461 H         1 UNK         0.0600 
    153 H153       -0.2622  -18.3719  -41.0330 H         1 UNK         0.0600 
    154 H154        1.1668  -17.4001  -43.0045 H         1 UNK         0.3000 
    155 H155        2.3594  -18.0095  -46.3327 H         1 UNK         0.0600 
    156 H156        3.6523  -15.9523  -45.6211 H         1 UNK         0.0600 
    157 H157        2.3440  -15.5493  -44.5095 H         1 UNK         0.0600 
    158 H158        2.0522  -15.5982  -46.2427 H         1 UNK         0.0600 
    159 H159        3.5719  -17.6722  -43.7276 H         1 UNK         0.3000 
    160 H160        3.8119  -21.1475  -42.9764 H         1 UNK         0.0600 
    161 H161        5.9443  -19.1071  -43.8144 H         1 UNK         0.0600 
    162 H162        5.7140  -20.6968  -44.5328 H         1 UNK         0.0600 
    163 H163        6.2183  -20.5621  -42.8558 H         1 UNK         0.0600 
    164 H164        4.7552  -18.7835  -41.6568 H         1 UNK         0.3000 
    165 H165        1.8123  -18.1051  -39.7790 H         1 UNK         0.0600 
    166 H166        3.3268  -18.4569  -37.8578 H         1 UNK         0.0600 
    167 H167        2.8684  -20.0065  -38.5452 H         1 UNK         0.0600 
    168 H168        4.4651  -19.3433  -38.8731 H         1 UNK         0.0600 
    169 H169        4.3171  -16.9133  -39.5361 H         1 UNK         0.3000 
    170 H170        5.0116  -15.0803  -40.4996 H         1 UNK         0.0600 
    171 H171        5.1174  -15.3967  -43.0072 H         1 UNK         0.0600 
    172 H172        3.7833  -14.2595  -43.1791 H         1 UNK         0.0600 
    173 H173        5.3168  -13.7233  -42.5074 H         1 UNK         0.0600 
    174 H174        3.1913  -13.0227  -41.2154 H         1 UNK         0.3000 
    175 H175        1.2477  -12.4202  -39.3580 H         1 UNK         0.0600 
    176 H176        3.0942  -12.0966  -36.9241 H         1 UNK         0.0600 
    177 H177        1.5928  -11.2111  -37.1885 H         1 UNK         0.0600 
    178 H178        1.5530  -12.9489  -36.9422 H         1 UNK         0.0600 
    179 H179        3.9647  -11.4033  -39.6732 H         1 UNK         0.3000 
    180 H180        3.1773   -8.2085  -40.5016 H         1 UNK         0.0600 
    181 H181        5.4833   -8.7740  -41.1695 H         1 UNK         0.0600 
    182 H182        5.1612  -10.4957  -41.0345 H         1 UNK         0.0600 
    183 H183        5.1454   -9.4712  -39.5977 H         1 UNK         0.0600 
    184 H184        2.8347   -8.3400  -42.6894 H         1 UNK         0.3000 
    185 H185        1.9406   -9.1568  -44.5803 H         1 UNK         0.0600 
    186 H186        3.5205   -9.7089  -46.4590 H         1 UNK         0.0600 
    187 H187        4.3967   -9.0386  -45.0908 H         1 UNK         0.0600 
    188 H188        4.4355  -10.7727  -45.3912 H         1 UNK         0.0600 
    189 H189        1.9791  -12.0581  -44.4838 H         1 UNK         0.3000 
    190 H190       -1.3626  -19.1393  -46.5385 H         1 UNK         0.3000 
    191 H191       -3.3633  -18.7916  -48.4981 H         1 UNK         0.0600 
    192 H192       -4.2281  -17.0472  -46.9330 H         1 UNK         0.0600 
    193 H193       -2.4848  -16.9439  -47.1239 H         1 UNK         0.0600 
    194 H194       -3.1684  -17.6515  -45.6631 H         1 UNK         0.0600 
    195 H195       -3.5830  -20.2544  -45.2228 H         1 UNK         0.3000 
    196 H196       -6.3618  -20.8236  -45.2721 H         1 UNK         0.0600 
    197 H197       -4.0872  -22.2057  -43.7528 H         1 UNK         0.0600 
    198 H198       -5.0156  -20.8159  -43.1948 H         1 UNK         0.0600 
    199 H199       -5.8014  -22.3750  -43.3935 H         1 UNK         0.0600 
    200 H200       -3.5570  -22.7551  -46.3749 H         1 UNK         0.3000 
    201 H201       -5.1001  -25.0533  -47.2073 H         1 UNK         0.0600 
    202 H202       -2.2602  -24.1396  -47.9202 H         1 UNK         0.0600 
    203 H203       -2.9250  -25.7388  -48.2258 H         1 UNK         0.0600 
    204 H204       -2.6957  -25.1895  -46.5726 H         1 UNK         0.0600 
    205 H205       -4.6776  -21.9605  -48.5794 H         1 UNK         0.3000 
    206 H206       -5.0698  -20.9358  -50.4904 H         1 UNK         0.0600 
    207 H207       -7.2970  -22.1038  -50.4232 H         1 UNK         0.0600 
    208 H208       -6.7578  -21.7806  -52.0612 H         1 UNK         0.0600 
    209 H209       -6.6336  -23.4055  -51.4130 H         1 UNK         0.0600 
    210 H210       -2.6604  -22.2814  -50.1339 H         1 UNK         0.3000 
    211 H211       -0.8120  -23.1013  -50.9566 H         1 UNK         0.0600 
    212 H212       -0.2842  -23.0441  -53.4422 H         1 UNK         0.0600 
    213 H213       -0.6939  -21.4918  -52.7469 H         1 UNK         0.0600 
    214 H214       -1.8715  -22.3520  -53.7251 H         1 UNK         0.0600 
    215 H215       -3.3932  -24.3350  -53.1311 H         1 UNK         0.3000 
    216 H216       -3.3842  -26.9375  -52.0423 H         1 UNK         0.0600 
    217 H217       -2.1601  -26.7034  -54.8660 H         1 UNK         0.0600 
    218 H218       -2.6095  -28.2035  -54.0693 H         1 UNK         0.0600 
    219 H219       -1.2879  -27.2441  -53.4345 H         1 UNK         0.0600 
    220 H220       -5.0494  -28.2652  -53.2158 H         1 UNK         0.3000 
    221 H221       -7.3652  -26.7729  -53.7674 H         1 UNK         0.0600 
    222 H222       -7.3849  -29.0816  -52.8677 H         1 UNK         0.0600 
    223 H223       -6.7285  -29.7088  -54.3809 H         1 UNK         0.0600 
    224 H224       -8.3407  -29.0055  -54.3384 H         1 UNK         0.0600 
    225 H225       -4.8726  -27.8132  -55.9792 H         1 UNK         0.3000 
    226 H226       -6.4956  -27.1444  -58.3902 H         1 UNK         0.0600 
    227 H227       -3.8048  -28.5832  -58.0986 H         1 UNK         0.0600 
    228 H228       -5.3652  -29.3712  -58.3317 H         1 UNK         0.0600 
    229 H229       -4.6994  -28.3530  -59.5963 H         1 UNK         0.0600 
    230 H230       -4.5659  -25.4339  -56.2515 H         1 UNK         0.3000 
    231 H231       -2.7885  -24.1289  -58.1852 H         1 UNK         0.0600 
    232 H232       -3.3257  -23.5204  -55.2345 H         1 UNK         0.0600 
    233 H233       -2.0170  -22.8670  -56.2071 H         1 UNK         0.0600 
    234 H234       -2.0462  -24.5789  -55.8323 H         1 UNK         0.0600 
    235 H235       -2.7947  -21.8588  -58.5678 H         1 UNK         0.3000 
    236 H236       -5.2837  -20.7379  -59.2970 H         1 UNK         0.0600 
    237 H237       -3.1530  -20.2495  -60.4684 H         1 UNK         0.0600 
    238 H238       -3.8848  -18.7561  -59.9056 H         1 UNK         0.0600 
    239 H239       -2.5175  -19.4400  -59.0350 H         1 UNK         0.0600 
    240 H240       -3.5284  -20.5121  -56.2825 H         1 UNK         0.3000 
    241 H241       -5.0397  -18.2191  -55.3071 H         1 UNK         0.0600 
    242 H242       -7.2397  -21.4506  -54.4901 H         1 UNK         0.3800 
    243 H243       -6.0331  -21.4647  -55.7460 H         1 UNK         0.3800 
    244 H244       -2.5675  -18.9408  -54.6333 H         1 UNK         0.0800 
    245 H245       -3.3595  -19.9604  -53.4721 H         1 UNK         0.0800 
    246 H246       -4.1466  -17.7393  -50.6864 H         1 UNK         0.0800 
    247 H247       -3.6344  -19.2832  -51.3064 H         1 UNK         0.0800 
@<TRIPOS>BOND
     1    1    2 1    
     2    1  127 1    
     3    1  128 1    
     4    1  129 1    
     5    2    3 2    
     6    2    4 am   BACKBONE|DICT|INTERRES
     7    4    5 1    
     8    4  130 1    
     9    5    6 1    
    10    5   65 1    
    11    5  131 1    
    12    6    7 1    
    13    6  132 1    
    14    6  133 1    
    15    7    8 1    
    16    8    9 1    
    17    8  134 1    
    18    8  135 1    
    19    9   10 ar   
    20    9   14 ar   
    21   10   11 ar   
    22   10  136 1    
    23   11   12 ar   
    24   11  126 1    
    25   12   13 ar   
    26   12  137 1    
    27   13   14 ar   
    28   13   15 1    
    29   14  138 1    
    30   15   16 1    
    31   15  139 1    
    32   15  140 1    
    33   16   17 1    
    34   17   18 1    
    35   17  141 1    
    36   17  142 1    
    37   18   19 1    
    38   18   67 1    
    39   18  143 1    
    40   19   20 am   BACKBONE|DICT|INTERRES
    41   19  144 1    
    42   20   21 2    
    43   20   22 1    
    44   22   23 1    
    45   22   24 1    
    46   22  145 1    
    47   23  146 1    
    48   23  147 1    
    49   23  148 1    
    50   24   25 am   BACKBONE|DICT|INTERRES
    51   24  149 1    
    52   25   26 2    
    53   25   27 1    
    54   27   28 1    
    55   27   29 1    
    56   27  150 1    
    57   28  151 1    
    58   28  152 1    
    59   28  153 1    
    60   29   30 am   BACKBONE|DICT|INTERRES
    61   29  154 1    
    62   30   31 2    
    63   30   32 1    
    64   32   33 1    
    65   32   34 1    
    66   32  155 1    
    67   33  156 1    
    68   33  157 1    
    69   33  158 1    
    70   34   35 am   BACKBONE|DICT|INTERRES
    71   34  159 1    
    72   35   36 2    
    73   35   37 1    
    74   37   38 1    
    75   37   39 1    
    76   37  160 1    
    77   38  161 1    
    78   38  162 1    
    79   38  163 1    
    80   39   40 am   BACKBONE|DICT|INTERRES
    81   39  164 1    
    82   40   41 2    
    83   40   42 1    
    84   42   43 1    
    85   42   44 1    
    86   42  165 1    
    87   43  166 1    
    88   43  167 1    
    89   43  168 1    
    90   44   45 am   BACKBONE|DICT|INTERRES
    91   44  169 1    
    92   45   46 2    
    93   45   47 1    
    94   47   48 1    
    95   47   49 1    
    96   47  170 1    
    97   48  171 1    
    98   48  172 1    
    99   48  173 1    
   100   49   50 am   BACKBONE|DICT|INTERRES
   101   49  174 1    
   102   50   51 2    
   103   50   52 1    
   104   52   53 1    
   105   52   54 1    
   106   52  175 1    
   107   53  176 1    
   108   53  177 1    
   109   53  178 1    
   110   54   55 am   BACKBONE|DICT|INTERRES
   111   54  179 1    
   112   55   56 2    
   113   55   57 1    
   114   57   58 1    
   115   57   59 1    
   116   57  180 1    
   117   58  181 1    
   118   58  182 1    
   119   58  183 1    
   120   59   60 am   BACKBONE|DICT|INTERRES
   121   59  184 1    
   122   60   61 2    
   123   60   62 1    
   124   62   63 1    
   125   62   64 1    
   126   62  185 1    
   127   63  186 1    
   128   63  187 1    
   129   63  188 1    
   130   64   65 am   BACKBONE|DICT|INTERRES
   131   64  189 1    
   132   65   66 2    
   133   67   68 2    
   134   67   69 am   BACKBONE|DICT|INTERRES
   135   69   70 1    
   136   69  190 1    
   137   70   71 1    
   138   70   72 1    
   139   70  191 1    
   140   71  192 1    
   141   71  193 1    
   142   71  194 1    
   143   72   73 2    
   144   72   74 am   BACKBONE|DICT|INTERRES
   145   74   75 1    
   146   74  195 1    
   147   75   76 1    
   148   75   77 1    
   149   75  196 1    
   150   76  197 1    
   151   76  198 1    
   152   76  199 1    
   153   77   78 2    
   154   77   79 am   BACKBONE|DICT|INTERRES
   155   79   80 1    
   156   79  200 1    
   157   80   81 1    
   158   80   82 1    
   159   80  201 1    
   160   81  202 1    
   161   81  203 1    
   162   81  204 1    
   163   82   83 2    
   164   82   84 am   BACKBONE|DICT|INTERRES
   165   84   85 1    
   166   84  205 1    
   167   85   86 1    
   168   85   87 1    
   169   85  206 1    
   170   86  207 1    
   171   86  208 1    
   172   86  209 1    
   173   87   88 2    
   174   87   89 am   BACKBONE|DICT|INTERRES
   175   89   90 1    
   176   89  210 1    
   177   90   91 1    
   178   90   92 1    
   179   90  211 1    
   180   91  212 1    
   181   91  213 1    
   182   91  214 1    
   183   92   93 2    
   184   92   94 am   BACKBONE|DICT|INTERRES
   185   94   95 1    
   186   94  215 1    
   187   95   96 1    
   188   95   97 1    
   189   95  216 1    
   190   96  217 1    
   191   96  218 1    
   192   96  219 1    
   193   97   98 2    
   194   97   99 am   BACKBONE|DICT|INTERRES
   195   99  100 1    
   196   99  220 1    
   197  100  101 1    
   198  100  102 1    
   199  100  221 1    
   200  101  222 1    
   201  101  223 1    
   202  101  224 1    
   203  102  103 2    
   204  102  104 am   BACKBONE|DICT|INTERRES
   205  104  105 1    
   206  104  225 1    
   207  105  106 1    
   208  105  107 1    
   209  105  226 1    
   210  106  227 1    
   211  106  228 1    
   212  106  229 1    
   213  107  108 2    
   214  107  109 am   BACKBONE|DICT|INTERRES
   215  109  110 1    
   216  109  230 1    
   217  110  111 1    
   218  110  112 1    
   219  110  231 1    
   220  111  232 1    
   221  111  233 1    
   222  111  234 1    
   223  112  113 2    
   224  112  114 am   BACKBONE|DICT|INTERRES
   225  114  115 1    
   226  114  235 1    
   227  115  116 1    
   228  115  117 1    
   229  115  236 1    
   230  116  237 1    
   231  116  238 1    
   232  116  239 1    
   233  117  118 2    
   234  117  119 am   BACKBONE|DICT|INTERRES
   235  119  120 1    
   236  119  240 1    
   237  120  121 1    
   238  120  124 1    
   239  120  241 1    
   240  121  122 am   BACKBONE|DICT|INTERRES
   241  121  123 2    
   242  122  242 1    
   243  122  243 1    
   244  124  125 1    
   245  124  244 1    
   246  124  245 1    
   247  125  126 1    
   248  126  246 1    
   249  126  247 1    
@<TRIPOS>SUBSTRUCTURE
     1 UNK         1 GROUP             0       ****    0 ROOT    
