@<TRIPOS>MOLECULE
3R540
247   249    1
SMALL
USER_CHARGES


@<TRIPOS>ATOM
      1 CA          6.7768  -14.4699  -46.1722 C.3       0 UNK        -0.1800 
      2 C           5.4992  -13.7916  -45.7016 C.2       0 UNK         0.5000 
      3 O           5.2580  -13.6994  -44.4986 O.2       0 UNK        -0.5000 
      4 N           4.6801  -13.3001  -46.6416 N.am      1 UNK        -0.5000 
      5 CA          3.3934  -12.6388  -46.3756 C.3       1 UNK         0.1400 
      6 C6          2.5376  -12.4923  -47.6567 C.3       23 UNK        -0.0398 
      7 S7          1.6819  -14.0501  -48.0483 S.3       23 UNK        -0.2404 
      8 C8          2.5277  -14.6176  -49.5554 C.3       23 UNK        -0.0205 
      9 C9          1.8441  -15.8425  -50.1536 C.ar      23 UNK        -0.0193 
     10 C10         0.5558  -15.7304  -50.6874 C.ar      23 UNK        -0.1150 
     11 C11        -0.0793  -16.8355  -51.2616 C.ar      23 UNK        -0.0193 
     12 C12         0.5977  -18.0548  -51.3269 C.ar      23 UNK        -0.1150 
     13 C13         1.8832  -18.1872  -50.7948 C.ar      23 UNK        -0.0193 
     14 C14         2.4994  -17.0787  -50.2019 C.ar      23 UNK        -0.1150 
     15 C15         2.6133  -19.5202  -50.8999 C.3       23 UNK        -0.0205 
     16 S16         2.3686  -20.5801  -49.4385 S.3       23 UNK        -0.2404 
     17 C17         0.5837  -20.9459  -49.5406 C.3       23 UNK        -0.0398 
     18 CA          0.1342  -22.0420  -48.5450 C.3       11 UNK         0.1400 
     19 N           0.2564  -21.6278  -47.1442 N.am      11 UNK        -0.5000 
     20 C           0.0789  -22.4331  -46.0876 C.2       10 UNK         0.5000 
     21 O          -0.1873  -23.6316  -46.1798 O.2       10 UNK        -0.5000 
     22 CA          0.1762  -21.7902  -44.6916 C.3       10 UNK         0.1400 
     23 CB          1.6401  -21.5443  -44.2970 C.3       10 UNK        -0.1800 
     24 N          -0.5825  -20.5436  -44.5855 N.am      10 UNK        -0.5000 
     25 C          -1.9159  -20.4558  -44.6978 C.2       9 UNK         0.5000 
     26 O          -2.6533  -21.4253  -44.8746 O.2       9 UNK        -0.5000 
     27 CA         -2.5272  -19.0425  -44.6532 C.3       9 UNK         0.1400 
     28 CB         -2.6227  -18.5219  -43.2113 C.3       9 UNK        -0.1800 
     29 N          -1.7882  -18.0844  -45.4736 N.am      9 UNK        -0.5000 
     30 C          -1.6227  -18.1960  -46.7995 C.2       8 UNK         0.5000 
     31 O          -2.1063  -19.0967  -47.4818 O.2       8 UNK        -0.5000 
     32 CA         -0.7075  -17.1578  -47.4611 C.3       8 UNK         0.1400 
     33 CB         -1.4705  -15.8389  -47.6701 C.3       8 UNK        -0.1800 
     34 N           0.5209  -16.9386  -46.6907 N.am      8 UNK        -0.5000 
     35 C           1.4286  -17.8958  -46.4423 C.2       7 UNK         0.5000 
     36 O           1.3215  -19.0513  -46.8396 O.2       7 UNK        -0.5000 
     37 CA          2.6191  -17.5398  -45.5368 C.3       7 UNK         0.1400 
     38 CB          3.7379  -16.8533  -46.3292 C.3       7 UNK        -0.1800 
     39 N           2.2272  -16.7198  -44.3918 N.am      7 UNK        -0.5000 
     40 C           1.4248  -17.1518  -43.4073 C.2       6 UNK         0.5000 
     41 O           0.9799  -18.2983  -43.3419 O.2       6 UNK        -0.5000 
     42 CA          1.0154  -16.1188  -42.3415 C.3       6 UNK         0.1400 
     43 CB          2.0362  -16.0997  -41.1951 C.3       6 UNK        -0.1800 
     44 N           0.8445  -14.7646  -42.8798 N.am      6 UNK        -0.5000 
     45 C          -0.0696  -14.4344  -43.8068 C.2       5 UNK         0.5000 
     46 O          -0.8493  -15.2550  -44.2948 O.2       5 UNK        -0.5000 
     47 CA         -0.0976  -12.9700  -44.3023 C.3       5 UNK         0.1400 
     48 CB         -1.5008  -12.5249  -44.7635 C.3       5 UNK        -0.1800 
     49 N           0.4794  -11.9983  -43.3652 N.am      5 UNK        -0.5000 
     50 C           0.0371  -11.7011  -42.1340 C.2       4 UNK         0.5000 
     51 O          -0.9553  -12.2219  -41.6213 O.2       4 UNK        -0.5000 
     52 CA          0.8549  -10.6535  -41.3432 C.3       4 UNK         0.1400 
     53 CB          0.5103  -10.6465  -39.8394 C.3       4 UNK        -0.1800 
     54 N           2.3104  -10.7609  -41.5150 N.am      4 UNK        -0.5000 
     55 C           3.0788  -11.8423  -41.3186 C.2       3 UNK         0.5000 
     56 O           2.6287  -12.9616  -41.0730 O.2       3 UNK        -0.5000 
     57 CA          4.6021  -11.6299  -41.4476 C.3       3 UNK         0.1400 
     58 CB          5.4070  -12.9075  -41.1479 C.3       3 UNK        -0.1800 
     59 N           4.9497  -11.1512  -42.7845 N.am      3 UNK        -0.5000 
     60 C           4.8669   -9.8764  -43.1952 C.2       2 UNK         0.5000 
     61 O           4.5669   -8.9440  -42.4485 O.2       2 UNK        -0.5000 
     62 CA          5.0923   -9.5999  -44.6973 C.3       2 UNK         0.1400 
     63 CB          6.5546   -9.2105  -44.9597 C.3       2 UNK        -0.1800 
     64 N           4.7384  -10.7351  -45.5527 N.am      2 UNK        -0.5000 
     65 C           3.5220  -11.2955  -45.6244 C.2       1 UNK         0.5000 
     66 O           2.5269  -10.8266  -45.0696 O.2       1 UNK        -0.5000 
     67 C          -1.2935  -22.5201  -48.8727 C.2       11 UNK         0.5000 
     68 O          -1.4439  -23.5761  -49.4865 O.2       11 UNK        -0.5000 
     69 N          -2.3124  -21.7684  -48.4297 N.am      12 UNK        -0.5000 
     70 CA         -3.7248  -22.1167  -48.5844 C.3       12 UNK         0.1400 
     71 CB         -4.6076  -20.9614  -48.0928 C.3       12 UNK        -0.1800 
     72 C          -4.0945  -23.4232  -47.8642 C.2       12 UNK         0.5000 
     73 O          -4.8009  -24.2459  -48.4451 O.2       12 UNK        -0.5000 
     74 N          -3.5857  -23.6103  -46.6373 N.am      13 UNK        -0.5000 
     75 CA         -3.7549  -24.8325  -45.8510 C.3       13 UNK         0.1400 
     76 CB         -3.2285  -24.6167  -44.4244 C.3       13 UNK        -0.1800 
     77 C          -3.0849  -26.0532  -46.5057 C.2       13 UNK         0.5000 
     78 O          -3.7117  -27.1093  -46.5917 O.2       13 UNK        -0.5000 
     79 N          -1.8497  -25.8790  -46.9984 N.am      14 UNK        -0.5000 
     80 CA         -1.0918  -26.8993  -47.7288 C.3       14 UNK         0.1400 
     81 CB          0.3394  -26.3982  -47.9738 C.3       14 UNK        -0.1800 
     82 C          -1.7602  -27.3109  -49.0549 C.2       14 UNK         0.5000 
     83 O          -1.7503  -28.4921  -49.4024 O.2       14 UNK        -0.5000 
     84 N          -2.3627  -26.3360  -49.7470 N.am      15 UNK        -0.5000 
     85 CA         -3.1473  -26.5268  -50.9667 C.3       15 UNK         0.1400 
     86 CB         -3.1685  -25.2021  -51.7441 C.3       15 UNK        -0.1800 
     87 C          -4.5876  -27.0171  -50.7082 C.2       15 UNK         0.5000 
     88 O          -5.3249  -27.2220  -51.6730 O.2       15 UNK        -0.5000 
     89 N          -4.9882  -27.1516  -49.4335 N.am      16 UNK        -0.5000 
     90 CA         -6.3233  -27.5310  -48.9512 C.3       16 UNK         0.1400 
     91 CB         -6.5969  -29.0185  -49.2532 C.3       16 UNK        -0.1800 
     92 C          -7.4456  -26.5997  -49.4646 C.2       16 UNK         0.5000 
     93 O          -8.5649  -27.0532  -49.7084 O.2       16 UNK        -0.5000 
     94 N          -7.1011  -25.3171  -49.6537 N.am      17 UNK        -0.5000 
     95 CA         -7.8964  -24.2315  -50.2365 C.3       17 UNK         0.1400 
     96 CB         -9.1028  -23.8978  -49.3359 C.3       17 UNK        -0.1800 
     97 C          -8.3067  -24.4449  -51.7131 C.2       17 UNK         0.5000 
     98 O          -9.1300  -23.6825  -52.2217 O.2       17 UNK        -0.5000 
     99 N          -7.7305  -25.4493  -52.3899 N.am      18 UNK        -0.5000 
    100 CA        -8.0133  -25.7755  -53.7901 C.3       18 UNK         0.1400 
    101 CB        -7.8567  -27.2917  -53.9873 C.3       18 UNK        -0.1800 
    102 C         -7.1086  -25.0076  -54.7726 C.2       18 UNK         0.5000 
    103 O         -7.4002  -24.9846  -55.9693 O.2       18 UNK        -0.5000 
    104 N         -6.0318  -24.4016  -54.2620 N.am      19 UNK        -0.5000 
    105 CA        -5.0474  -23.6202  -55.0009 C.3       19 UNK         0.1400 
    106 CB        -4.0847  -24.5564  -55.7652 C.3       19 UNK        -0.1800 
    107 C         -4.3363  -22.6718  -54.0181 C.2       19 UNK         0.5000 
    108 O         -4.9165  -22.3371  -52.9837 O.2       19 UNK        -0.5000 
    109 N         -3.1135  -22.2547  -54.3772 N.am      20 UNK        -0.5000 
    110 CA        -2.1574  -21.3796  -53.6853 C.3       20 UNK         0.1400 
    111 CB        -2.3986  -21.1843  -52.1748 C.3       20 UNK        -0.1800 
    112 C         -1.8151  -20.0501  -54.3958 C.2       20 UNK         0.5000 
    113 O         -0.6716  -19.6248  -54.2519 O.2       20 UNK        -0.5000 
    114 N         -2.6741  -19.3613  -55.1691 N.am      21 UNK        -0.5000 
    115 CA        -4.1042  -19.5211  -55.4628 C.3       21 UNK         0.1400 
    116 CB        -4.4210  -18.6550  -56.6933 C.3       21 UNK        -0.1800 
    117 C         -5.0398  -19.1236  -54.3009 C.2       21 UNK         0.5000 
    118 O         -6.2467  -19.3412  -54.4010 O.2       21 UNK        -0.5000 
    119 N         -4.4801  -18.5127  -53.2516 N.am      22 UNK        -0.5000 
    120 CA        -5.1870  -17.9144  -52.1086 C.3       22 UNK         0.1400 
    121 C         -5.9250  -18.8794  -51.1288 C.2       22 UNK         0.5000 
    122 N         -5.9059  -20.1937  -51.3046 N.am      22 UNK        -0.7600 
    123 O         -6.5645  -18.4163  -50.1883 O.2       22 UNK        -0.5000 
    124 C124       -4.2816  -16.8912  -51.3716 C.3       23 UNK        -0.0398 
    125 S125       -2.6992  -17.5802  -50.7649 S.3       23 UNK        -0.2404 
    126 C126       -1.4905  -16.7123  -51.8171 C.3       23 UNK        -0.0205 
    127 H127        6.8142  -14.5537  -47.2584 H         1 UNK         0.0600 
    128 H128        7.6458  -13.9010  -45.8422 H         1 UNK         0.0600 
    129 H129        6.8459  -15.4730  -45.7518 H         1 UNK         0.0600 
    130 H130        4.9347  -13.3925  -47.6144 H         1 UNK         0.3000 
    131 H131        2.8538  -13.2860  -45.6811 H         1 UNK         0.0600 
    132 H132        3.1399  -12.1549  -48.5015 H         1 UNK         0.0800 
    133 H133        1.7540  -11.7425  -47.5298 H         1 UNK         0.0800 
    134 H134        3.5713  -14.8322  -49.3214 H         1 UNK         0.0800 
    135 H135        2.5293  -13.8164  -50.2957 H         1 UNK         0.0800 
    136 H136        0.0451  -14.7787  -50.6447 H         1 UNK         0.1150 
    137 H137        0.1167  -18.9052  -51.7876 H         1 UNK         0.1150 
    138 H138        3.4954  -17.1769  -49.7941 H         1 UNK         0.1150 
    139 H139        2.2926  -20.0570  -51.7943 H         1 UNK         0.0800 
    140 H140        3.6821  -19.3409  -51.0247 H         1 UNK         0.0800 
    141 H141        0.3766  -21.2567  -50.5657 H         1 UNK         0.0800 
    142 H142        0.0218  -20.0260  -49.3685 H         1 UNK         0.0800 
    143 H143        0.7917  -22.9033  -48.6809 H         1 UNK         0.0600 
    144 H144        0.5237  -20.6565  -46.9874 H         1 UNK         0.3000 
    145 H145       -0.2493  -22.4954  -43.9746 H         1 UNK         0.0600 
    146 H146        1.7141  -21.1511  -43.2829 H         1 UNK         0.0600 
    147 H147        2.2133  -22.4715  -44.3303 H         1 UNK         0.0600 
    148 H148        2.1260  -20.8346  -44.9662 H         1 UNK         0.0600 
    149 H149       -0.0484  -19.6975  -44.4159 H         1 UNK         0.3000 
    150 H150       -3.5396  -19.1082  -45.0570 H         1 UNK         0.0600 
    151 H151       -3.2055  -19.2028  -42.5898 H         1 UNK         0.0600 
    152 H152       -3.1119  -17.5482  -43.1755 H         1 UNK         0.0600 
    153 H153       -1.6401  -18.4183  -42.7513 H         1 UNK         0.0600 
    154 H154       -1.3530  -17.3031  -44.9969 H         1 UNK         0.3000 
    155 H155       -0.4213  -17.5468  -48.4400 H         1 UNK         0.0600 
    156 H156       -2.4196  -16.0158  -48.1770 H         1 UNK         0.0600 
    157 H157       -0.9104  -15.1446  -48.2913 H         1 UNK         0.0600 
    158 H158       -1.6976  -15.3427  -46.7284 H         1 UNK         0.0600 
    159 H159        0.6566  -16.0170  -46.3048 H         1 UNK         0.3000 
    160 H160        3.0227  -18.4774  -45.1483 H         1 UNK         0.0600 
    161 H161        3.4332  -15.8733  -46.6894 H         1 UNK         0.0600 
    162 H162        4.0228  -17.4482  -47.1980 H         1 UNK         0.0600 
    163 H163        4.6290  -16.7277  -45.7151 H         1 UNK         0.0600 
    164 H164        2.5597  -15.7678  -44.3650 H         1 UNK         0.3000 
    165 H165        0.0536  -16.4358  -41.9330 H         1 UNK         0.0600 
    166 H166        3.0095  -15.7370  -41.5285 H         1 UNK         0.0600 
    167 H167        1.7000  -15.4582  -40.3804 H         1 UNK         0.0600 
    168 H168        2.1805  -17.0987  -40.7816 H         1 UNK         0.0600 
    169 H169        1.4282  -14.0401  -42.4759 H         1 UNK         0.3000 
    170 H170        0.5431  -12.9485  -45.1832 H         1 UNK         0.0600 
    171 H171       -1.8577  -13.1436  -45.5873 H         1 UNK         0.0600 
    172 H172       -2.2345  -12.5981  -43.9604 H         1 UNK         0.0600 
    173 H173       -1.4906  -11.4942  -45.1177 H         1 UNK         0.0600 
    174 H174        1.2939  -11.4998  -43.7137 H         1 UNK         0.3000 
    175 H175        0.5706   -9.6825  -41.7510 H         1 UNK         0.0600 
    176 H176        1.0698   -9.8752  -39.3100 H         1 UNK         0.0600 
    177 H177       -0.5490  -10.4429  -39.6784 H         1 UNK         0.0600 
    178 H178        0.7360  -11.6053  -39.3712 H         1 UNK         0.0600 
    179 H179        2.7879   -9.9018  -41.7640 H         1 UNK         0.3000 
    180 H180        4.8907  -10.8792  -40.7090 H         1 UNK         0.0600 
    181 H181        5.1457  -13.7199  -41.8267 H         1 UNK         0.0600 
    182 H182        5.2182  -13.2573  -40.1323 H         1 UNK         0.0600 
    183 H183        6.4786  -12.7290  -41.2363 H         1 UNK         0.0600 
    184 H184        5.1532  -11.8730  -43.4676 H         1 UNK         0.3000 
    185 H185        4.4547   -8.7588  -44.9771 H         1 UNK         0.0600 
    186 H186        6.8442   -8.3504  -44.3544 H         1 UNK         0.0600 
    187 H187        7.2375  -10.0263  -44.7193 H         1 UNK         0.0600 
    188 H188        6.7096   -8.9381  -46.0039 H         1 UNK         0.0600 
    189 H189        5.4987  -11.1916  -46.0349 H         1 UNK         0.3000 
    190 H190       -2.1181  -20.8859  -47.9601 H         1 UNK         0.3000 
    191 H191       -3.9182  -22.2588  -49.6495 H         1 UNK         0.0600 
    192 H192       -4.4104  -20.0502  -48.6580 H         1 UNK         0.0600 
    193 H193       -5.6656  -21.1963  -48.2142 H         1 UNK         0.0600 
    194 H194       -4.4359  -20.7434  -47.0382 H         1 UNK         0.0600 
    195 H195       -3.0480  -22.8641  -46.2068 H         1 UNK         0.3000 
    196 H196       -4.8252  -25.0390  -45.7865 H         1 UNK         0.0600 
    197 H197       -3.3474  -25.5185  -43.8227 H         1 UNK         0.0600 
    198 H198       -3.7727  -23.8171  -43.9219 H         1 UNK         0.0600 
    199 H199       -2.1703  -24.3545  -44.4191 H         1 UNK         0.0600 
    200 H200       -1.3851  -24.9861  -46.8532 H         1 UNK         0.3000 
    201 H201       -1.0371  -27.7879  -47.0966 H         1 UNK         0.0600 
    202 H202        0.8468  -26.1807  -47.0339 H         1 UNK         0.0600 
    203 H203        0.3499  -25.4897  -48.5766 H         1 UNK         0.0600 
    204 H204        0.9324  -27.1484  -48.4983 H         1 UNK         0.0600 
    205 H205       -2.2608  -25.3777  -49.4248 H         1 UNK         0.3000 
    206 H206       -2.6555  -27.2775  -51.5883 H         1 UNK         0.0600 
    207 H207       -2.1596  -24.8548  -51.9673 H         1 UNK         0.0600 
    208 H208       -3.6871  -25.3200  -52.6944 H         1 UNK         0.0600 
    209 H209       -3.6775  -24.4155  -51.1852 H         1 UNK         0.0600 
    210 H210       -4.3201  -26.9280  -48.7063 H         1 UNK         0.3000 
    211 H211       -6.3014  -27.4098  -47.8674 H         1 UNK         0.0600 
    212 H212       -6.6869  -29.2034  -50.3242 H         1 UNK         0.0600 
    213 H213       -7.5237  -29.3504  -48.7841 H         1 UNK         0.0600 
    214 H214       -5.7963  -29.6511  -48.8696 H         1 UNK         0.0600 
    215 H215       -6.1638  -25.0444  -49.3600 H         1 UNK         0.3000 
    216 H216       -7.2397  -23.3603  -50.2384 H         1 UNK         0.0600 
    217 H217       -8.7894  -23.7253  -48.3062 H         1 UNK         0.0600 
    218 H218       -9.8406  -24.7004  -49.3331 H         1 UNK         0.0600 
    219 H219       -9.6077  -22.9924  -49.6746 H         1 UNK         0.0600 
    220 H220       -7.0501  -26.0382  -51.9215 H         1 UNK         0.3000 
    221 H221       -9.0479  -25.5144  -54.0223 H         1 UNK         0.0600 
    222 H222       -6.8259  -27.6141  -53.8379 H         1 UNK         0.0600 
    223 H223       -8.4865  -27.8479  -53.2926 H         1 UNK         0.0600 
    224 H224       -8.1469  -27.5855  -54.9967 H         1 UNK         0.0600 
    225 H225       -5.9098  -24.3946  -53.2583 H         1 UNK         0.3000 
    226 H226       -5.5741  -22.9902  -55.7203 H         1 UNK         0.0600 
    227 H227       -4.6301  -25.2527  -56.4021 H         1 UNK         0.0600 
    228 H228       -3.4162  -23.9968  -56.4198 H         1 UNK         0.0600 
    229 H229       -3.4697  -25.1464  -55.0851 H         1 UNK         0.0600 
    230 H230       -2.7663  -22.6023  -55.2606 H         1 UNK         0.3000 
    231 H231       -1.2309  -21.9535  -53.7432 H         1 UNK         0.0600 
    232 H232       -2.4697  -22.1422  -51.6614 H         1 UNK         0.0600 
    233 H233       -3.3038  -20.6201  -51.9676 H         1 UNK         0.0600 
    234 H234       -1.5796  -20.6317  -51.7167 H         1 UNK         0.0600 
    235 H235       -2.2829  -18.5366  -55.5992 H         1 UNK         0.3000 
    236 H236       -4.3224  -20.5432  -55.7582 H         1 UNK         0.0600 
    237 H237       -5.4640  -18.7641  -56.9942 H         1 UNK         0.0600 
    238 H238       -4.2461  -17.5960  -56.4981 H         1 UNK         0.0600 
    239 H239       -3.8096  -18.9442  -57.5485 H         1 UNK         0.0600 
    240 H240       -3.4791  -18.3924  -53.2495 H         1 UNK         0.3000 
    241 H241       -5.9994  -17.3307  -52.5457 H         1 UNK         0.0600 
    242 H242       -5.4349  -20.6381  -52.0844 H         1 UNK         0.3800 
    243 H243       -6.4190  -20.7653  -50.6570 H         1 UNK         0.3800 
    244 H244       -4.0752  -16.0562  -52.0417 H         1 UNK         0.0800 
    245 H245       -4.8064  -16.4470  -50.5242 H         1 UNK         0.0800 
    246 H246       -1.5229  -17.1217  -52.8275 H         1 UNK         0.0800 
    247 H247       -1.7664  -15.6598  -51.8979 H         1 UNK         0.0800 
@<TRIPOS>BOND
     1    1    2 1    
     2    1  127 1    
     3    1  128 1    
     4    1  129 1    
     5    2    3 2    
     6    2    4 am   BACKBONE|DICT|INTERRES
     7    4    5 1    
     8    4  130 1    
     9    5    6 1    
    10    5   65 1    
    11    5  131 1    
    12    6    7 1    
    13    6  132 1    
    14    6  133 1    
    15    7    8 1    
    16    8    9 1    
    17    8  134 1    
    18    8  135 1    
    19    9   10 ar   
    20    9   14 ar   
    21   10   11 ar   
    22   10  136 1    
    23   11   12 ar   
    24   11  126 1    
    25   12   13 ar   
    26   12  137 1    
    27   13   14 ar   
    28   13   15 1    
    29   14  138 1    
    30   15   16 1    
    31   15  139 1    
    32   15  140 1    
    33   16   17 1    
    34   17   18 1    
    35   17  141 1    
    36   17  142 1    
    37   18   19 1    
    38   18   67 1    
    39   18  143 1    
    40   19   20 am   BACKBONE|DICT|INTERRES
    41   19  144 1    
    42   20   21 2    
    43   20   22 1    
    44   22   23 1    
    45   22   24 1    
    46   22  145 1    
    47   23  146 1    
    48   23  147 1    
    49   23  148 1    
    50   24   25 am   BACKBONE|DICT|INTERRES
    51   24  149 1    
    52   25   26 2    
    53   25   27 1    
    54   27   28 1    
    55   27   29 1    
    56   27  150 1    
    57   28  151 1    
    58   28  152 1    
    59   28  153 1    
    60   29   30 am   BACKBONE|DICT|INTERRES
    61   29  154 1    
    62   30   31 2    
    63   30   32 1    
    64   32   33 1    
    65   32   34 1    
    66   32  155 1    
    67   33  156 1    
    68   33  157 1    
    69   33  158 1    
    70   34   35 am   BACKBONE|DICT|INTERRES
    71   34  159 1    
    72   35   36 2    
    73   35   37 1    
    74   37   38 1    
    75   37   39 1    
    76   37  160 1    
    77   38  161 1    
    78   38  162 1    
    79   38  163 1    
    80   39   40 am   BACKBONE|DICT|INTERRES
    81   39  164 1    
    82   40   41 2    
    83   40   42 1    
    84   42   43 1    
    85   42   44 1    
    86   42  165 1    
    87   43  166 1    
    88   43  167 1    
    89   43  168 1    
    90   44   45 am   BACKBONE|DICT|INTERRES
    91   44  169 1    
    92   45   46 2    
    93   45   47 1    
    94   47   48 1    
    95   47   49 1    
    96   47  170 1    
    97   48  171 1    
    98   48  172 1    
    99   48  173 1    
   100   49   50 am   BACKBONE|DICT|INTERRES
   101   49  174 1    
   102   50   51 2    
   103   50   52 1    
   104   52   53 1    
   105   52   54 1    
   106   52  175 1    
   107   53  176 1    
   108   53  177 1    
   109   53  178 1    
   110   54   55 am   BACKBONE|DICT|INTERRES
   111   54  179 1    
   112   55   56 2    
   113   55   57 1    
   114   57   58 1    
   115   57   59 1    
   116   57  180 1    
   117   58  181 1    
   118   58  182 1    
   119   58  183 1    
   120   59   60 am   BACKBONE|DICT|INTERRES
   121   59  184 1    
   122   60   61 2    
   123   60   62 1    
   124   62   63 1    
   125   62   64 1    
   126   62  185 1    
   127   63  186 1    
   128   63  187 1    
   129   63  188 1    
   130   64   65 am   BACKBONE|DICT|INTERRES
   131   64  189 1    
   132   65   66 2    
   133   67   68 2    
   134   67   69 am   BACKBONE|DICT|INTERRES
   135   69   70 1    
   136   69  190 1    
   137   70   71 1    
   138   70   72 1    
   139   70  191 1    
   140   71  192 1    
   141   71  193 1    
   142   71  194 1    
   143   72   73 2    
   144   72   74 am   BACKBONE|DICT|INTERRES
   145   74   75 1    
   146   74  195 1    
   147   75   76 1    
   148   75   77 1    
   149   75  196 1    
   150   76  197 1    
   151   76  198 1    
   152   76  199 1    
   153   77   78 2    
   154   77   79 am   BACKBONE|DICT|INTERRES
   155   79   80 1    
   156   79  200 1    
   157   80   81 1    
   158   80   82 1    
   159   80  201 1    
   160   81  202 1    
   161   81  203 1    
   162   81  204 1    
   163   82   83 2    
   164   82   84 am   BACKBONE|DICT|INTERRES
   165   84   85 1    
   166   84  205 1    
   167   85   86 1    
   168   85   87 1    
   169   85  206 1    
   170   86  207 1    
   171   86  208 1    
   172   86  209 1    
   173   87   88 2    
   174   87   89 am   BACKBONE|DICT|INTERRES
   175   89   90 1    
   176   89  210 1    
   177   90   91 1    
   178   90   92 1    
   179   90  211 1    
   180   91  212 1    
   181   91  213 1    
   182   91  214 1    
   183   92   93 2    
   184   92   94 am   BACKBONE|DICT|INTERRES
   185   94   95 1    
   186   94  215 1    
   187   95   96 1    
   188   95   97 1    
   189   95  216 1    
   190   96  217 1    
   191   96  218 1    
   192   96  219 1    
   193   97   98 2    
   194   97   99 am   BACKBONE|DICT|INTERRES
   195   99  100 1    
   196   99  220 1    
   197  100  101 1    
   198  100  102 1    
   199  100  221 1    
   200  101  222 1    
   201  101  223 1    
   202  101  224 1    
   203  102  103 2    
   204  102  104 am   BACKBONE|DICT|INTERRES
   205  104  105 1    
   206  104  225 1    
   207  105  106 1    
   208  105  107 1    
   209  105  226 1    
   210  106  227 1    
   211  106  228 1    
   212  106  229 1    
   213  107  108 2    
   214  107  109 am   BACKBONE|DICT|INTERRES
   215  109  110 1    
   216  109  230 1    
   217  110  111 1    
   218  110  112 1    
   219  110  231 1    
   220  111  232 1    
   221  111  233 1    
   222  111  234 1    
   223  112  113 2    
   224  112  114 am   BACKBONE|DICT|INTERRES
   225  114  115 1    
   226  114  235 1    
   227  115  116 1    
   228  115  117 1    
   229  115  236 1    
   230  116  237 1    
   231  116  238 1    
   232  116  239 1    
   233  117  118 2    
   234  117  119 am   BACKBONE|DICT|INTERRES
   235  119  120 1    
   236  119  240 1    
   237  120  121 1    
   238  120  124 1    
   239  120  241 1    
   240  121  122 am   BACKBONE|DICT|INTERRES
   241  121  123 2    
   242  122  242 1    
   243  122  243 1    
   244  124  125 1    
   245  124  244 1    
   246  124  245 1    
   247  125  126 1    
   248  126  246 1    
   249  126  247 1    
@<TRIPOS>SUBSTRUCTURE
     1 UNK         1 GROUP             0       ****    0 ROOT    
