@<TRIPOS>MOLECULE
3R540
247   249    1
SMALL
USER_CHARGES


@<TRIPOS>ATOM
      1 CA          1.9199  -13.7661  -52.6072 C.3       0 UNK        -0.1800 
      2 C           1.4777  -13.6869  -51.1527 C.2       0 UNK         0.5000 
      3 O           0.8351  -12.7130  -50.7594 O.2       0 UNK        -0.5000 
      4 N           1.8246  -14.7044  -50.3556 N.am      1 UNK        -0.5000 
      5 CA          1.3917  -14.8670  -48.9652 C.3       1 UNK         0.1400 
      6 C6          2.3512  -15.8101  -48.1880 C.3       23 UNK        -0.0398 
      7 S7          2.1095  -17.6021  -48.4381 S.3       23 UNK        -0.2404 
      8 C8          3.1299  -17.9977  -49.8870 C.3       23 UNK        -0.0205 
      9 C9          2.5865  -19.2610  -50.5322 C.ar      23 UNK        -0.0193 
     10 C10         1.4583  -19.1815  -51.3514 C.ar      23 UNK        -0.1150 
     11 C11         0.8655  -20.3390  -51.8583 C.ar      23 UNK        -0.0193 
     12 C12         1.4364  -21.5804  -51.5648 C.ar      23 UNK        -0.1150 
     13 C13         2.5701  -21.6836  -50.7525 C.ar      23 UNK        -0.0193 
     14 C14         3.1489  -20.5093  -50.2488 C.ar      23 UNK        -0.1150 
     15 C15         3.0983  -23.0884  -50.4393 C.3       23 UNK        -0.0205 
     16 S16         4.3436  -23.2181  -49.1085 S.3       23 UNK        -0.2404 
     17 C17         3.3937  -22.6925  -47.6414 C.3       23 UNK        -0.0398 
     18 CA          3.3083  -23.7743  -46.5297 C.3       11 UNK         0.1400 
     19 N           3.3378  -23.1570  -45.1983 N.am      11 UNK        -0.5000 
     20 C           3.7136  -23.7597  -44.0628 C.2       10 UNK         0.5000 
     21 O           4.1300  -24.9169  -44.0083 O.2       10 UNK        -0.5000 
     22 CA          3.5584  -22.9422  -42.7647 C.3       10 UNK         0.1400 
     23 CB          4.7802  -22.0383  -42.5433 C.3       10 UNK        -0.1800 
     24 N           2.3392  -22.1275  -42.7293 N.am      10 UNK        -0.5000 
     25 C           1.0896  -22.6157  -42.7399 C.2       9 UNK         0.5000 
     26 O           0.8246  -23.8155  -42.8039 O.2       9 UNK        -0.5000 
     27 CA         -0.0576  -21.5913  -42.7222 C.3       9 UNK         0.1400 
     28 CB         -0.2882  -21.0389  -41.3074 C.3       9 UNK        -0.1800 
     29 N           0.2026  -20.4905  -43.6458 N.am      9 UNK        -0.5000 
     30 C           0.0701  -20.5820  -44.9763 C.2       8 UNK         0.5000 
     31 O          -0.3588  -21.5824  -45.5547 O.2       8 UNK        -0.5000 
     32 CA          0.5356  -19.3653  -45.7979 C.3       8 UNK         0.1400 
     33 CB         -0.6026  -18.3530  -45.9845 C.3       8 UNK        -0.1800 
     34 N           1.6855  -18.6747  -45.2105 N.am      8 UNK        -0.5000 
     35 C           2.9031  -19.2143  -45.0708 C.2       7 UNK         0.5000 
     36 O           3.1795  -20.3660  -45.3934 O.2       7 UNK        -0.5000 
     37 CA          3.9754  -18.3417  -44.3988 C.3       7 UNK         0.1400 
     38 CB          4.6511  -17.4227  -45.4266 C.3       7 UNK        -0.1800 
     39 N           3.4592  -17.5397  -43.2871 N.am      7 UNK        -0.5000 
     40 C           2.8864  -18.0357  -42.1807 C.2       6 UNK         0.5000 
     41 O           2.6497  -19.2317  -42.0053 O.2       6 UNK        -0.5000 
     42 CA          2.4536  -17.0092  -41.1302 C.3       6 UNK         0.1400 
     43 CB          3.5767  -15.9983  -40.8086 C.3       6 UNK        -0.1800 
     44 N           1.2505  -16.3460  -41.6235 N.am      6 UNK        -0.5000 
     45 C           0.4611  -15.5258  -40.9215 C.2       5 UNK         0.5000 
     46 O           0.6820  -15.1748  -39.7617 O.2       5 UNK        -0.5000 
     47 CA         -0.8107  -15.0322  -41.6360 C.3       5 UNK         0.1400 
     48 CB         -0.4928  -13.8369  -42.5473 C.3       5 UNK        -0.1800 
     49 N          -1.4951  -16.0653  -42.4197 N.am      5 UNK        -0.5000 
     50 C          -2.0414  -17.1811  -41.9093 C.2       4 UNK         0.5000 
     51 O          -1.9159  -17.5220  -40.7323 O.2       4 UNK        -0.5000 
     52 CA         -2.8847  -18.0512  -42.8706 C.3       4 UNK         0.1400 
     53 CB         -3.9348  -18.9087  -42.1346 C.3       4 UNK        -0.1800 
     54 N          -3.5246  -17.3000  -43.9583 N.am      4 UNK        -0.5000 
     55 C          -4.3594  -16.2563  -43.8471 C.2       3 UNK         0.5000 
     56 O          -4.6837  -15.7521  -42.7702 O.2       3 UNK        -0.5000 
     57 CA         -4.9358  -15.6889  -45.1621 C.3       3 UNK         0.1400 
     58 CB         -5.4983  -14.2624  -44.9916 C.3       3 UNK        -0.1800 
     59 N          -4.0273  -15.7183  -46.3156 N.am      3 UNK        -0.5000 
     60 C          -2.8092  -15.1673  -46.4171 C.2       2 UNK         0.5000 
     61 O          -2.1407  -14.7468  -45.4694 O.2       2 UNK        -0.5000 
     62 CA         -2.2960  -15.0071  -47.8538 C.3       2 UNK         0.1400 
     63 CB         -2.9520  -13.7910  -48.5311 C.3       2 UNK        -0.1800 
     64 N          -0.8436  -14.8517  -47.9064 N.am      2 UNK        -0.5000 
     65 C          -0.0965  -15.2912  -48.9262 C.2       1 UNK         0.5000 
     66 O          -0.5466  -15.9953  -49.8340 O.2       1 UNK        -0.5000 
     67 C           2.0873  -24.7081  -46.7237 C.2       11 UNK         0.5000 
     68 O           2.0119  -25.3940  -47.7433 O.2       11 UNK        -0.5000 
     69 N           1.1567  -24.7188  -45.7530 N.am      12 UNK        -0.5000 
     70 CA         -0.0913  -25.4906  -45.7094 C.3       12 UNK         0.1400 
     71 CB          0.2003  -27.0031  -45.6226 C.3       12 UNK        -0.1800 
     72 C          -1.0695  -25.1247  -46.8456 C.2       12 UNK         0.5000 
     73 O          -1.8160  -25.9806  -47.3238 O.2       12 UNK        -0.5000 
     74 N          -1.0447  -23.8504  -47.2514 N.am      13 UNK        -0.5000 
     75 CA         -1.8622  -23.2892  -48.3245 C.3       13 UNK         0.1400 
     76 CB         -0.9692  -22.3591  -49.1547 C.3       13 UNK        -0.1800 
     77 C          -3.1125  -22.5629  -47.7888 C.2       13 UNK         0.5000 
     78 O          -4.0110  -22.2572  -48.5744 O.2       13 UNK        -0.5000 
     79 N          -3.1616  -22.3219  -46.4679 N.am      14 UNK        -0.5000 
     80 CA         -4.2630  -21.7376  -45.6965 C.3       14 UNK         0.1400 
     81 CB         -5.4700  -22.6998  -45.6560 C.3       14 UNK        -0.1800 
     82 C          -4.6143  -20.3217  -46.1864 C.2       14 UNK         0.5000 
     83 O          -3.9016  -19.3793  -45.8456 O.2       14 UNK        -0.5000 
     84 N          -5.6751  -20.1899  -46.9954 N.am      15 UNK        -0.5000 
     85 CA         -6.0503  -18.9470  -47.6745 C.3       15 UNK         0.1400 
     86 CB         -7.3728  -19.1545  -48.4264 C.3       15 UNK        -0.1800 
     87 C          -4.9605  -18.4424  -48.6385 C.2       15 UNK         0.5000 
     88 O          -4.7850  -17.2290  -48.7691 O.2       15 UNK        -0.5000 
     89 N          -4.2333  -19.3887  -49.2520 N.am      16 UNK        -0.5000 
     90 CA         -3.0917  -19.1970  -50.1417 C.3       16 UNK         0.1400 
     91 CB         -1.8427  -18.8355  -49.3199 C.3       16 UNK        -0.1800 
     92 C          -3.4211  -18.2448  -51.3048 C.2       16 UNK         0.5000 
     93 O          -4.3720  -18.5329  -52.0341 O.2       16 UNK        -0.5000 
     94 N          -2.6746  -17.1435  -51.4753 N.am      17 UNK        -0.5000 
     95 CA         -2.8375  -16.2009  -52.5884 C.3       17 UNK         0.1400 
     96 CB         -1.6746  -15.1983  -52.6005 C.3       17 UNK        -0.1800 
     97 C          -4.1909  -15.4613  -52.6243 C.2       17 UNK         0.5000 
     98 O          -4.5421  -14.9278  -53.6767 O.2       17 UNK        -0.5000 
     99 N          -4.9484  -15.4677  -51.5155 N.am      18 UNK        -0.5000 
    100 CA        -6.3163  -14.9414  -51.4633 C.3       18 UNK         0.1400 
    101 CB        -6.7710  -14.8171  -50.0010 C.3       18 UNK        -0.1800 
    102 C         -7.3214  -15.7984  -52.2600 C.2       18 UNK         0.5000 
    103 O         -8.3247  -15.2635  -52.7332 O.2       18 UNK        -0.5000 
    104 N         -7.0357  -17.1009  -52.3919 N.am      19 UNK        -0.5000 
    105 CA        -7.8622  -18.0779  -53.1049 C.3       19 UNK         0.1400 
    106 CB        -8.2482  -19.1837  -52.1088 C.3       19 UNK        -0.1800 
    107 C         -7.1421  -18.6835  -54.3264 C.2       19 UNK         0.5000 
    108 O         -7.7643  -19.4423  -55.0703 O.2       19 UNK        -0.5000 
    109 N         -5.8459  -18.3735  -54.4887 N.am      20 UNK        -0.5000 
    110 CA        -4.8779  -19.0049  -55.3956 C.3       20 UNK         0.1400 
    111 CB        -5.2364  -18.7429  -56.8726 C.3       20 UNK        -0.1800 
    112 C         -4.6718  -20.5023  -55.0722 C.2       20 UNK         0.5000 
    113 O         -4.4511  -21.3153  -55.9715 O.2       20 UNK        -0.5000 
    114 N         -4.7501  -20.8414  -53.7788 N.am      21 UNK        -0.5000 
    115 CA        -4.7435  -22.2004  -53.2364 C.3       21 UNK         0.1400 
    116 CB        -5.5382  -22.1982  -51.9173 C.3       21 UNK        -0.1800 
    117 C         -3.3211  -22.7751  -53.0723 C.2       21 UNK         0.5000 
    118 O         -3.0109  -23.3634  -52.0355 O.2       21 UNK        -0.5000 
    119 N         -2.4693  -22.5829  -54.0867 N.am      22 UNK        -0.5000 
    120 CA        -1.0743  -23.0575  -54.0997 C.3       22 UNK         0.1400 
    121 C         -0.9015  -24.5172  -54.6134 C.2       22 UNK         0.5000 
    122 N         -1.9441  -25.1874  -55.0890 N.am      22 UNK        -0.7600 
    123 O          0.2002  -25.0576  -54.5698 O.2       22 UNK        -0.5000 
    124 C124       -0.1165  -22.0885  -54.8486 C.3       23 UNK        -0.0398 
    125 S125       -0.2362  -20.3070  -54.4376 S.3       23 UNK        -0.2404 
    126 C126       -0.4431  -20.2408  -52.6300 C.3       23 UNK        -0.0205 
    127 H127        1.0541  -13.6986  -53.2660 H         1 UNK         0.0600 
    128 H128        2.4380  -14.7009  -52.8233 H         1 UNK         0.0600 
    129 H129        2.5927  -12.9410  -52.8407 H         1 UNK         0.0600 
    130 H130        2.3089  -15.4945  -50.7517 H         1 UNK         0.3000 
    131 H131        1.4604  -13.8849  -48.4920 H         1 UNK         0.0600 
    132 H132        2.2196  -15.6286  -47.1208 H         1 UNK         0.0800 
    133 H133        3.3915  -15.5552  -48.3958 H         1 UNK         0.0800 
    134 H134        4.1690  -18.1270  -49.5808 H         1 UNK         0.0800 
    135 H135        3.1108  -17.1814  -50.6080 H         1 UNK         0.0800 
    136 H136        1.0077  -18.2171  -51.5430 H         1 UNK         0.1150 
    137 H137        0.9806  -22.4834  -51.9374 H         1 UNK         0.1150 
    138 H138        4.0158  -20.5547  -49.6068 H         1 UNK         0.1150 
    139 H139        2.2613  -23.7394  -50.1809 H         1 UNK         0.0800 
    140 H140        3.5348  -23.4980  -51.3510 H         1 UNK         0.0800 
    141 H141        3.9345  -21.8214  -47.2741 H         1 UNK         0.0800 
    142 H142        2.4055  -22.3224  -47.9220 H         1 UNK         0.0800 
    143 H143        4.1955  -24.4070  -46.6025 H         1 UNK         0.0600 
    144 H144        3.0826  -22.1716  -45.1602 H         1 UNK         0.3000 
    145 H145        3.5053  -23.6490  -41.9341 H         1 UNK         0.0600 
    146 H146        4.6984  -21.4841  -41.6080 H         1 UNK         0.0600 
    147 H147        4.8969  -21.3167  -43.3515 H         1 UNK         0.0600 
    148 H148        5.6970  -22.6271  -42.4950 H         1 UNK         0.0600 
    149 H149        2.4674  -21.1238  -42.6487 H         1 UNK         0.3000 
    150 H150       -0.9712  -22.1020  -43.0350 H         1 UNK         0.0600 
    151 H151       -0.5258  -21.8437  -40.6107 H         1 UNK         0.0600 
    152 H152       -1.1214  -20.3374  -41.2885 H         1 UNK         0.0600 
    153 H153        0.5904  -20.5221  -40.9212 H         1 UNK         0.0600 
    154 H154        0.6428  -19.6693  -43.2576 H         1 UNK         0.3000 
    155 H155        0.8263  -19.7392  -46.7820 H         1 UNK         0.0600 
    156 H156       -1.4994  -18.8428  -46.3574 H         1 UNK         0.0600 
    157 H157       -0.3338  -17.5860  -46.7097 H         1 UNK         0.0600 
    158 H158       -0.8568  -17.8497  -45.0533 H         1 UNK         0.0600 
    159 H159        1.5535  -17.7135  -44.9391 H         1 UNK         0.3000 
    160 H160        4.7365  -19.0121  -43.9956 H         1 UNK         0.0600 
    161 H161        3.9637  -16.6666  -45.8042 H         1 UNK         0.0600 
    162 H162        5.0152  -17.9921  -46.2832 H         1 UNK         0.0600 
    163 H163        5.5080  -16.9084  -44.9913 H         1 UNK         0.0600 
    164 H164        3.6070  -16.5427  -43.3461 H         1 UNK         0.3000 
    165 H165        2.2026  -17.5568  -40.2194 H         1 UNK         0.0600 
    166 H166        3.3381  -15.4085  -39.9239 H         1 UNK         0.0600 
    167 H167        4.5176  -16.5103  -40.6024 H         1 UNK         0.0600 
    168 H168        3.7506  -15.3024  -41.6298 H         1 UNK         0.0600 
    169 H169        0.9631  -16.5928  -42.5585 H         1 UNK         0.3000 
    170 H170       -1.5067  -14.6928  -40.8660 H         1 UNK         0.0600 
    171 H171        0.0085  -13.0427  -41.9925 H         1 UNK         0.0600 
    172 H172        0.1572  -14.1221  -43.3755 H         1 UNK         0.0600 
    173 H173       -1.4037  -13.4123  -42.9702 H         1 UNK         0.0600 
    174 H174       -1.6889  -15.8382  -43.3871 H         1 UNK         0.3000 
    175 H175       -2.1868  -18.7415  -43.3439 H         1 UNK         0.0600 
    176 H176       -4.6514  -18.2908  -41.5929 H         1 UNK         0.0600 
    177 H177       -4.4914  -19.5327  -42.8339 H         1 UNK         0.0600 
    178 H178       -3.4659  -19.5764  -41.4114 H         1 UNK         0.0600 
    179 H179       -3.4004  -17.7017  -44.8825 H         1 UNK         0.3000 
    180 H180       -5.7726  -16.3386  -45.4194 H         1 UNK         0.0600 
    181 H181       -5.9372  -13.8981  -45.9206 H         1 UNK         0.0600 
    182 H182       -4.7216  -13.5587  -44.6895 H         1 UNK         0.0600 
    183 H183       -6.2819  -14.2334  -44.2336 H         1 UNK         0.0600 
    184 H184       -4.4318  -16.0953  -47.1678 H         1 UNK         0.3000 
    185 H185       -2.5973  -15.8963  -48.4023 H         1 UNK         0.0600 
    186 H186       -2.6395  -12.8562  -48.0643 H         1 UNK         0.0600 
    187 H187       -2.6938  -13.7406  -49.5889 H         1 UNK         0.0600 
    188 H188       -4.0382  -13.8405  -48.4663 H         1 UNK         0.0600 
    189 H189       -0.4349  -14.3332  -47.1405 H         1 UNK         0.3000 
    190 H190        1.3207  -24.1368  -44.9413 H         1 UNK         0.3000 
    191 H191       -0.5907  -25.2022  -44.7837 H         1 UNK         0.0600 
    192 H192       -0.7141  -27.5679  -45.4382 H         1 UNK         0.0600 
    193 H193        0.8870  -27.2246  -44.8056 H         1 UNK         0.0600 
    194 H194        0.6398  -27.3857  -46.5441 H         1 UNK         0.0600 
    195 H195       -0.4489  -23.1947  -46.7564 H         1 UNK         0.3000 
    196 H196       -2.2153  -24.0844  -48.9844 H         1 UNK         0.0600 
    197 H197       -0.5148  -21.5787  -48.5447 H         1 UNK         0.0600 
    198 H198       -1.5307  -21.8863  -49.9589 H         1 UNK         0.0600 
    199 H199       -0.1613  -22.9241  -49.6181 H         1 UNK         0.0600 
    200 H200       -2.3202  -22.5158  -45.9403 H         1 UNK         0.3000 
    201 H201       -3.8985  -21.6241  -44.6744 H         1 UNK         0.0600 
    202 H202       -5.8523  -22.9335  -46.6500 H         1 UNK         0.0600 
    203 H203       -6.2902  -22.2757  -45.0754 H         1 UNK         0.0600 
    204 H204       -5.1960  -23.6426  -45.1824 H         1 UNK         0.0600 
    205 H205       -6.1874  -21.0215  -47.2505 H         1 UNK         0.3000 
    206 H206       -6.2030  -18.1797  -46.9141 H         1 UNK         0.0600 
    207 H207       -8.1785  -19.4188  -47.7414 H         1 UNK         0.0600 
    208 H208       -7.6747  -18.2443  -48.9466 H         1 UNK         0.0600 
    209 H209       -7.2916  -19.9474  -49.1708 H         1 UNK         0.0600 
    210 H210       -4.4497  -20.3585  -49.0424 H         1 UNK         0.3000 
    211 H211       -2.9101  -20.1646  -50.6087 H         1 UNK         0.0600 
    212 H212       -1.9805  -17.9239  -48.7480 H         1 UNK         0.0600 
    213 H213       -0.9606  -18.7131  -49.9467 H         1 UNK         0.0600 
    214 H214       -1.6191  -19.6195  -48.6006 H         1 UNK         0.0600 
    215 H215       -1.9280  -16.9276  -50.8177 H         1 UNK         0.3000 
    216 H216       -2.7751  -16.7844  -53.5093 H         1 UNK         0.0600 
    217 H217       -1.7153  -14.5614  -53.4849 H         1 UNK         0.0600 
    218 H218       -0.7118  -15.7096  -52.6141 H         1 UNK         0.0600 
    219 H219       -1.6982  -14.5446  -51.7285 H         1 UNK         0.0600 
    220 H220       -4.6088  -15.9444  -50.6891 H         1 UNK         0.3000 
    221 H221       -6.3129  -13.9412  -51.9018 H         1 UNK         0.0600 
    222 H222       -7.7620  -14.3654  -49.9409 H         1 UNK         0.0600 
    223 H223       -6.8292  -15.7884  -49.5104 H         1 UNK         0.0600 
    224 H224       -6.0961  -14.1855  -49.4261 H         1 UNK         0.0600 
    225 H225       -6.1827  -17.4563  -51.9756 H         1 UNK         0.3000 
    226 H226       -8.7790  -17.6160  -53.4763 H         1 UNK         0.0600 
    227 H227       -8.8411  -18.7815  -51.2873 H         1 UNK         0.0600 
    228 H228       -8.8446  -19.9612  -52.5879 H         1 UNK         0.0600 
    229 H229       -7.3652  -19.6593  -51.6814 H         1 UNK         0.0600 
    230 H230       -5.4362  -17.7711  -53.7891 H         1 UNK         0.3000 
    231 H231       -3.9197  -18.5218  -55.1997 H         1 UNK         0.0600 
    232 H232       -4.4370  -19.0812  -57.5328 H         1 UNK         0.0600 
    233 H233       -5.3824  -17.6791  -57.0596 H         1 UNK         0.0600 
    234 H234       -6.1459  -19.2648  -57.1705 H         1 UNK         0.0600 
    235 H235       -4.8429  -20.0893  -53.1032 H         1 UNK         0.3000 
    236 H236       -5.2669  -22.8575  -53.9337 H         1 UNK         0.0600 
    237 H237       -5.0915  -21.5314  -51.1792 H         1 UNK         0.0600 
    238 H238       -6.5672  -21.8797  -52.0808 H         1 UNK         0.0600 
    239 H239       -5.5804  -23.1950  -51.4764 H         1 UNK         0.0600 
    240 H240       -2.8044  -22.1085  -54.9168 H         1 UNK         0.3000 
    241 H241       -0.7360  -23.1072  -53.0669 H         1 UNK         0.0600 
    242 H242       -1.8199  -26.1337  -55.4138 H         1 UNK         0.3800 
    243 H243       -2.8542  -24.7581  -55.1324 H         1 UNK         0.3800 
    244 H244       -0.2773  -22.1734  -55.9247 H         1 UNK         0.0800 
    245 H245        0.9191  -22.3890  -54.6801 H         1 UNK         0.0800 
    246 H246       -1.1423  -20.9950  -52.2766 H         1 UNK         0.0800 
    247 H247       -0.9157  -19.2853  -52.4062 H         1 UNK         0.0800 
@<TRIPOS>BOND
     1    1    2 1    
     2    1  127 1    
     3    1  128 1    
     4    1  129 1    
     5    2    3 2    
     6    2    4 am   BACKBONE|DICT|INTERRES
     7    4    5 1    
     8    4  130 1    
     9    5    6 1    
    10    5   65 1    
    11    5  131 1    
    12    6    7 1    
    13    6  132 1    
    14    6  133 1    
    15    7    8 1    
    16    8    9 1    
    17    8  134 1    
    18    8  135 1    
    19    9   10 ar   
    20    9   14 ar   
    21   10   11 ar   
    22   10  136 1    
    23   11   12 ar   
    24   11  126 1    
    25   12   13 ar   
    26   12  137 1    
    27   13   14 ar   
    28   13   15 1    
    29   14  138 1    
    30   15   16 1    
    31   15  139 1    
    32   15  140 1    
    33   16   17 1    
    34   17   18 1    
    35   17  141 1    
    36   17  142 1    
    37   18   19 1    
    38   18   67 1    
    39   18  143 1    
    40   19   20 am   BACKBONE|DICT|INTERRES
    41   19  144 1    
    42   20   21 2    
    43   20   22 1    
    44   22   23 1    
    45   22   24 1    
    46   22  145 1    
    47   23  146 1    
    48   23  147 1    
    49   23  148 1    
    50   24   25 am   BACKBONE|DICT|INTERRES
    51   24  149 1    
    52   25   26 2    
    53   25   27 1    
    54   27   28 1    
    55   27   29 1    
    56   27  150 1    
    57   28  151 1    
    58   28  152 1    
    59   28  153 1    
    60   29   30 am   BACKBONE|DICT|INTERRES
    61   29  154 1    
    62   30   31 2    
    63   30   32 1    
    64   32   33 1    
    65   32   34 1    
    66   32  155 1    
    67   33  156 1    
    68   33  157 1    
    69   33  158 1    
    70   34   35 am   BACKBONE|DICT|INTERRES
    71   34  159 1    
    72   35   36 2    
    73   35   37 1    
    74   37   38 1    
    75   37   39 1    
    76   37  160 1    
    77   38  161 1    
    78   38  162 1    
    79   38  163 1    
    80   39   40 am   BACKBONE|DICT|INTERRES
    81   39  164 1    
    82   40   41 2    
    83   40   42 1    
    84   42   43 1    
    85   42   44 1    
    86   42  165 1    
    87   43  166 1    
    88   43  167 1    
    89   43  168 1    
    90   44   45 am   BACKBONE|DICT|INTERRES
    91   44  169 1    
    92   45   46 2    
    93   45   47 1    
    94   47   48 1    
    95   47   49 1    
    96   47  170 1    
    97   48  171 1    
    98   48  172 1    
    99   48  173 1    
   100   49   50 am   BACKBONE|DICT|INTERRES
   101   49  174 1    
   102   50   51 2    
   103   50   52 1    
   104   52   53 1    
   105   52   54 1    
   106   52  175 1    
   107   53  176 1    
   108   53  177 1    
   109   53  178 1    
   110   54   55 am   BACKBONE|DICT|INTERRES
   111   54  179 1    
   112   55   56 2    
   113   55   57 1    
   114   57   58 1    
   115   57   59 1    
   116   57  180 1    
   117   58  181 1    
   118   58  182 1    
   119   58  183 1    
   120   59   60 am   BACKBONE|DICT|INTERRES
   121   59  184 1    
   122   60   61 2    
   123   60   62 1    
   124   62   63 1    
   125   62   64 1    
   126   62  185 1    
   127   63  186 1    
   128   63  187 1    
   129   63  188 1    
   130   64   65 am   BACKBONE|DICT|INTERRES
   131   64  189 1    
   132   65   66 2    
   133   67   68 2    
   134   67   69 am   BACKBONE|DICT|INTERRES
   135   69   70 1    
   136   69  190 1    
   137   70   71 1    
   138   70   72 1    
   139   70  191 1    
   140   71  192 1    
   141   71  193 1    
   142   71  194 1    
   143   72   73 2    
   144   72   74 am   BACKBONE|DICT|INTERRES
   145   74   75 1    
   146   74  195 1    
   147   75   76 1    
   148   75   77 1    
   149   75  196 1    
   150   76  197 1    
   151   76  198 1    
   152   76  199 1    
   153   77   78 2    
   154   77   79 am   BACKBONE|DICT|INTERRES
   155   79   80 1    
   156   79  200 1    
   157   80   81 1    
   158   80   82 1    
   159   80  201 1    
   160   81  202 1    
   161   81  203 1    
   162   81  204 1    
   163   82   83 2    
   164   82   84 am   BACKBONE|DICT|INTERRES
   165   84   85 1    
   166   84  205 1    
   167   85   86 1    
   168   85   87 1    
   169   85  206 1    
   170   86  207 1    
   171   86  208 1    
   172   86  209 1    
   173   87   88 2    
   174   87   89 am   BACKBONE|DICT|INTERRES
   175   89   90 1    
   176   89  210 1    
   177   90   91 1    
   178   90   92 1    
   179   90  211 1    
   180   91  212 1    
   181   91  213 1    
   182   91  214 1    
   183   92   93 2    
   184   92   94 am   BACKBONE|DICT|INTERRES
   185   94   95 1    
   186   94  215 1    
   187   95   96 1    
   188   95   97 1    
   189   95  216 1    
   190   96  217 1    
   191   96  218 1    
   192   96  219 1    
   193   97   98 2    
   194   97   99 am   BACKBONE|DICT|INTERRES
   195   99  100 1    
   196   99  220 1    
   197  100  101 1    
   198  100  102 1    
   199  100  221 1    
   200  101  222 1    
   201  101  223 1    
   202  101  224 1    
   203  102  103 2    
   204  102  104 am   BACKBONE|DICT|INTERRES
   205  104  105 1    
   206  104  225 1    
   207  105  106 1    
   208  105  107 1    
   209  105  226 1    
   210  106  227 1    
   211  106  228 1    
   212  106  229 1    
   213  107  108 2    
   214  107  109 am   BACKBONE|DICT|INTERRES
   215  109  110 1    
   216  109  230 1    
   217  110  111 1    
   218  110  112 1    
   219  110  231 1    
   220  111  232 1    
   221  111  233 1    
   222  111  234 1    
   223  112  113 2    
   224  112  114 am   BACKBONE|DICT|INTERRES
   225  114  115 1    
   226  114  235 1    
   227  115  116 1    
   228  115  117 1    
   229  115  236 1    
   230  116  237 1    
   231  116  238 1    
   232  116  239 1    
   233  117  118 2    
   234  117  119 am   BACKBONE|DICT|INTERRES
   235  119  120 1    
   236  119  240 1    
   237  120  121 1    
   238  120  124 1    
   239  120  241 1    
   240  121  122 am   BACKBONE|DICT|INTERRES
   241  121  123 2    
   242  122  242 1    
   243  122  243 1    
   244  124  125 1    
   245  124  244 1    
   246  124  245 1    
   247  125  126 1    
   248  126  246 1    
   249  126  247 1    
@<TRIPOS>SUBSTRUCTURE
     1 UNK         1 GROUP             0       ****    0 ROOT    
