@<TRIPOS>MOLECULE
3R540
247   249    1
SMALL
USER_CHARGES


@<TRIPOS>ATOM
      1 CA         -2.8701  -14.3176  -46.8338 C.3       0 UNK        -0.1800 
      2 C          -1.7578  -13.3168  -46.5594 C.2       0 UNK         0.5000 
      3 O          -2.0393  -12.1583  -46.2521 O.2       0 UNK        -0.5000 
      4 N          -0.4981  -13.7569  -46.6492 N.am      1 UNK        -0.5000 
      5 CA          0.6987  -12.9318  -46.4516 C.3       1 UNK         0.1400 
      6 C6          1.8412  -13.2621  -47.4508 C.3       23 UNK        -0.0398 
      7 S7          1.2920  -13.3320  -49.1937 S.3       23 UNK        -0.2404 
      8 C8          1.6117  -15.0829  -49.5804 C.3       23 UNK        -0.0205 
      9 C9          0.5725  -15.6586  -50.5265 C.ar      23 UNK        -0.0193 
     10 C10         0.8456  -15.8098  -51.8895 C.ar      23 UNK        -0.1150 
     11 C11        -0.0933  -16.4131  -52.7319 C.ar      23 UNK        -0.0193 
     12 C12        -1.2999  -16.8718  -52.2004 C.ar      23 UNK        -0.1150 
     13 C13        -1.5894  -16.7264  -50.8428 C.ar      23 UNK        -0.0193 
     14 C14        -0.6523  -16.0952  -50.0160 C.ar      23 UNK        -0.1150 
     15 C15        -2.9140  -17.2717  -50.3113 C.3       23 UNK        -0.0205 
     16 S16        -2.8870  -17.7778  -48.5612 S.3       23 UNK        -0.2404 
     17 C17        -1.5045  -18.9826  -48.5245 C.3       23 UNK        -0.0398 
     18 CA         -1.7868  -20.2256  -47.6456 C.3       11 UNK         0.1400 
     19 N          -2.3127  -19.8425  -46.3301 N.am      11 UNK        -0.5000 
     20 C          -2.7767  -20.6328  -45.3548 C.2       10 UNK         0.5000 
     21 O          -2.9235  -21.8485  -45.4790 O.2       10 UNK        -0.5000 
     22 CA         -3.1401  -19.9540  -44.0158 C.3       10 UNK         0.1400 
     23 CB         -2.9481  -20.9096  -42.8248 C.3       10 UNK        -0.1800 
     24 N          -2.3592  -18.7414  -43.7630 N.am      10 UNK        -0.5000 
     25 C          -2.6397  -17.5089  -44.2071 C.2       9 UNK         0.5000 
     26 O          -3.6205  -17.2349  -44.8960 O.2       9 UNK        -0.5000 
     27 CA         -1.6157  -16.4173  -43.8526 C.3       9 UNK         0.1400 
     28 CB         -1.7852  -15.9892  -42.3847 C.3       9 UNK        -0.1800 
     29 N          -0.2521  -16.8959  -44.0911 N.am      9 UNK        -0.5000 
     30 C           0.3039  -17.0399  -45.3045 C.2       8 UNK         0.5000 
     31 O          -0.2058  -16.6100  -46.3382 O.2       8 UNK        -0.5000 
     32 CA          1.6356  -17.8094  -45.3995 C.3       8 UNK         0.1400 
     33 CB          2.8255  -16.8535  -45.5556 C.3       8 UNK        -0.1800 
     34 N           1.8625  -18.6678  -44.2396 N.am      8 UNK        -0.5000 
     35 C           1.3576  -19.9008  -44.0949 C.2       7 UNK         0.5000 
     36 O           0.6993  -20.4766  -44.9593 O.2       7 UNK        -0.5000 
     37 CA          1.6117  -20.5969  -42.7431 C.3       7 UNK         0.1400 
     38 CB          2.8652  -21.4806  -42.8218 C.3       7 UNK        -0.1800 
     39 N           1.7598  -19.6495  -41.6342 N.am      7 UNK        -0.5000 
     40 C           0.7728  -18.8706  -41.1684 C.2       6 UNK         0.5000 
     41 O          -0.3805  -18.9172  -41.5936 O.2       6 UNK        -0.5000 
     42 CA          1.1563  -17.8178  -40.1094 C.3       6 UNK         0.1400 
     43 CB          1.0530  -18.4098  -38.6964 C.3       6 UNK        -0.1800 
     44 N           2.5040  -17.2759  -40.3164 N.am      6 UNK        -0.5000 
     45 C           2.8624  -16.5283  -41.3687 C.2       5 UNK         0.5000 
     46 O           2.0759  -16.1644  -42.2448 O.2       5 UNK        -0.5000 
     47 CA          4.3581  -16.2198  -41.5105 C.3       5 UNK         0.1400 
     48 CB          5.0917  -17.4710  -42.0406 C.3       5 UNK        -0.1800 
     49 N           4.5445  -15.0950  -42.4257 N.am      5 UNK        -0.5000 
     50 C           5.7022  -14.4563  -42.6416 C.2       4 UNK         0.5000 
     51 O           6.7508  -14.7185  -42.0508 O.2       4 UNK        -0.5000 
     52 CA          5.6897  -13.3251  -43.6821 C.3       4 UNK         0.1400 
     53 CB          5.5622  -13.8830  -45.1095 C.3       4 UNK        -0.1800 
     54 N           4.6136  -12.3720  -43.4200 N.am      4 UNK        -0.5000 
     55 C           4.7017  -11.3652  -42.5368 C.2       3 UNK         0.5000 
     56 O           5.7160  -11.1222  -41.8815 O.2       3 UNK        -0.5000 
     57 CA          3.4619  -10.4651  -42.3508 C.3       3 UNK         0.1400 
     58 CB          3.5903   -9.1928  -43.2026 C.3       3 UNK        -0.1800 
     59 N           2.2058  -11.1329  -42.6868 N.am      3 UNK        -0.5000 
     60 C           1.6674  -12.1408  -41.9885 C.2       2 UNK         0.5000 
     61 O           2.1180  -12.5438  -40.9157 O.2       2 UNK        -0.5000 
     62 CA          0.4379  -12.8384  -42.6020 C.3       2 UNK         0.1400 
     63 CB         -0.8505  -12.3871  -41.8981 C.3       2 UNK        -0.1800 
     64 N           0.2727  -12.6675  -44.0507 N.am      2 UNK        -0.5000 
     65 C           1.1516  -13.0593  -44.9832 C.2       1 UNK         0.5000 
     66 O           2.2598  -13.5216  -44.7095 O.2       1 UNK        -0.5000 
     67 C          -2.6385  -21.2586  -48.4090 C.2       11 UNK         0.5000 
     68 O          -2.0966  -22.2475  -48.9022 O.2       11 UNK        -0.5000 
     69 N          -3.9557  -21.0271  -48.4602 N.am      12 UNK        -0.5000 
     70 CA         -4.9303  -21.8782  -49.1414 C.3       12 UNK         0.1400 
     71 CB         -6.2902  -21.1665  -49.1231 C.3       12 UNK        -0.1800 
     72 C          -5.0457  -23.2905  -48.5363 C.2       12 UNK         0.5000 
     73 O          -5.2653  -24.2516  -49.2773 O.2       12 UNK        -0.5000 
     74 N          -4.8824  -23.3851  -47.2101 N.am      13 UNK        -0.5000 
     75 CA         -4.8943  -24.6354  -46.4548 C.3       13 UNK         0.1400 
     76 CB         -5.3762  -24.3606  -45.0221 C.3       13 UNK        -0.1800 
     77 C          -3.5085  -25.3004  -46.4441 C.2       13 UNK         0.5000 
     78 O          -3.4293  -26.5240  -46.5417 O.2       13 UNK        -0.5000 
     79 N          -2.4446  -24.4891  -46.3570 N.am      14 UNK        -0.5000 
     80 CA         -1.0462  -24.9228  -46.3770 C.3       14 UNK         0.1400 
     81 CB         -0.1366  -23.7357  -46.0251 C.3       14 UNK        -0.1800 
     82 C          -0.6380  -25.5498  -47.7226 C.2       14 UNK         0.5000 
     83 O           0.0371  -26.5797  -47.7333 O.2       14 UNK        -0.5000 
     84 N          -1.0907  -24.9448  -48.8302 N.am      15 UNK        -0.5000 
     85 CA         -0.9515  -25.4856  -50.1849 C.3       15 UNK         0.1400 
     86 CB         -1.1713  -24.3517  -51.1997 C.3       15 UNK        -0.1800 
     87 C          -1.9316  -26.6415  -50.4688 C.2       15 UNK         0.5000 
     88 O          -1.7127  -27.3985  -51.4145 O.2       15 UNK        -0.5000 
     89 N          -3.0042  -26.7288  -49.6661 N.am      16 UNK        -0.5000 
     90 CA         -4.1326  -27.6650  -49.7497 C.3       16 UNK         0.1400 
     91 CB         -3.6630  -29.1164  -49.5233 C.3       16 UNK        -0.1800 
     92 C          -4.9757  -27.5012  -51.0331 C.2       16 UNK         0.5000 
     93 O          -5.7027  -28.4194  -51.4160 O.2       16 UNK        -0.5000 
     94 N          -4.8680  -26.3297  -51.6711 N.am      17 UNK        -0.5000 
     95 CA         -5.5582  -25.9793  -52.9089 C.3       17 UNK         0.1400 
     96 CB         -4.6941  -24.9681  -53.6774 C.3       17 UNK        -0.1800 
     97 C          -6.9585  -25.3956  -52.6592 C.2       17 UNK         0.5000 
     98 O          -7.7820  -25.4127  -53.5744 O.2       17 UNK        -0.5000 
     99 N          -7.1897  -24.8621  -51.4476 N.am      18 UNK        -0.5000 
    100 CA        -8.3896  -24.1309  -51.0191 C.3       18 UNK         0.1400 
    101 CB        -9.6303  -25.0482  -51.0149 C.3       18 UNK        -0.1800 
    102 C         -8.6129  -22.8168  -51.8049 C.2       18 UNK         0.5000 
    103 O         -9.7432  -22.3353  -51.8967 O.2       18 UNK        -0.5000 
    104 N         -7.5247  -22.2534  -52.3432 N.am      19 UNK        -0.5000 
    105 CA        -7.4712  -21.0376  -53.1441 C.3       19 UNK         0.1400 
    106 CB        -8.0087  -21.3191  -54.5607 C.3       19 UNK        -0.1800 
    107 C         -6.0126  -20.5604  -53.2034 C.2       19 UNK         0.5000 
    108 O         -5.0998  -21.3222  -52.8690 O.2       19 UNK        -0.5000 
    109 N         -5.8116  -19.3214  -53.6667 N.am      20 UNK        -0.5000 
    110 CA        -4.5090  -18.6876  -53.8913 C.3       20 UNK         0.1400 
    111 CB        -4.7062  -17.1597  -53.8734 C.3       20 UNK        -0.1800 
    112 C         -3.8406  -19.1861  -55.1924 C.2       20 UNK         0.5000 
    113 O         -3.5417  -18.3938  -56.0882 O.2       20 UNK        -0.5000 
    114 N         -3.6455  -20.5057  -55.2882 N.am      21 UNK        -0.5000 
    115 CA        -3.1755  -21.2333  -56.4681 C.3       21 UNK         0.1400 
    116 CB        -3.6571  -22.6908  -56.3563 C.3       21 UNK        -0.1800 
    117 C         -1.6506  -21.1263  -56.6964 C.2       21 UNK         0.5000 
    118 O         -0.9748  -22.1474  -56.8390 O.2       21 UNK        -0.5000 
    119 N         -1.1318  -19.8940  -56.7387 N.am      22 UNK        -0.5000 
    120 CA         0.2771  -19.5880  -57.0511 C.3       22 UNK         0.1400 
    121 C          0.6110  -19.6045  -58.5729 C.2       22 UNK         0.5000 
    122 N         -0.3608  -19.7006  -59.4727 N.am      22 UNK        -0.7600 
    123 O          1.7792  -19.5391  -58.9464 O.2       22 UNK        -0.5000 
    124 C124        0.7464  -18.2616  -56.4012 C.3       23 UNK        -0.0398 
    125 S125        0.6549  -18.3107  -54.5806 S.3       23 UNK        -0.2404 
    126 C126        0.1851  -16.5933  -54.2144 C.3       23 UNK        -0.0205 
    127 H127       -3.5782  -14.3346  -46.0054 H         1 UNK         0.0600 
    128 H128       -3.4082  -14.0432  -47.7409 H         1 UNK         0.0600 
    129 H129       -2.4803  -15.3262  -46.9632 H         1 UNK         0.0600 
    130 H130       -0.3315  -14.7475  -46.8058 H         1 UNK         0.3000 
    131 H131        0.4434  -11.8822  -46.6113 H         1 UNK         0.0600 
    132 H132        2.3302  -14.1985  -47.1882 H         1 UNK         0.0800 
    133 H133        2.6209  -12.5020  -47.3792 H         1 UNK         0.0800 
    134 H134        1.6041  -15.6842  -48.6703 H         1 UNK         0.0800 
    135 H135        2.6137  -15.1799  -50.0009 H         1 UNK         0.0800 
    136 H136        1.7919  -15.4739  -52.2897 H         1 UNK         0.1150 
    137 H137       -2.0063  -17.3626  -52.8511 H         1 UNK         0.1150 
    138 H138       -0.8545  -15.9663  -48.9625 H         1 UNK         0.1150 
    139 H139       -3.6819  -16.5084  -50.4419 H         1 UNK         0.0800 
    140 H140       -3.2277  -18.1336  -50.9011 H         1 UNK         0.0800 
    141 H141       -0.6279  -18.4638  -48.1374 H         1 UNK         0.0800 
    142 H142       -1.2347  -19.2764  -49.5410 H         1 UNK         0.0800 
    143 H143       -0.8271  -20.7074  -47.4512 H         1 UNK         0.0600 
    144 H144       -2.2922  -18.8502  -46.1418 H         1 UNK         0.3000 
    145 H145       -4.1981  -19.6902  -44.0684 H         1 UNK         0.0600 
    146 H146       -3.2054  -20.4236  -41.8834 H         1 UNK         0.0600 
    147 H147       -3.5836  -21.7911  -42.9171 H         1 UNK         0.0600 
    148 H148       -1.9153  -21.2528  -42.7519 H         1 UNK         0.0600 
    149 H149       -1.5429  -18.8590  -43.1700 H         1 UNK         0.3000 
    150 H150       -1.7898  -15.5449  -44.4828 H         1 UNK         0.0600 
    151 H151       -2.6748  -15.3696  -42.2681 H         1 UNK         0.0600 
    152 H152       -0.9355  -15.4148  -42.0267 H         1 UNK         0.0600 
    153 H153       -1.9011  -16.8400  -41.7139 H         1 UNK         0.0600 
    154 H154        0.2663  -17.2139  -43.2844 H         1 UNK         0.3000 
    155 H155        1.5895  -18.4316  -46.2959 H         1 UNK         0.0600 
    156 H156        2.8743  -16.1305  -44.7428 H         1 UNK         0.0600 
    157 H157        2.7524  -16.2984  -46.4890 H         1 UNK         0.0600 
    158 H158        3.7707  -17.3958  -45.5791 H         1 UNK         0.0600 
    159 H159        2.3655  -18.2547  -43.4688 H         1 UNK         0.3000 
    160 H160        0.7519  -21.2372  -42.5343 H         1 UNK         0.0600 
    161 H161        3.0165  -22.0343  -41.8950 H         1 UNK         0.0600 
    162 H162        3.7630  -20.8912  -43.0126 H         1 UNK         0.0600 
    163 H163        2.7757  -22.2130  -43.6255 H         1 UNK         0.0600 
    164 H164        2.6789  -19.5627  -41.2270 H         1 UNK         0.3000 
    165 H165        0.4430  -16.9945  -40.1882 H         1 UNK         0.0600 
    166 H166        1.2500  -17.6530  -37.9369 H         1 UNK         0.0600 
    167 H167        0.0523  -18.8022  -38.5105 H         1 UNK         0.0600 
    168 H168        1.7593  -19.2275  -38.5478 H         1 UNK         0.0600 
    169 H169        3.2040  -17.5379  -39.6369 H         1 UNK         0.3000 
    170 H170        4.7497  -15.9452  -40.5290 H         1 UNK         0.0600 
    171 H171        4.9217  -18.3353  -41.3978 H         1 UNK         0.0600 
    172 H172        4.7568  -17.7364  -43.0441 H         1 UNK         0.0600 
    173 H173        6.1700  -17.3201  -42.0812 H         1 UNK         0.0600 
    174 H174        3.7065  -14.8106  -42.9205 H         1 UNK         0.3000 
    175 H175        6.6474  -12.8032  -43.6223 H         1 UNK         0.0600 
    176 H176        4.6437  -14.4519  -45.2484 H         1 UNK         0.0600 
    177 H177        5.5728  -13.0815  -45.8481 H         1 UNK         0.0600 
    178 H178        6.3940  -14.5495  -45.3402 H         1 UNK         0.0600 
    179 H179        3.7307  -12.5517  -43.8882 H         1 UNK         0.3000 
    180 H180        3.4220  -10.1711  -41.2998 H         1 UNK         0.0600 
    181 H181        3.6202   -9.4233  -44.2683 H         1 UNK         0.0600 
    182 H182        4.5045   -8.6500  -42.9585 H         1 UNK         0.0600 
    183 H183        2.7551   -8.5144  -43.0278 H         1 UNK         0.0600 
    184 H184        1.7631  -10.8631  -43.5524 H         1 UNK         0.3000 
    185 H185        0.5825  -13.9033  -42.4242 H         1 UNK         0.0600 
    186 H186       -0.7914  -12.5622  -40.8231 H         1 UNK         0.0600 
    187 H187       -1.0368  -11.3230  -42.0488 H         1 UNK         0.0600 
    188 H188       -1.7177  -12.9341  -42.2680 H         1 UNK         0.0600 
    189 H189       -0.6152  -12.2979  -44.3648 H         1 UNK         0.3000 
    190 H190       -4.3074  -20.1865  -48.0247 H         1 UNK         0.3000 
    191 H191       -4.6128  -21.9928  -50.1800 H         1 UNK         0.0600 
    192 H192       -6.6053  -20.9268  -48.1068 H         1 UNK         0.0600 
    193 H193       -7.0683  -21.7863  -49.5629 H         1 UNK         0.0600 
    194 H194       -6.2549  -20.2375  -49.6928 H         1 UNK         0.0600 
    195 H195       -4.6266  -22.5533  -46.6941 H         1 UNK         0.3000 
    196 H196       -5.5978  -25.3294  -46.9202 H         1 UNK         0.0600 
    197 H197       -5.4199  -25.2835  -44.4423 H         1 UNK         0.0600 
    198 H198       -6.3766  -23.9278  -45.0200 H         1 UNK         0.0600 
    199 H199       -4.7130  -23.6738  -44.4951 H         1 UNK         0.0600 
    200 H200       -2.6061  -23.4945  -46.2143 H         1 UNK         0.3000 
    201 H201       -0.9238  -25.6843  -45.6041 H         1 UNK         0.0600 
    202 H202       -0.3881  -23.3192  -45.0493 H         1 UNK         0.0600 
    203 H203       -0.2196  -22.9338  -46.7585 H         1 UNK         0.0600 
    204 H204        0.9098  -24.0406  -45.9892 H         1 UNK         0.0600 
    205 H205       -1.5817  -24.0573  -48.7448 H         1 UNK         0.3000 
    206 H206        0.0635  -25.8683  -50.3101 H         1 UNK         0.0600 
    207 H207       -0.4635  -23.5379  -51.0411 H         1 UNK         0.0600 
    208 H208       -1.0345  -24.7072  -52.2218 H         1 UNK         0.0600 
    209 H209       -2.1779  -23.9368  -51.1288 H         1 UNK         0.0600 
    210 H210       -3.0636  -26.0607  -48.9110 H         1 UNK         0.3000 
    211 H211       -4.7970  -27.4035  -48.9251 H         1 UNK         0.0600 
    212 H212       -3.0507  -29.4791  -50.3492 H         1 UNK         0.0600 
    213 H213       -4.5130  -29.7926  -49.4259 H         1 UNK         0.0600 
    214 H214       -3.0773  -29.2005  -48.6076 H         1 UNK         0.0600 
    215 H215       -4.2765  -25.6226  -51.2596 H         1 UNK         0.3000 
    216 H216       -5.6726  -26.8720  -53.5276 H         1 UNK         0.0600 
    217 H217       -5.1692  -24.6867  -54.6179 H         1 UNK         0.0600 
    218 H218       -3.7175  -25.3879  -53.9197 H         1 UNK         0.0600 
    219 H219       -4.5325  -24.0542  -53.1043 H         1 UNK         0.0600 
    220 H220       -6.4383  -24.8889  -50.7643 H         1 UNK         0.3000 
    221 H221       -8.2053  -23.8376  -49.9852 H         1 UNK         0.0600 
    222 H222       -9.9409  -25.3187  -52.0243 H         1 UNK         0.0600 
    223 H223       -9.4378  -25.9690  -50.4642 H         1 UNK         0.0600 
    224 H224      -10.4775  -24.5565  -50.5356 H         1 UNK         0.0600 
    225 H225       -6.6194  -22.6823  -52.1993 H         1 UNK         0.3000 
    226 H226       -8.0713  -20.2634  -52.6619 H         1 UNK         0.0600 
    227 H227       -7.4316  -22.1001  -55.0581 H         1 UNK         0.0600 
    228 H228       -9.0499  -21.6406  -54.5356 H         1 UNK         0.0600 
    229 H229       -7.9646  -20.4277  -55.1872 H         1 UNK         0.0600 
    230 H230       -6.6146  -18.7790  -53.9511 H         1 UNK         0.3000 
    231 H231       -3.8416  -18.9534  -53.0698 H         1 UNK         0.0600 
    232 H232       -5.0660  -16.8215  -52.9015 H         1 UNK         0.0600 
    233 H233       -5.4267  -16.8402  -54.6273 H         1 UNK         0.0600 
    234 H234       -3.7748  -16.6306  -54.0754 H         1 UNK         0.0600 
    235 H235       -3.9154  -21.0707  -54.4897 H         1 UNK         0.3000 
    236 H236       -3.6542  -20.7993  -57.3484 H         1 UNK         0.0600 
    237 H237       -3.4008  -23.2606  -57.2503 H         1 UNK         0.0600 
    238 H238       -3.2044  -23.1953  -55.5022 H         1 UNK         0.0600 
    239 H239       -4.7402  -22.7408  -56.2417 H         1 UNK         0.0600 
    240 H240       -1.7577  -19.1072  -56.6007 H         1 UNK         0.3000 
    241 H241        0.8905  -20.3813  -56.6192 H         1 UNK         0.0600 
    242 H242       -0.1288  -19.7155  -60.4538 H         1 UNK         0.3800 
    243 H243       -1.3248  -19.7504  -59.1854 H         1 UNK         0.3800 
    244 H244        1.7828  -18.0441  -56.6659 H         1 UNK         0.0800 
    245 H245        0.1524  -17.4290  -56.7814 H         1 UNK         0.0800 
    246 H246        0.9793  -15.9206  -54.5421 H         1 UNK         0.0800 
    247 H247       -0.7067  -16.3265  -54.7840 H         1 UNK         0.0800 
@<TRIPOS>BOND
     1    1    2 1    
     2    1  127 1    
     3    1  128 1    
     4    1  129 1    
     5    2    3 2    
     6    2    4 am   BACKBONE|DICT|INTERRES
     7    4    5 1    
     8    4  130 1    
     9    5    6 1    
    10    5   65 1    
    11    5  131 1    
    12    6    7 1    
    13    6  132 1    
    14    6  133 1    
    15    7    8 1    
    16    8    9 1    
    17    8  134 1    
    18    8  135 1    
    19    9   10 ar   
    20    9   14 ar   
    21   10   11 ar   
    22   10  136 1    
    23   11   12 ar   
    24   11  126 1    
    25   12   13 ar   
    26   12  137 1    
    27   13   14 ar   
    28   13   15 1    
    29   14  138 1    
    30   15   16 1    
    31   15  139 1    
    32   15  140 1    
    33   16   17 1    
    34   17   18 1    
    35   17  141 1    
    36   17  142 1    
    37   18   19 1    
    38   18   67 1    
    39   18  143 1    
    40   19   20 am   BACKBONE|DICT|INTERRES
    41   19  144 1    
    42   20   21 2    
    43   20   22 1    
    44   22   23 1    
    45   22   24 1    
    46   22  145 1    
    47   23  146 1    
    48   23  147 1    
    49   23  148 1    
    50   24   25 am   BACKBONE|DICT|INTERRES
    51   24  149 1    
    52   25   26 2    
    53   25   27 1    
    54   27   28 1    
    55   27   29 1    
    56   27  150 1    
    57   28  151 1    
    58   28  152 1    
    59   28  153 1    
    60   29   30 am   BACKBONE|DICT|INTERRES
    61   29  154 1    
    62   30   31 2    
    63   30   32 1    
    64   32   33 1    
    65   32   34 1    
    66   32  155 1    
    67   33  156 1    
    68   33  157 1    
    69   33  158 1    
    70   34   35 am   BACKBONE|DICT|INTERRES
    71   34  159 1    
    72   35   36 2    
    73   35   37 1    
    74   37   38 1    
    75   37   39 1    
    76   37  160 1    
    77   38  161 1    
    78   38  162 1    
    79   38  163 1    
    80   39   40 am   BACKBONE|DICT|INTERRES
    81   39  164 1    
    82   40   41 2    
    83   40   42 1    
    84   42   43 1    
    85   42   44 1    
    86   42  165 1    
    87   43  166 1    
    88   43  167 1    
    89   43  168 1    
    90   44   45 am   BACKBONE|DICT|INTERRES
    91   44  169 1    
    92   45   46 2    
    93   45   47 1    
    94   47   48 1    
    95   47   49 1    
    96   47  170 1    
    97   48  171 1    
    98   48  172 1    
    99   48  173 1    
   100   49   50 am   BACKBONE|DICT|INTERRES
   101   49  174 1    
   102   50   51 2    
   103   50   52 1    
   104   52   53 1    
   105   52   54 1    
   106   52  175 1    
   107   53  176 1    
   108   53  177 1    
   109   53  178 1    
   110   54   55 am   BACKBONE|DICT|INTERRES
   111   54  179 1    
   112   55   56 2    
   113   55   57 1    
   114   57   58 1    
   115   57   59 1    
   116   57  180 1    
   117   58  181 1    
   118   58  182 1    
   119   58  183 1    
   120   59   60 am   BACKBONE|DICT|INTERRES
   121   59  184 1    
   122   60   61 2    
   123   60   62 1    
   124   62   63 1    
   125   62   64 1    
   126   62  185 1    
   127   63  186 1    
   128   63  187 1    
   129   63  188 1    
   130   64   65 am   BACKBONE|DICT|INTERRES
   131   64  189 1    
   132   65   66 2    
   133   67   68 2    
   134   67   69 am   BACKBONE|DICT|INTERRES
   135   69   70 1    
   136   69  190 1    
   137   70   71 1    
   138   70   72 1    
   139   70  191 1    
   140   71  192 1    
   141   71  193 1    
   142   71  194 1    
   143   72   73 2    
   144   72   74 am   BACKBONE|DICT|INTERRES
   145   74   75 1    
   146   74  195 1    
   147   75   76 1    
   148   75   77 1    
   149   75  196 1    
   150   76  197 1    
   151   76  198 1    
   152   76  199 1    
   153   77   78 2    
   154   77   79 am   BACKBONE|DICT|INTERRES
   155   79   80 1    
   156   79  200 1    
   157   80   81 1    
   158   80   82 1    
   159   80  201 1    
   160   81  202 1    
   161   81  203 1    
   162   81  204 1    
   163   82   83 2    
   164   82   84 am   BACKBONE|DICT|INTERRES
   165   84   85 1    
   166   84  205 1    
   167   85   86 1    
   168   85   87 1    
   169   85  206 1    
   170   86  207 1    
   171   86  208 1    
   172   86  209 1    
   173   87   88 2    
   174   87   89 am   BACKBONE|DICT|INTERRES
   175   89   90 1    
   176   89  210 1    
   177   90   91 1    
   178   90   92 1    
   179   90  211 1    
   180   91  212 1    
   181   91  213 1    
   182   91  214 1    
   183   92   93 2    
   184   92   94 am   BACKBONE|DICT|INTERRES
   185   94   95 1    
   186   94  215 1    
   187   95   96 1    
   188   95   97 1    
   189   95  216 1    
   190   96  217 1    
   191   96  218 1    
   192   96  219 1    
   193   97   98 2    
   194   97   99 am   BACKBONE|DICT|INTERRES
   195   99  100 1    
   196   99  220 1    
   197  100  101 1    
   198  100  102 1    
   199  100  221 1    
   200  101  222 1    
   201  101  223 1    
   202  101  224 1    
   203  102  103 2    
   204  102  104 am   BACKBONE|DICT|INTERRES
   205  104  105 1    
   206  104  225 1    
   207  105  106 1    
   208  105  107 1    
   209  105  226 1    
   210  106  227 1    
   211  106  228 1    
   212  106  229 1    
   213  107  108 2    
   214  107  109 am   BACKBONE|DICT|INTERRES
   215  109  110 1    
   216  109  230 1    
   217  110  111 1    
   218  110  112 1    
   219  110  231 1    
   220  111  232 1    
   221  111  233 1    
   222  111  234 1    
   223  112  113 2    
   224  112  114 am   BACKBONE|DICT|INTERRES
   225  114  115 1    
   226  114  235 1    
   227  115  116 1    
   228  115  117 1    
   229  115  236 1    
   230  116  237 1    
   231  116  238 1    
   232  116  239 1    
   233  117  118 2    
   234  117  119 am   BACKBONE|DICT|INTERRES
   235  119  120 1    
   236  119  240 1    
   237  120  121 1    
   238  120  124 1    
   239  120  241 1    
   240  121  122 am   BACKBONE|DICT|INTERRES
   241  121  123 2    
   242  122  242 1    
   243  122  243 1    
   244  124  125 1    
   245  124  244 1    
   246  124  245 1    
   247  125  126 1    
   248  126  246 1    
   249  126  247 1    
@<TRIPOS>SUBSTRUCTURE
     1 UNK         1 GROUP             0       ****    0 ROOT    
