@<TRIPOS>MOLECULE
3R540
247   249    1
SMALL
USER_CHARGES


@<TRIPOS>ATOM
      1 CA          2.6808  -14.8048  -49.4902 C.3       0 UNK        -0.1800 
      2 C           2.5682  -14.1978  -48.1007 C.2       0 UNK         0.5000 
      3 O           3.4244  -14.4541  -47.2518 O.2       0 UNK        -0.5000 
      4 N           1.5229  -13.3910  -47.8688 N.am      1 UNK        -0.5000 
      5 CA          1.1865  -12.7858  -46.5726 C.3       1 UNK         0.1400 
      6 C6         -0.1656  -12.0180  -46.5738 C.3       23 UNK        -0.0398 
      7 S7         -1.5094  -12.8175  -47.5136 S.3       23 UNK        -0.2404 
      8 C8         -1.9359  -14.2307  -46.4542 C.3       23 UNK        -0.0205 
      9 C9         -2.1738  -15.4615  -47.3113 C.ar      23 UNK        -0.0193 
     10 C10        -3.4738  -15.8459  -47.6532 C.ar      23 UNK        -0.1150 
     11 C11        -3.6893  -16.9553  -48.4753 C.ar      23 UNK        -0.0193 
     12 C12        -2.5941  -17.6685  -48.9696 C.ar      23 UNK        -0.1150 
     13 C13        -1.2904  -17.2916  -48.6371 C.ar      23 UNK        -0.0193 
     14 C14        -1.0865  -16.1961  -47.7942 C.ar      23 UNK        -0.1150 
     15 C15        -0.1049  -18.0496  -49.2144 C.3       23 UNK        -0.0205 
     16 S16         0.4858  -19.3526  -48.0943 S.3       23 UNK        -0.2404 
     17 C17        -0.9382  -20.4876  -48.0881 C.3       23 UNK        -0.0398 
     18 CA         -0.5989  -21.8381  -47.4232 C.3       11 UNK         0.1400 
     19 N          -0.1849  -21.6866  -46.0272 N.am      11 UNK        -0.5000 
     20 C           0.4924  -22.6069  -45.3296 C.2       10 UNK         0.5000 
     21 O           0.8452  -23.6912  -45.7922 O.2       10 UNK        -0.5000 
     22 CA          0.7733  -22.2759  -43.8517 C.3       10 UNK         0.1400 
     23 CB          2.0062  -21.3680  -43.7253 C.3       10 UNK        -0.1800 
     24 N          -0.3684  -21.6356  -43.1955 N.am      10 UNK        -0.5000 
     25 C          -1.5606  -22.2195  -43.0108 C.2       9 UNK         0.5000 
     26 O          -1.8013  -23.3856  -43.3194 O.2       9 UNK        -0.5000 
     27 CA         -2.6889  -21.3456  -42.4337 C.3       9 UNK         0.1400 
     28 CB         -2.7188  -21.4525  -40.9022 C.3       9 UNK        -0.1800 
     29 N          -2.6086  -19.9327  -42.8096 N.am      9 UNK        -0.5000 
     30 C          -2.5931  -19.4305  -44.0512 C.2       8 UNK         0.5000 
     31 O          -2.5969  -20.1354  -45.0608 O.2       8 UNK        -0.5000 
     32 CA         -2.5285  -17.8942  -44.2024 C.3       8 UNK         0.1400 
     33 CB         -3.9190  -17.3207  -44.5313 C.3       8 UNK        -0.1800 
     34 N          -1.9078  -17.1770  -43.0741 N.am      8 UNK        -0.5000 
     35 C          -2.3427  -17.0493  -41.8086 C.2       7 UNK         0.5000 
     36 O          -3.3922  -17.5455  -41.3999 O.2       7 UNK        -0.5000 
     37 CA         -1.4374  -16.3132  -40.7998 C.3       7 UNK         0.1400 
     38 CB         -0.8393  -17.3151  -39.7983 C.3       7 UNK        -0.1800 
     39 N          -0.3407  -15.5736  -41.4216 N.am      7 UNK        -0.5000 
     40 C          -0.4624  -14.3879  -42.0312 C.2       6 UNK         0.5000 
     41 O          -1.5181  -13.7588  -42.1039 O.2       6 UNK        -0.5000 
     42 CA          0.8106  -13.8181  -42.6867 C.3       6 UNK         0.1400 
     43 CB          1.5345  -12.8796  -41.7093 C.3       6 UNK        -0.1800 
     44 N           1.7609  -14.8309  -43.1630 N.am      6 UNK        -0.5000 
     45 C           1.5046  -15.8077  -44.0428 C.2       5 UNK         0.5000 
     46 O           0.3839  -16.0182  -44.5051 O.2       5 UNK        -0.5000 
     47 CA          2.6872  -16.7031  -44.4616 C.3       5 UNK         0.1400 
     48 CB          2.3471  -17.5914  -45.6698 C.3       5 UNK        -0.1800 
     49 N           3.9067  -15.9518  -44.7661 N.am      5 UNK        -0.5000 
     50 C           4.7856  -15.5091  -43.8585 C.2       4 UNK         0.5000 
     51 O           4.5752  -15.5390  -42.6454 O.2       4 UNK        -0.5000 
     52 CA          6.1283  -14.9757  -44.3760 C.3       4 UNK         0.1400 
     53 CB          7.1091  -16.1580  -44.5343 C.3       4 UNK        -0.1800 
     54 N           5.9917  -14.2265  -45.6287 N.am      4 UNK        -0.5000 
     55 C           6.9810  -13.5235  -46.1992 C.2       3 UNK         0.5000 
     56 O           8.1177  -13.4281  -45.7343 O.2       3 UNK        -0.5000 
     57 CA          6.6414  -12.7741  -47.4968 C.3       3 UNK         0.1400 
     58 CB          6.5184  -13.7421  -48.6849 C.3       3 UNK        -0.1800 
     59 N           5.4174  -11.9883  -47.3614 N.am      3 UNK        -0.5000 
     60 C           5.3357  -10.8258  -46.6977 C.2       2 UNK         0.5000 
     61 O           6.2943  -10.2887  -46.1414 O.2       2 UNK        -0.5000 
     62 CA          3.9630  -10.1282  -46.6628 C.3       2 UNK         0.1400 
     63 CB          3.9222   -8.9746  -47.6772 C.3       2 UNK        -0.1800 
     64 N           2.8565  -11.0418  -46.9457 N.am      2 UNK        -0.5000 
     65 C           2.3063  -11.8671  -46.0456 C.2       1 UNK         0.5000 
     66 O           2.6571  -11.9340  -44.8686 O.2       1 UNK        -0.5000 
     67 C          -1.7821  -22.8127  -47.5554 C.2       11 UNK         0.5000 
     68 O          -1.8836  -23.4936  -48.5752 O.2       11 UNK        -0.5000 
     69 N          -2.6458  -22.8801  -46.5327 N.am      12 UNK        -0.5000 
     70 CA         -3.7245  -23.8634  -46.4362 C.3       12 UNK         0.1400 
     71 CB         -4.7111  -23.4549  -45.3330 C.3       12 UNK        -0.1800 
     72 C          -3.1799  -25.2845  -46.2087 C.2       12 UNK         0.5000 
     73 O          -3.6143  -26.2121  -46.8904 O.2       12 UNK        -0.5000 
     74 N          -2.2025  -25.4209  -45.3006 N.am      13 UNK        -0.5000 
     75 CA         -1.4992  -26.6717  -45.0039 C.3       13 UNK         0.1400 
     76 CB         -0.5941  -26.4715  -43.7790 C.3       13 UNK        -0.1800 
     77 C          -0.6877  -27.2047  -46.2000 C.2       13 UNK         0.5000 
     78 O          -0.6821  -28.4120  -46.4420 O.2       13 UNK        -0.5000 
     79 N          -0.0504  -26.2929  -46.9474 N.am      14 UNK        -0.5000 
     80 CA          0.6709  -26.5854  -48.1891 C.3       14 UNK         0.1400 
     81 CB          1.6035  -25.4050  -48.5046 C.3       14 UNK        -0.1800 
     82 C          -0.2544  -26.8626  -49.3931 C.2       14 UNK         0.5000 
     83 O           0.2321  -27.3238  -50.4257 O.2       14 UNK        -0.5000 
     84 N          -1.5499  -26.5402  -49.2554 N.am      15 UNK        -0.5000 
     85 CA         -2.6138  -26.5837  -50.2666 C.3       15 UNK         0.1400 
     86 CB         -2.8284  -28.0120  -50.8058 C.3       15 UNK        -0.1800 
     87 C          -2.4479  -25.5462  -51.3976 C.2       15 UNK         0.5000 
     88 O          -3.1907  -25.5902  -52.3778 O.2       15 UNK        -0.5000 
     89 N          -1.5270  -24.5897  -51.2253 N.am      16 UNK        -0.5000 
     90 CA         -1.2862  -23.4664  -52.1288 C.3       16 UNK         0.1400 
     91 CB         -0.0170  -22.7249  -51.6819 C.3       16 UNK        -0.1800 
     92 C          -2.4858  -22.5056  -52.1903 C.2       16 UNK         0.5000 
     93 O          -2.8247  -22.0276  -53.2719 O.2       16 UNK        -0.5000 
     94 N          -3.1337  -22.2913  -51.0353 N.am      17 UNK        -0.5000 
     95 CA         -4.3514  -21.4884  -50.8999 C.3       17 UNK         0.1400 
     96 CB         -4.6298  -21.2462  -49.4091 C.3       17 UNK        -0.1800 
     97 C          -5.5811  -22.1347  -51.5660 C.2       17 UNK         0.5000 
     98 O          -6.4909  -21.4190  -51.9807 O.2       17 UNK        -0.5000 
     99 N          -5.5950  -23.4718  -51.6479 N.am      18 UNK        -0.5000 
    100 CA        -6.6265  -24.2338  -52.3493 C.3       18 UNK         0.1400 
    101 CB        -6.6889  -25.6585  -51.7758 C.3       18 UNK        -0.1800 
    102 C         -6.3682  -24.2609  -53.8659 C.2       18 UNK         0.5000 
    103 O         -7.3195  -24.2028  -54.6457 O.2       18 UNK        -0.5000 
    104 N         -5.0885  -24.3539  -54.2525 N.am      19 UNK        -0.5000 
    105 CA        -4.6362  -24.4238  -55.6386 C.3       19 UNK         0.1400 
    106 CB        -3.1610  -24.8521  -55.6712 C.3       19 UNK        -0.1800 
    107 C         -4.8329  -23.1165  -56.4261 C.2       19 UNK         0.5000 
    108 O         -5.1797  -23.1853  -57.6067 O.2       19 UNK        -0.5000 
    109 N         -4.5988  -21.9594  -55.7913 N.am      20 UNK        -0.5000 
    110 CA        -4.6347  -20.6564  -56.4527 C.3       20 UNK         0.1400 
    111 CB        -3.3039  -20.4284  -57.1981 C.3       20 UNK        -0.1800 
    112 C         -4.8990  -19.5119  -55.4631 C.2       20 UNK         0.5000 
    113 O         -4.7269  -19.6752  -54.2536 O.2       20 UNK        -0.5000 
    114 N         -5.2653  -18.3548  -56.0328 N.am      21 UNK        -0.5000 
    115 CA        -5.4510  -17.0319  -55.4262 C.3       21 UNK         0.1400 
    116 CB        -4.1450  -16.5205  -54.7849 C.3       21 UNK        -0.1800 
    117 C         -6.6366  -16.9220  -54.4509 C.2       21 UNK         0.5000 
    118 O         -7.5337  -16.1090  -54.6809 O.2       21 UNK        -0.5000 
    119 N         -6.6034  -17.7062  -53.3727 N.am      22 UNK        -0.5000 
    120 CA        -7.5745  -17.6689  -52.2706 C.3       22 UNK         0.1400 
    121 C         -8.8315  -18.5451  -52.5423 C.2       22 UNK         0.5000 
    122 N         -9.8550  -18.4422  -51.7041 N.am      22 UNK        -0.7600 
    123 O         -8.9059  -19.3098  -53.5023 O.2       22 UNK        -0.5000 
    124 C124       -6.8995  -18.0089  -50.9158 C.3       23 UNK        -0.0398 
    125 S125       -5.5009  -16.8952  -50.5457 S.3       23 UNK        -0.2404 
    126 C126       -5.0988  -17.3865  -48.8438 C.3       23 UNK        -0.0205 
    127 H127        3.5343  -14.3791  -50.0174 H         1 UNK         0.0600 
    128 H128        1.7844  -14.6249  -50.0842 H         1 UNK         0.0600 
    129 H129        2.8277  -15.8822  -49.4154 H         1 UNK         0.0600 
    130 H130        0.8488  -13.2281  -48.6039 H         1 UNK         0.3000 
    131 H131        1.0968  -13.6138  -45.8704 H         1 UNK         0.0600 
    132 H132       -0.5061  -11.8512  -45.5503 H         1 UNK         0.0800 
    133 H133       -0.0427  -11.0254  -47.0114 H         1 UNK         0.0800 
    134 H134       -1.1397  -14.4297  -45.7398 H         1 UNK         0.0800 
    135 H135       -2.8213  -13.9889  -45.8645 H         1 UNK         0.0800 
    136 H136       -4.3164  -15.2777  -47.2853 H         1 UNK         0.1150 
    137 H137       -2.7596  -18.5119  -49.6248 H         1 UNK         0.1150 
    138 H138       -0.0811  -15.8989  -47.5310 H         1 UNK         0.1150 
    139 H139       -0.3640  -18.4872  -50.1798 H         1 UNK         0.0800 
    140 H140        0.7141  -17.3555  -49.4067 H         1 UNK         0.0800 
    141 H141       -1.2557  -20.6388  -49.1215 H         1 UNK         0.0800 
    142 H142       -1.7685  -20.0032  -47.5724 H         1 UNK         0.0800 
    143 H143        0.2356  -22.2766  -47.9743 H         1 UNK         0.0600 
    144 H144       -0.5011  -20.8476  -45.5609 H         1 UNK         0.3000 
    145 H145        0.9811  -23.2141  -43.3329 H         1 UNK         0.0600 
    146 H146        2.8778  -21.8272  -44.1935 H         1 UNK         0.0600 
    147 H147        2.2576  -21.1873  -42.6800 H         1 UNK         0.0600 
    148 H148        1.8479  -20.4014  -44.2048 H         1 UNK         0.0600 
    149 H149       -0.2570  -20.6738  -42.9119 H         1 UNK         0.3000 
    150 H150       -3.6333  -21.7302  -42.8219 H         1 UNK         0.0600 
    151 H151       -1.8132  -21.0430  -40.4527 H         1 UNK         0.0600 
    152 H152       -2.8038  -22.4925  -40.5838 H         1 UNK         0.0600 
    153 H153       -3.5715  -20.9155  -40.4861 H         1 UNK         0.0600 
    154 H154       -2.6898  -19.2604  -42.0552 H         1 UNK         0.3000 
    155 H155       -1.8841  -17.7001  -45.0617 H         1 UNK         0.0600 
    156 H156       -4.6431  -17.5223  -43.7419 H         1 UNK         0.0600 
    157 H157       -4.3104  -17.7599  -45.4498 H         1 UNK         0.0600 
    158 H158       -3.8745  -16.2419  -44.6792 H         1 UNK         0.0600 
    159 H159       -1.0308  -16.7253  -43.3162 H         1 UNK         0.3000 
    160 H160       -2.0662  -15.6114  -40.2478 H         1 UNK         0.0600 
    161 H161       -0.2015  -18.0483  -40.2936 H         1 UNK         0.0600 
    162 H162       -1.6235  -17.8636  -39.2746 H         1 UNK         0.0600 
    163 H163       -0.2421  -16.8069  -39.0409 H         1 UNK         0.0600 
    164 H164        0.5688  -16.0112  -41.4088 H         1 UNK         0.3000 
    165 H165        0.4923  -13.2331  -43.5504 H         1 UNK         0.0600 
    166 H166        2.3911  -12.3993  -42.1824 H         1 UNK         0.0600 
    167 H167        0.8703  -12.0869  -41.3625 H         1 UNK         0.0600 
    168 H168        1.8952  -13.4157  -40.8306 H         1 UNK         0.0600 
    169 H169        2.7125  -14.7592  -42.8195 H         1 UNK         0.3000 
    170 H170        2.8881  -17.3670  -43.6182 H         1 UNK         0.0600 
    171 H171        3.1743  -18.2552  -45.9209 H         1 UNK         0.0600 
    172 H172        2.1139  -16.9960  -46.5533 H         1 UNK         0.0600 
    173 H173        1.4818  -18.2216  -45.4614 H         1 UNK         0.0600 
    174 H174        4.0933  -15.8088  -45.7506 H         1 UNK         0.3000 
    175 H175        6.5181  -14.2955  -43.6159 H         1 UNK         0.0600 
    176 H176        7.1359  -16.7697  -43.6313 H         1 UNK         0.0600 
    177 H177        6.8207  -16.8080  -45.3612 H         1 UNK         0.0600 
    178 H178        8.1296  -15.8220  -44.7137 H         1 UNK         0.0600 
    179 H179        5.0726  -14.2123  -46.0600 H         1 UNK         0.3000 
    180 H180        7.4651  -12.0905  -47.7146 H         1 UNK         0.0600 
    181 H181        5.7402  -14.4886  -48.5287 H         1 UNK         0.0600 
    182 H182        7.4543  -14.2793  -48.8428 H         1 UNK         0.0600 
    183 H183        6.2912  -13.2082  -49.6077 H         1 UNK         0.0600 
    184 H184        4.5733  -12.3888  -47.7426 H         1 UNK         0.3000 
    185 H185        3.8315   -9.7071  -45.6636 H         1 UNK         0.0600 
    186 H186        4.7162   -8.2528  -47.4808 H         1 UNK         0.0600 
    187 H187        4.0494   -9.3320  -48.6999 H         1 UNK         0.0600 
    188 H188        2.9758   -8.4361  -47.6243 H         1 UNK         0.0600 
    189 H189        2.5125  -11.0600  -47.8951 H         1 UNK         0.3000 
    190 H190       -2.5269  -22.2418  -45.7559 H         1 UNK         0.3000 
    191 H191       -4.2672  -23.8700  -47.3827 H         1 UNK         0.0600 
    192 H192       -5.0814  -22.4414  -45.4896 H         1 UNK         0.0600 
    193 H193       -5.5752  -24.1201  -45.3222 H         1 UNK         0.0600 
    194 H194       -4.2570  -23.4981  -44.3440 H         1 UNK         0.0600 
    195 H195       -1.9416  -24.6140  -44.7390 H         1 UNK         0.3000 
    196 H196       -2.2502  -27.4234  -44.7524 H         1 UNK         0.0600 
    197 H197       -0.0706  -27.3937  -43.5239 H         1 UNK         0.0600 
    198 H198       -1.1744  -26.1744  -42.9053 H         1 UNK         0.0600 
    199 H199        0.1591  -25.7032  -43.9561 H         1 UNK         0.0600 
    200 H200       -0.0326  -25.3292  -46.6294 H         1 UNK         0.3000 
    201 H201        1.2844  -27.4753  -48.0339 H         1 UNK         0.0600 
    202 H202        2.1942  -25.5981  -49.4010 H         1 UNK         0.0600 
    203 H203        2.3037  -25.2261  -47.6884 H         1 UNK         0.0600 
    204 H204        1.0430  -24.4851  -48.6730 H         1 UNK         0.0600 
    205 H205       -1.8392  -26.1687  -48.3599 H         1 UNK         0.3000 
    206 H206       -3.5254  -26.2970  -49.7408 H         1 UNK         0.0600 
    207 H207       -2.9500  -28.7263  -49.9914 H         1 UNK         0.0600 
    208 H208       -3.7281  -28.0656  -51.4199 H         1 UNK         0.0600 
    209 H209       -1.9947  -28.3441  -51.4246 H         1 UNK         0.0600 
    210 H210       -1.0414  -24.5707  -50.3392 H         1 UNK         0.3000 
    211 H211       -1.1196  -23.8656  -53.1311 H         1 UNK         0.0600 
    212 H212       -0.1135  -22.3305  -50.6700 H         1 UNK         0.0600 
    213 H213        0.1976  -21.8846  -52.3435 H         1 UNK         0.0600 
    214 H214        0.8510  -23.3842  -51.7018 H         1 UNK         0.0600 
    215 H215       -2.7843  -22.7489  -50.1995 H         1 UNK         0.3000 
    216 H216       -4.1834  -20.5232  -51.3833 H         1 UNK         0.0600 
    217 H217       -5.5576  -20.6915  -49.2690 H         1 UNK         0.0600 
    218 H218       -3.8311  -20.6734  -48.9402 H         1 UNK         0.0600 
    219 H219       -4.7354  -22.1844  -48.8668 H         1 UNK         0.0600 
    220 H220       -4.7996  -23.9873  -51.3035 H         1 UNK         0.3000 
    221 H221       -7.5974  -23.7624  -52.1809 H         1 UNK         0.0600 
    222 H222       -5.7556  -26.2011  -51.9268 H         1 UNK         0.0600 
    223 H223       -6.8992  -25.6442  -50.7063 H         1 UNK         0.0600 
    224 H224       -7.4815  -26.2345  -52.2550 H         1 UNK         0.0600 
    225 H225       -4.3739  -24.4724  -53.5428 H         1 UNK         0.3000 
    226 H226       -5.2200  -25.1996  -56.1384 H         1 UNK         0.0600 
    227 H227       -2.8041  -24.9476  -56.6974 H         1 UNK         0.0600 
    228 H228       -2.5215  -24.1268  -55.1678 H         1 UNK         0.0600 
    229 H229       -3.0189  -25.8183  -55.1866 H         1 UNK         0.0600 
    230 H230       -4.3086  -21.9509  -54.8173 H         1 UNK         0.3000 
    231 H231       -5.4545  -20.6491  -57.1745 H         1 UNK         0.0600 
    232 H232       -2.4562  -20.4550  -56.5121 H         1 UNK         0.0600 
    233 H233       -3.2880  -19.4614  -57.7020 H         1 UNK         0.0600 
    234 H234       -3.1386  -21.1882  -57.9620 H         1 UNK         0.0600 
    235 H235       -5.4036  -18.3646  -57.0338 H         1 UNK         0.3000 
    236 H236       -5.6765  -16.3633  -56.2587 H         1 UNK         0.0600 
    237 H237       -3.3314  -16.5022  -55.5100 H         1 UNK         0.0600 
    238 H238       -4.2692  -15.5041  -54.4094 H         1 UNK         0.0600 
    239 H239       -3.8297  -17.1392  -53.9441 H         1 UNK         0.0600 
    240 H240       -5.8758  -18.4129  -53.3215 H         1 UNK         0.3000 
    241 H241       -7.9435  -16.6443  -52.1919 H         1 UNK         0.0600 
    242 H242      -10.6771  -19.0020  -51.8704 H         1 UNK         0.3800 
    243 H243       -9.8416  -17.8090  -50.9197 H         1 UNK         0.3800 
    244 H244       -6.5341  -19.0353  -50.9191 H         1 UNK         0.0800 
    245 H245       -7.6163  -17.9370  -50.0966 H         1 UNK         0.0800 
    246 H246       -5.1799  -18.4670  -48.7370 H         1 UNK         0.0800 
    247 H247       -5.8298  -16.9530  -48.1596 H         1 UNK         0.0800 
@<TRIPOS>BOND
     1    1    2 1    
     2    1  127 1    
     3    1  128 1    
     4    1  129 1    
     5    2    3 2    
     6    2    4 am   BACKBONE|DICT|INTERRES
     7    4    5 1    
     8    4  130 1    
     9    5    6 1    
    10    5   65 1    
    11    5  131 1    
    12    6    7 1    
    13    6  132 1    
    14    6  133 1    
    15    7    8 1    
    16    8    9 1    
    17    8  134 1    
    18    8  135 1    
    19    9   10 ar   
    20    9   14 ar   
    21   10   11 ar   
    22   10  136 1    
    23   11   12 ar   
    24   11  126 1    
    25   12   13 ar   
    26   12  137 1    
    27   13   14 ar   
    28   13   15 1    
    29   14  138 1    
    30   15   16 1    
    31   15  139 1    
    32   15  140 1    
    33   16   17 1    
    34   17   18 1    
    35   17  141 1    
    36   17  142 1    
    37   18   19 1    
    38   18   67 1    
    39   18  143 1    
    40   19   20 am   BACKBONE|DICT|INTERRES
    41   19  144 1    
    42   20   21 2    
    43   20   22 1    
    44   22   23 1    
    45   22   24 1    
    46   22  145 1    
    47   23  146 1    
    48   23  147 1    
    49   23  148 1    
    50   24   25 am   BACKBONE|DICT|INTERRES
    51   24  149 1    
    52   25   26 2    
    53   25   27 1    
    54   27   28 1    
    55   27   29 1    
    56   27  150 1    
    57   28  151 1    
    58   28  152 1    
    59   28  153 1    
    60   29   30 am   BACKBONE|DICT|INTERRES
    61   29  154 1    
    62   30   31 2    
    63   30   32 1    
    64   32   33 1    
    65   32   34 1    
    66   32  155 1    
    67   33  156 1    
    68   33  157 1    
    69   33  158 1    
    70   34   35 am   BACKBONE|DICT|INTERRES
    71   34  159 1    
    72   35   36 2    
    73   35   37 1    
    74   37   38 1    
    75   37   39 1    
    76   37  160 1    
    77   38  161 1    
    78   38  162 1    
    79   38  163 1    
    80   39   40 am   BACKBONE|DICT|INTERRES
    81   39  164 1    
    82   40   41 2    
    83   40   42 1    
    84   42   43 1    
    85   42   44 1    
    86   42  165 1    
    87   43  166 1    
    88   43  167 1    
    89   43  168 1    
    90   44   45 am   BACKBONE|DICT|INTERRES
    91   44  169 1    
    92   45   46 2    
    93   45   47 1    
    94   47   48 1    
    95   47   49 1    
    96   47  170 1    
    97   48  171 1    
    98   48  172 1    
    99   48  173 1    
   100   49   50 am   BACKBONE|DICT|INTERRES
   101   49  174 1    
   102   50   51 2    
   103   50   52 1    
   104   52   53 1    
   105   52   54 1    
   106   52  175 1    
   107   53  176 1    
   108   53  177 1    
   109   53  178 1    
   110   54   55 am   BACKBONE|DICT|INTERRES
   111   54  179 1    
   112   55   56 2    
   113   55   57 1    
   114   57   58 1    
   115   57   59 1    
   116   57  180 1    
   117   58  181 1    
   118   58  182 1    
   119   58  183 1    
   120   59   60 am   BACKBONE|DICT|INTERRES
   121   59  184 1    
   122   60   61 2    
   123   60   62 1    
   124   62   63 1    
   125   62   64 1    
   126   62  185 1    
   127   63  186 1    
   128   63  187 1    
   129   63  188 1    
   130   64   65 am   BACKBONE|DICT|INTERRES
   131   64  189 1    
   132   65   66 2    
   133   67   68 2    
   134   67   69 am   BACKBONE|DICT|INTERRES
   135   69   70 1    
   136   69  190 1    
   137   70   71 1    
   138   70   72 1    
   139   70  191 1    
   140   71  192 1    
   141   71  193 1    
   142   71  194 1    
   143   72   73 2    
   144   72   74 am   BACKBONE|DICT|INTERRES
   145   74   75 1    
   146   74  195 1    
   147   75   76 1    
   148   75   77 1    
   149   75  196 1    
   150   76  197 1    
   151   76  198 1    
   152   76  199 1    
   153   77   78 2    
   154   77   79 am   BACKBONE|DICT|INTERRES
   155   79   80 1    
   156   79  200 1    
   157   80   81 1    
   158   80   82 1    
   159   80  201 1    
   160   81  202 1    
   161   81  203 1    
   162   81  204 1    
   163   82   83 2    
   164   82   84 am   BACKBONE|DICT|INTERRES
   165   84   85 1    
   166   84  205 1    
   167   85   86 1    
   168   85   87 1    
   169   85  206 1    
   170   86  207 1    
   171   86  208 1    
   172   86  209 1    
   173   87   88 2    
   174   87   89 am   BACKBONE|DICT|INTERRES
   175   89   90 1    
   176   89  210 1    
   177   90   91 1    
   178   90   92 1    
   179   90  211 1    
   180   91  212 1    
   181   91  213 1    
   182   91  214 1    
   183   92   93 2    
   184   92   94 am   BACKBONE|DICT|INTERRES
   185   94   95 1    
   186   94  215 1    
   187   95   96 1    
   188   95   97 1    
   189   95  216 1    
   190   96  217 1    
   191   96  218 1    
   192   96  219 1    
   193   97   98 2    
   194   97   99 am   BACKBONE|DICT|INTERRES
   195   99  100 1    
   196   99  220 1    
   197  100  101 1    
   198  100  102 1    
   199  100  221 1    
   200  101  222 1    
   201  101  223 1    
   202  101  224 1    
   203  102  103 2    
   204  102  104 am   BACKBONE|DICT|INTERRES
   205  104  105 1    
   206  104  225 1    
   207  105  106 1    
   208  105  107 1    
   209  105  226 1    
   210  106  227 1    
   211  106  228 1    
   212  106  229 1    
   213  107  108 2    
   214  107  109 am   BACKBONE|DICT|INTERRES
   215  109  110 1    
   216  109  230 1    
   217  110  111 1    
   218  110  112 1    
   219  110  231 1    
   220  111  232 1    
   221  111  233 1    
   222  111  234 1    
   223  112  113 2    
   224  112  114 am   BACKBONE|DICT|INTERRES
   225  114  115 1    
   226  114  235 1    
   227  115  116 1    
   228  115  117 1    
   229  115  236 1    
   230  116  237 1    
   231  116  238 1    
   232  116  239 1    
   233  117  118 2    
   234  117  119 am   BACKBONE|DICT|INTERRES
   235  119  120 1    
   236  119  240 1    
   237  120  121 1    
   238  120  124 1    
   239  120  241 1    
   240  121  122 am   BACKBONE|DICT|INTERRES
   241  121  123 2    
   242  122  242 1    
   243  122  243 1    
   244  124  125 1    
   245  124  244 1    
   246  124  245 1    
   247  125  126 1    
   248  126  246 1    
   249  126  247 1    
@<TRIPOS>SUBSTRUCTURE
     1 UNK         1 GROUP             0       ****    0 ROOT    
