@<TRIPOS>MOLECULE
3R540
247   249    1
SMALL
USER_CHARGES


@<TRIPOS>ATOM
      1 CA         -2.7904  -13.7250  -45.7033 C.3       0 UNK        -0.1800 
      2 C          -2.1869  -13.0963  -46.9508 C.2       0 UNK         0.5000 
      3 O          -2.8540  -12.3029  -47.6149 O.2       0 UNK        -0.5000 
      4 N          -0.9322  -13.4392  -47.2702 N.am      1 UNK        -0.5000 
      5 CA         -0.1919  -12.8855  -48.4145 C.3       1 UNK         0.1400 
      6 C6          0.9593  -13.8115  -48.8786 C.3       23 UNK        -0.0398 
      7 S7          0.3638  -15.4026  -49.5419 S.3       23 UNK        -0.2404 
      8 C8          1.6729  -16.5357  -48.9555 C.3       23 UNK        -0.0205 
      9 C9          1.5951  -17.9638  -49.5022 C.ar      23 UNK        -0.0193 
     10 C10         0.9888  -18.2634  -50.7302 C.ar      23 UNK        -0.1150 
     11 C11         1.0004  -19.5662  -51.2341 C.ar      23 UNK        -0.0193 
     12 C12         1.6058  -20.5834  -50.4937 C.ar      23 UNK        -0.1150 
     13 C13         2.2303  -20.3085  -49.2742 C.ar      23 UNK        -0.0193 
     14 C14         2.2216  -18.9934  -48.7889 C.ar      23 UNK        -0.1150 
     15 C15         2.9654  -21.4469  -48.5628 C.3       23 UNK        -0.0205 
     16 S16         3.1152  -21.3106  -46.7459 S.3       23 UNK        -0.2404 
     17 C17         1.3794  -21.1858  -46.2107 C.3       23 UNK        -0.0398 
     18 CA          0.6987  -22.5481  -45.9272 C.3       11 UNK         0.1400 
     19 N          -0.3863  -22.3981  -44.9544 N.am      11 UNK        -0.5000 
     20 C          -1.1611  -23.3807  -44.4746 C.2       10 UNK         0.5000 
     21 O          -1.0201  -24.5719  -44.7515 O.2       10 UNK        -0.5000 
     22 CA         -2.3226  -22.9422  -43.5667 C.3       10 UNK         0.1400 
     23 CB         -1.8431  -22.7433  -42.1208 C.3       10 UNK        -0.1800 
     24 N          -2.9535  -21.7119  -44.0477 N.am      10 UNK        -0.5000 
     25 C          -3.7087  -21.6316  -45.1522 C.2       9 UNK         0.5000 
     26 O          -3.9822  -22.5949  -45.8667 O.2       9 UNK        -0.5000 
     27 CA         -4.1955  -20.2274  -45.5539 C.3       9 UNK         0.1400 
     28 CB         -5.3804  -19.7850  -44.6829 C.3       9 UNK        -0.1800 
     29 N          -3.1346  -19.2217  -45.4837 N.am      9 UNK        -0.5000 
     30 C          -2.0262  -19.2444  -46.2366 C.2       8 UNK         0.5000 
     31 O          -1.7981  -20.1005  -47.0869 O.2       8 UNK        -0.5000 
     32 CA         -0.9806  -18.1459  -45.9865 C.3       8 UNK         0.1400 
     33 CB         -1.3360  -16.9155  -46.8249 C.3       8 UNK        -0.1800 
     34 N          -0.8190  -17.7496  -44.5846 N.am      8 UNK        -0.5000 
     35 C          -0.6199  -18.5669  -43.5388 C.2       7 UNK         0.5000 
     36 O          -0.5883  -19.7944  -43.6393 O.2       7 UNK        -0.5000 
     37 CA         -0.4165  -17.9241  -42.1489 C.3       7 UNK         0.1400 
     38 CB          0.7901  -18.5461  -41.4255 C.3       7 UNK        -0.1800 
     39 N          -0.2366  -16.4706  -42.1845 N.am      7 UNK        -0.5000 
     40 C          -1.2055  -15.5559  -42.3263 C.2       6 UNK         0.5000 
     41 O          -2.3970  -15.8401  -42.4443 O.2       6 UNK        -0.5000 
     42 CA         -0.7644  -14.0789  -42.3743 C.3       6 UNK         0.1400 
     43 CB         -1.0201  -13.3930  -41.0243 C.3       6 UNK        -0.1800 
     44 N           0.6442  -13.8994  -42.7336 N.am      6 UNK        -0.5000 
     45 C           1.1755  -14.1376  -43.9409 C.2       5 UNK         0.5000 
     46 O           0.5307  -14.5642  -44.9016 O.2       5 UNK        -0.5000 
     47 CA          2.6725  -13.8167  -44.0829 C.3       5 UNK         0.1400 
     48 CB          3.1442  -13.7697  -45.5468 C.3       5 UNK        -0.1800 
     49 N           2.9684  -12.5384  -43.4358 N.am      5 UNK        -0.5000 
     50 C           4.0062  -12.2968  -42.6235 C.2       4 UNK         0.5000 
     51 O           4.8197  -13.1604  -42.2927 O.2       4 UNK        -0.5000 
     52 CA          4.1916  -10.8556  -42.0997 C.3       4 UNK         0.1400 
     53 CB          5.5307  -10.2750  -42.5841 C.3       4 UNK        -0.1800 
     54 N           3.1220   -9.9478  -42.5180 N.am      4 UNK        -0.5000 
     55 C           1.9692   -9.7497  -41.8647 C.2       3 UNK         0.5000 
     56 O           1.6875  -10.2846  -40.7924 O.2       3 UNK        -0.5000 
     57 CA          0.9431   -8.8251  -42.5558 C.3       3 UNK         0.1400 
     58 CB          1.1280   -7.3722  -42.0926 C.3       3 UNK        -0.1800 
     59 N           1.0117   -8.8786  -44.0228 N.am      3 UNK        -0.5000 
     60 C           0.7636   -9.9816  -44.7399 C.2       2 UNK         0.5000 
     61 O           0.4106  -11.0488  -44.2316 O.2       2 UNK        -0.5000 
     62 CA          1.0118   -9.9121  -46.2538 C.3       2 UNK         0.1400 
     63 CB          2.5137   -9.7285  -46.5532 C.3       2 UNK        -0.1800 
     64 N           0.5321  -11.1662  -46.8211 N.am      2 UNK        -0.5000 
     65 C           0.3472  -11.4701  -48.1093 C.2       1 UNK         0.5000 
     66 O           0.5769  -10.6918  -49.0358 O.2       1 UNK        -0.5000 
     67 C           0.1997  -23.2044  -47.2310 C.2       11 UNK         0.5000 
     68 O           0.7561  -24.2122  -47.6684 O.2       11 UNK        -0.5000 
     69 N          -0.8667  -22.6343  -47.8058 N.am      12 UNK        -0.5000 
     70 CA         -1.5075  -23.1186  -49.0203 C.3       12 UNK         0.1400 
     71 CB         -2.4974  -22.0703  -49.5326 C.3       12 UNK        -0.1800 
     72 C          -2.1984  -24.4748  -48.8198 C.2       12 UNK         0.5000 
     73 O          -2.0949  -25.3228  -49.7022 O.2       12 UNK        -0.5000 
     74 N          -2.8454  -24.6875  -47.6636 N.am      13 UNK        -0.5000 
     75 CA         -3.4717  -25.9627  -47.3021 C.3       13 UNK         0.1400 
     76 CB         -4.2513  -25.8196  -45.9875 C.3       13 UNK        -0.1800 
     77 C          -2.4597  -27.1197  -47.2130 C.2       13 UNK         0.5000 
     78 O          -2.7430  -28.2091  -47.7115 O.2       13 UNK        -0.5000 
     79 N          -1.2749  -26.8498  -46.6453 N.am      14 UNK        -0.5000 
     80 CA         -0.1439  -27.7814  -46.6013 C.3       14 UNK         0.1400 
     81 CB          0.9432  -27.2186  -45.6736 C.3       14 UNK        -0.1800 
     82 C           0.4363  -28.1008  -47.9954 C.2       14 UNK         0.5000 
     83 O           0.9431  -29.2035  -48.2031 O.2       14 UNK        -0.5000 
     84 N           0.3191  -27.1494  -48.9311 N.am      15 UNK        -0.5000 
     85 CA          0.6833  -27.2939  -50.3423 C.3       15 UNK         0.1400 
     86 CB          1.0982  -25.9153  -50.8857 C.3       15 UNK        -0.1800 
     87 C          -0.4430  -27.9130  -51.2023 C.2       15 UNK         0.5000 
     88 O          -0.2467  -28.0798  -52.4068 O.2       15 UNK        -0.5000 
     89 N          -1.5914  -28.2361  -50.5853 N.am      16 UNK        -0.5000 
     90 CA         -2.8170  -28.7755  -51.1865 C.3       16 UNK         0.1400 
     91 CB         -2.5716  -30.1742  -51.7912 C.3       16 UNK        -0.1800 
     92 C          -3.5043  -27.7972  -52.1657 C.2       16 UNK         0.5000 
     93 O          -4.0890  -28.2263  -53.1626 O.2       16 UNK        -0.5000 
     94 N          -3.4335  -26.5000  -51.8519 N.am      17 UNK        -0.5000 
     95 CA         -4.0624  -25.3951  -52.5689 C.3       17 UNK         0.1400 
     96 CB         -2.9518  -24.5497  -53.2251 C.3       17 UNK        -0.1800 
     97 C          -4.9281  -24.5721  -51.5922 C.2       17 UNK         0.5000 
     98 O          -5.2807  -25.0548  -50.5131 O.2       17 UNK        -0.5000 
     99 N          -5.2539  -23.3377  -51.9852 N.am      18 UNK        -0.5000 
    100 CA        -5.9039  -22.3214  -51.1655 C.3       18 UNK         0.1400 
    101 CB        -7.4017  -22.2632  -51.5030 C.3       18 UNK        -0.1800 
    102 C         -5.2210  -20.9867  -51.4828 C.2       18 UNK         0.5000 
    103 O         -4.8164  -20.7816  -52.6296 O.2       18 UNK        -0.5000 
    104 N         -5.1049  -20.1021  -50.4837 N.am      19 UNK        -0.5000 
    105 CA        -4.3735  -18.8319  -50.5836 C.3       19 UNK         0.1400 
    106 CB        -4.3434  -18.1506  -49.2080 C.3       19 UNK        -0.1800 
    107 C         -4.9387  -17.8774  -51.6513 C.2       19 UNK         0.5000 
    108 O         -4.1734  -17.2081  -52.3454 O.2       19 UNK        -0.5000 
    109 N         -6.2704  -17.8765  -51.7961 N.am      20 UNK        -0.5000 
    110 CA        -6.9967  -17.1184  -52.8151 C.3       20 UNK         0.1400 
    111 CB        -8.4922  -17.1216  -52.4625 C.3       20 UNK        -0.1800 
    112 C         -6.7799  -17.6511  -54.2460 C.2       20 UNK         0.5000 
    113 O         -6.9554  -16.8919  -55.1999 O.2       20 UNK        -0.5000 
    114 N         -6.4130  -18.9337  -54.3735 N.am      21 UNK        -0.5000 
    115 CA        -6.1147  -19.5831  -55.6458 C.3       21 UNK         0.1400 
    116 CB        -6.5348  -21.0615  -55.5847 C.3       21 UNK        -0.1800 
    117 C         -4.6264  -19.4447  -56.0021 C.2       21 UNK         0.5000 
    118 O         -4.3146  -19.0843  -57.1383 O.2       21 UNK        -0.5000 
    119 N         -3.7373  -19.7398  -55.0422 N.am      22 UNK        -0.5000 
    120 CA        -2.2808  -19.7111  -55.2469 C.3       22 UNK         0.1400 
    121 C         -1.6381  -18.2943  -55.2095 C.2       22 UNK         0.5000 
    122 N         -2.2592  -17.2935  -54.5975 N.am      22 UNK        -0.7600 
    123 O         -0.5614  -18.0964  -55.7660 O.2       22 UNK        -0.5000 
    124 C124       -1.5381  -20.7505  -54.3645 C.3       23 UNK        -0.0398 
    125 S125       -1.3162  -20.3123  -52.6015 S.3       23 UNK        -0.2404 
    126 C126        0.4465  -19.8608  -52.6196 C.3       23 UNK        -0.0205 
    127 H127       -2.1169  -14.4485  -45.2467 H         1 UNK         0.0600 
    128 H128       -3.7183  -14.2393  -45.9529 H         1 UNK         0.0600 
    129 H129       -3.0137  -12.9542  -44.9660 H         1 UNK         0.0600 
    130 H130       -0.4154  -14.0621  -46.6577 H         1 UNK         0.3000 
    131 H131       -0.8845  -12.7800  -49.2525 H         1 UNK         0.0600 
    132 H132        1.5437  -13.3344  -49.6677 H         1 UNK         0.0800 
    133 H133        1.6506  -13.9965  -48.0567 H         1 UNK         0.0800 
    134 H134        1.6421  -16.5588  -47.8650 H         1 UNK         0.0800 
    135 H135        2.6437  -16.1223  -49.2319 H         1 UNK         0.0800 
    136 H136        0.5355  -17.4812  -51.3216 H         1 UNK         0.1150 
    137 H137        1.6273  -21.5882  -50.8924 H         1 UNK         0.1150 
    138 H138        2.7260  -18.7604  -47.8621 H         1 UNK         0.1150 
    139 H139        2.4933  -22.4006  -48.8003 H         1 UNK         0.0800 
    140 H140        3.9724  -21.5033  -48.9777 H         1 UNK         0.0800 
    141 H141        0.8107  -20.5941  -46.9266 H         1 UNK         0.0800 
    142 H142        1.4012  -20.5906  -45.2971 H         1 UNK         0.0800 
    143 H143        1.4302  -23.2199  -45.4734 H         1 UNK         0.0600 
    144 H144       -0.5674  -21.4546  -44.6237 H         1 UNK         0.3000 
    145 H145       -3.0716  -23.7365  -43.5693 H         1 UNK         0.0600 
    146 H146       -2.6725  -22.4836  -41.4630 H         1 UNK         0.0600 
    147 H147       -1.3935  -23.6577  -41.7315 H         1 UNK         0.0600 
    148 H148       -1.0953  -21.9531  -42.0456 H         1 UNK         0.0600 
    149 H149       -2.7063  -20.8593  -43.5657 H         1 UNK         0.3000 
    150 H150       -4.5382  -20.2825  -46.5892 H         1 UNK         0.0600 
    151 H151       -6.1897  -20.5153  -44.7254 H         1 UNK         0.0600 
    152 H152       -5.7856  -18.8324  -45.0246 H         1 UNK         0.0600 
    153 H153       -5.0940  -19.6721  -43.6366 H         1 UNK         0.0600 
    154 H154       -3.2414  -18.4843  -44.8026 H         1 UNK         0.3000 
    155 H155       -0.0141  -18.5171  -46.3284 H         1 UNK         0.0600 
    156 H156       -2.2911  -16.4847  -46.5252 H         1 UNK         0.0600 
    157 H157       -1.4136  -17.1753  -47.8816 H         1 UNK         0.0600 
    158 H158       -0.5694  -16.1490  -46.7350 H         1 UNK         0.0600 
    159 H159       -0.8056  -16.7558  -44.4054 H         1 UNK         0.3000 
    160 H160       -1.3112  -18.1477  -41.5645 H         1 UNK         0.0600 
    161 H161        1.7167  -18.3832  -41.9773 H         1 UNK         0.0600 
    162 H162        0.6659  -19.6230  -41.3031 H         1 UNK         0.0600 
    163 H163        0.9134  -18.1232  -40.4283 H         1 UNK         0.0600 
    164 H164        0.7131  -16.1375  -42.1092 H         1 UNK         0.3000 
    165 H165       -1.3703  -13.5742  -43.1281 H         1 UNK         0.0600 
    166 H166       -0.7737  -12.3316  -41.0700 H         1 UNK         0.0600 
    167 H167       -2.0700  -13.4701  -40.7387 H         1 UNK         0.0600 
    168 H168       -0.4278  -13.8416  -40.2258 H         1 UNK         0.0600 
    169 H169        1.2451  -13.5218  -42.0154 H         1 UNK         0.3000 
    170 H170        3.2031  -14.6282  -43.5812 H         1 UNK         0.0600 
    171 H171        2.9564  -14.7182  -46.0515 H         1 UNK         0.0600 
    172 H172        2.6336  -12.9861  -46.1052 H         1 UNK         0.0600 
    173 H173        4.2154  -13.5779  -45.6078 H         1 UNK         0.0600 
    174 H174        2.2918  -11.8027  -43.6029 H         1 UNK         0.3000 
    175 H175        4.2180  -10.9065  -41.0092 H         1 UNK         0.0600 
    176 H176        5.5743  -10.2179  -43.6725 H         1 UNK         0.0600 
    177 H177        5.6917   -9.2721  -42.1882 H         1 UNK         0.0600 
    178 H178        6.3690  -10.8897  -42.2537 H         1 UNK         0.0600 
    179 H179        3.2643   -9.4603  -43.3902 H         1 UNK         0.3000 
    180 H180       -0.0526   -9.1565  -42.2533 H         1 UNK         0.0600 
    181 H181        2.0999   -6.9752  -42.3883 H         1 UNK         0.0600 
    182 H182        1.0593   -7.2971  -41.0064 H         1 UNK         0.0600 
    183 H183        0.3580   -6.7237  -42.5108 H         1 UNK         0.0600 
    184 H184        1.2969   -8.0324  -44.4952 H         1 UNK         0.3000 
    185 H185        0.4361   -9.0833  -46.6698 H         1 UNK         0.0600 
    186 H186        2.7089   -9.7057  -47.6251 H         1 UNK         0.0600 
    187 H187        2.8869   -8.7890  -46.1447 H         1 UNK         0.0600 
    188 H188        3.1114  -10.5336  -46.1240 H         1 UNK         0.0600 
    189 H189        0.2625  -11.8409  -46.1140 H         1 UNK         0.3000 
    190 H190       -1.2533  -21.7796  -47.4080 H         1 UNK         0.3000 
    191 H191       -0.7312  -23.2434  -49.7781 H         1 UNK         0.0600 
    192 H192       -3.3271  -21.9237  -48.8401 H         1 UNK         0.0600 
    193 H193       -2.9060  -22.3776  -50.4941 H         1 UNK         0.0600 
    194 H194       -2.0106  -21.1062  -49.6821 H         1 UNK         0.0600 
    195 H195       -2.9380  -23.9287  -46.9965 H         1 UNK         0.3000 
    196 H196       -4.1855  -26.2116  -48.0904 H         1 UNK         0.0600 
    197 H197       -4.7219  -26.7629  -45.7077 H         1 UNK         0.0600 
    198 H198       -5.0448  -25.0781  -46.0794 H         1 UNK         0.0600 
    199 H199       -3.6026  -25.5198  -45.1649 H         1 UNK         0.0600 
    200 H200       -1.1309  -25.9389  -46.2189 H         1 UNK         0.3000 
    201 H201       -0.5017  -28.7198  -46.1729 H         1 UNK         0.0600 
    202 H202        0.5576  -27.0590  -44.6665 H         1 UNK         0.0600 
    203 H203        1.3303  -26.2665  -46.0370 H         1 UNK         0.0600 
    204 H204        1.7852  -27.9074  -45.5947 H         1 UNK         0.0600 
    205 H205       -0.0986  -26.2661  -48.6674 H         1 UNK         0.3000 
    206 H206        1.5477  -27.9565  -50.4184 H         1 UNK         0.0600 
    207 H207        1.8808  -25.4671  -50.2730 H         1 UNK         0.0600 
    208 H208        1.4874  -25.9962  -51.9012 H         1 UNK         0.0600 
    209 H209        0.2583  -25.2218  -50.9145 H         1 UNK         0.0600 
    210 H210       -1.6589  -28.0385  -49.5946 H         1 UNK         0.3000 
    211 H211       -3.5178  -28.9018  -50.3603 H         1 UNK         0.0600 
    212 H212       -1.9358  -30.1297  -52.6756 H         1 UNK         0.0600 
    213 H213       -3.5112  -30.6405  -52.0893 H         1 UNK         0.0600 
    214 H214       -2.0969  -30.8380  -51.0686 H         1 UNK         0.0600 
    215 H215       -2.9546  -26.2265  -50.9944 H         1 UNK         0.3000 
    216 H216       -4.7269  -25.7733  -53.3479 H         1 UNK         0.0600 
    217 H217       -3.3651  -23.7848  -53.8829 H         1 UNK         0.0600 
    218 H218       -2.2961  -25.1713  -53.8353 H         1 UNK         0.0600 
    219 H219       -2.3321  -24.0504  -52.4785 H         1 UNK         0.0600 
    220 H220       -4.8881  -22.9808  -52.8584 H         1 UNK         0.3000 
    221 H221       -5.7702  -22.5443  -50.1046 H         1 UNK         0.0600 
    222 H222       -7.5693  -22.0239  -52.5542 H         1 UNK         0.0600 
    223 H223       -7.8871  -23.2172  -51.2965 H         1 UNK         0.0600 
    224 H224       -7.9088  -21.5039  -50.9066 H         1 UNK         0.0600 
    225 H225       -5.4806  -20.3325  -49.5758 H         1 UNK         0.3000 
    226 H226       -3.3449  -19.0637  -50.8646 H         1 UNK         0.0600 
    227 H227       -3.8626  -18.7899  -48.4700 H         1 UNK         0.0600 
    228 H228       -3.7779  -17.2184  -49.2451 H         1 UNK         0.0600 
    229 H229       -5.3459  -17.9157  -48.8489 H         1 UNK         0.0600 
    230 H230       -6.8203  -18.4638  -51.1867 H         1 UNK         0.3000 
    231 H231       -6.6407  -16.0862  -52.7909 H         1 UNK         0.0600 
    232 H232       -8.6676  -16.6808  -51.4810 H         1 UNK         0.0600 
    233 H233       -8.9019  -18.1325  -52.4563 H         1 UNK         0.0600 
    234 H234       -9.0654  -16.5396  -53.1855 H         1 UNK         0.0600 
    235 H235       -6.2164  -19.4717  -53.5399 H         1 UNK         0.3000 
    236 H236       -6.6960  -19.1117  -56.4414 H         1 UNK         0.0600 
    237 H237       -6.3597  -21.5533  -56.5423 H         1 UNK         0.0600 
    238 H238       -5.9810  -21.6170  -54.8284 H         1 UNK         0.0600 
    239 H239       -7.5968  -21.1591  -55.3592 H         1 UNK         0.0600 
    240 H240       -4.0640  -20.0389  -54.1262 H         1 UNK         0.3000 
    241 H241       -2.1158  -20.0540  -56.2706 H         1 UNK         0.0600 
    242 H242       -1.8319  -16.3819  -54.5920 H         1 UNK         0.3800 
    243 H243       -3.0958  -17.4502  -54.0468 H         1 UNK         0.3800 
    244 H244       -0.5616  -20.9582  -54.8044 H         1 UNK         0.0800 
    245 H245       -2.0685  -21.7023  -54.4026 H         1 UNK         0.0800 
    246 H246        0.5884  -18.9920  -53.2639 H         1 UNK         0.0800 
    247 H247        1.0213  -20.6703  -53.0722 H         1 UNK         0.0800 
@<TRIPOS>BOND
     1    1    2 1    
     2    1  127 1    
     3    1  128 1    
     4    1  129 1    
     5    2    3 2    
     6    2    4 am   BACKBONE|DICT|INTERRES
     7    4    5 1    
     8    4  130 1    
     9    5    6 1    
    10    5   65 1    
    11    5  131 1    
    12    6    7 1    
    13    6  132 1    
    14    6  133 1    
    15    7    8 1    
    16    8    9 1    
    17    8  134 1    
    18    8  135 1    
    19    9   10 ar   
    20    9   14 ar   
    21   10   11 ar   
    22   10  136 1    
    23   11   12 ar   
    24   11  126 1    
    25   12   13 ar   
    26   12  137 1    
    27   13   14 ar   
    28   13   15 1    
    29   14  138 1    
    30   15   16 1    
    31   15  139 1    
    32   15  140 1    
    33   16   17 1    
    34   17   18 1    
    35   17  141 1    
    36   17  142 1    
    37   18   19 1    
    38   18   67 1    
    39   18  143 1    
    40   19   20 am   BACKBONE|DICT|INTERRES
    41   19  144 1    
    42   20   21 2    
    43   20   22 1    
    44   22   23 1    
    45   22   24 1    
    46   22  145 1    
    47   23  146 1    
    48   23  147 1    
    49   23  148 1    
    50   24   25 am   BACKBONE|DICT|INTERRES
    51   24  149 1    
    52   25   26 2    
    53   25   27 1    
    54   27   28 1    
    55   27   29 1    
    56   27  150 1    
    57   28  151 1    
    58   28  152 1    
    59   28  153 1    
    60   29   30 am   BACKBONE|DICT|INTERRES
    61   29  154 1    
    62   30   31 2    
    63   30   32 1    
    64   32   33 1    
    65   32   34 1    
    66   32  155 1    
    67   33  156 1    
    68   33  157 1    
    69   33  158 1    
    70   34   35 am   BACKBONE|DICT|INTERRES
    71   34  159 1    
    72   35   36 2    
    73   35   37 1    
    74   37   38 1    
    75   37   39 1    
    76   37  160 1    
    77   38  161 1    
    78   38  162 1    
    79   38  163 1    
    80   39   40 am   BACKBONE|DICT|INTERRES
    81   39  164 1    
    82   40   41 2    
    83   40   42 1    
    84   42   43 1    
    85   42   44 1    
    86   42  165 1    
    87   43  166 1    
    88   43  167 1    
    89   43  168 1    
    90   44   45 am   BACKBONE|DICT|INTERRES
    91   44  169 1    
    92   45   46 2    
    93   45   47 1    
    94   47   48 1    
    95   47   49 1    
    96   47  170 1    
    97   48  171 1    
    98   48  172 1    
    99   48  173 1    
   100   49   50 am   BACKBONE|DICT|INTERRES
   101   49  174 1    
   102   50   51 2    
   103   50   52 1    
   104   52   53 1    
   105   52   54 1    
   106   52  175 1    
   107   53  176 1    
   108   53  177 1    
   109   53  178 1    
   110   54   55 am   BACKBONE|DICT|INTERRES
   111   54  179 1    
   112   55   56 2    
   113   55   57 1    
   114   57   58 1    
   115   57   59 1    
   116   57  180 1    
   117   58  181 1    
   118   58  182 1    
   119   58  183 1    
   120   59   60 am   BACKBONE|DICT|INTERRES
   121   59  184 1    
   122   60   61 2    
   123   60   62 1    
   124   62   63 1    
   125   62   64 1    
   126   62  185 1    
   127   63  186 1    
   128   63  187 1    
   129   63  188 1    
   130   64   65 am   BACKBONE|DICT|INTERRES
   131   64  189 1    
   132   65   66 2    
   133   67   68 2    
   134   67   69 am   BACKBONE|DICT|INTERRES
   135   69   70 1    
   136   69  190 1    
   137   70   71 1    
   138   70   72 1    
   139   70  191 1    
   140   71  192 1    
   141   71  193 1    
   142   71  194 1    
   143   72   73 2    
   144   72   74 am   BACKBONE|DICT|INTERRES
   145   74   75 1    
   146   74  195 1    
   147   75   76 1    
   148   75   77 1    
   149   75  196 1    
   150   76  197 1    
   151   76  198 1    
   152   76  199 1    
   153   77   78 2    
   154   77   79 am   BACKBONE|DICT|INTERRES
   155   79   80 1    
   156   79  200 1    
   157   80   81 1    
   158   80   82 1    
   159   80  201 1    
   160   81  202 1    
   161   81  203 1    
   162   81  204 1    
   163   82   83 2    
   164   82   84 am   BACKBONE|DICT|INTERRES
   165   84   85 1    
   166   84  205 1    
   167   85   86 1    
   168   85   87 1    
   169   85  206 1    
   170   86  207 1    
   171   86  208 1    
   172   86  209 1    
   173   87   88 2    
   174   87   89 am   BACKBONE|DICT|INTERRES
   175   89   90 1    
   176   89  210 1    
   177   90   91 1    
   178   90   92 1    
   179   90  211 1    
   180   91  212 1    
   181   91  213 1    
   182   91  214 1    
   183   92   93 2    
   184   92   94 am   BACKBONE|DICT|INTERRES
   185   94   95 1    
   186   94  215 1    
   187   95   96 1    
   188   95   97 1    
   189   95  216 1    
   190   96  217 1    
   191   96  218 1    
   192   96  219 1    
   193   97   98 2    
   194   97   99 am   BACKBONE|DICT|INTERRES
   195   99  100 1    
   196   99  220 1    
   197  100  101 1    
   198  100  102 1    
   199  100  221 1    
   200  101  222 1    
   201  101  223 1    
   202  101  224 1    
   203  102  103 2    
   204  102  104 am   BACKBONE|DICT|INTERRES
   205  104  105 1    
   206  104  225 1    
   207  105  106 1    
   208  105  107 1    
   209  105  226 1    
   210  106  227 1    
   211  106  228 1    
   212  106  229 1    
   213  107  108 2    
   214  107  109 am   BACKBONE|DICT|INTERRES
   215  109  110 1    
   216  109  230 1    
   217  110  111 1    
   218  110  112 1    
   219  110  231 1    
   220  111  232 1    
   221  111  233 1    
   222  111  234 1    
   223  112  113 2    
   224  112  114 am   BACKBONE|DICT|INTERRES
   225  114  115 1    
   226  114  235 1    
   227  115  116 1    
   228  115  117 1    
   229  115  236 1    
   230  116  237 1    
   231  116  238 1    
   232  116  239 1    
   233  117  118 2    
   234  117  119 am   BACKBONE|DICT|INTERRES
   235  119  120 1    
   236  119  240 1    
   237  120  121 1    
   238  120  124 1    
   239  120  241 1    
   240  121  122 am   BACKBONE|DICT|INTERRES
   241  121  123 2    
   242  122  242 1    
   243  122  243 1    
   244  124  125 1    
   245  124  244 1    
   246  124  245 1    
   247  125  126 1    
   248  126  246 1    
   249  126  247 1    
@<TRIPOS>SUBSTRUCTURE
     1 UNK         1 GROUP             0       ****    0 ROOT    
