@<TRIPOS>MOLECULE
3R540
247   249    1
SMALL
USER_CHARGES


@<TRIPOS>ATOM
      1 CA         -2.7013  -11.0494  -48.2002 C.3       0 UNK        -0.1800 
      2 C          -1.5753  -12.0349  -47.9226 C.2       0 UNK         0.5000 
      3 O          -1.6005  -12.7063  -46.8924 O.2       0 UNK        -0.5000 
      4 N          -0.5821  -12.0895  -48.8239 N.am      1 UNK        -0.5000 
      5 CA          0.5790  -12.9996  -48.8735 C.3       1 UNK         0.1400 
      6 C6          0.2631  -14.3717  -49.5359 C.3       23 UNK        -0.0398 
      7 S7         -0.8253  -15.4852  -48.5808 S.3       23 UNK        -0.2404 
      8 C8         -1.4522  -16.5882  -49.8930 C.3       23 UNK        -0.0205 
      9 C9         -0.3741  -17.4152  -50.5935 C.ar      23 UNK        -0.0193 
     10 C10        -0.4949  -17.6641  -51.9647 C.ar      23 UNK        -0.1150 
     11 C11         0.4844  -18.3872  -52.6507 C.ar      23 UNK        -0.0193 
     12 C12         1.5991  -18.8586  -51.9550 C.ar      23 UNK        -0.1150 
     13 C13         1.7260  -18.6413  -50.5815 C.ar      23 UNK        -0.0193 
     14 C14         0.7306  -17.9319  -49.9017 C.ar      23 UNK        -0.1150 
     15 C15         2.9641  -19.1456  -49.8570 C.3       23 UNK        -0.0205 
     16 S16         2.7780  -20.8717  -49.3107 S.3       23 UNK        -0.2404 
     17 C17         2.1303  -20.6409  -47.6243 C.3       23 UNK        -0.0398 
     18 CA          0.9891  -21.6205  -47.2625 C.3       11 UNK         0.1400 
     19 N           0.8806  -21.7947  -45.8114 N.am      11 UNK        -0.5000 
     20 C           0.0804  -22.6743  -45.1935 C.2       10 UNK         0.5000 
     21 O          -0.6141  -23.5014  -45.7841 O.2       10 UNK        -0.5000 
     22 CA          0.0026  -22.5726  -43.6581 C.3       10 UNK         0.1400 
     23 CB          1.1775  -23.3065  -42.9953 C.3       10 UNK        -0.1800 
     24 N          -0.0377  -21.1843  -43.1934 N.am      10 UNK        -0.5000 
     25 C          -1.0371  -20.3296  -43.4578 C.2       9 UNK         0.5000 
     26 O          -2.0621  -20.6463  -44.0598 O.2       9 UNK        -0.5000 
     27 CA         -0.8370  -18.8665  -43.0247 C.3       9 UNK         0.1400 
     28 CB         -1.1416  -18.7019  -41.5284 C.3       9 UNK        -0.1800 
     29 N           0.5125  -18.3812  -43.3174 N.am      9 UNK        -0.5000 
     30 C           1.0353  -18.2740  -44.5471 C.2       8 UNK         0.5000 
     31 O           0.4035  -18.5028  -45.5750 O.2       8 UNK        -0.5000 
     32 CA          2.5254  -17.9088  -44.6538 C.3       8 UNK         0.1400 
     33 CB          2.7295  -16.3923  -44.6466 C.3       8 UNK        -0.1800 
     34 N           3.3188  -18.5106  -43.5861 N.am      8 UNK        -0.5000 
     35 C           3.5952  -19.8177  -43.4998 C.2       7 UNK         0.5000 
     36 O           3.2353  -20.6485  -44.3339 O.2       7 UNK        -0.5000 
     37 CA          4.3631  -20.2706  -42.2455 C.3       7 UNK         0.1400 
     38 CB          5.8711  -20.0335  -42.4149 C.3       7 UNK        -0.1800 
     39 N           3.8947  -19.5918  -41.0351 N.am      7 UNK        -0.5000 
     40 C           2.6818  -19.7770  -40.4961 C.2       6 UNK         0.5000 
     41 O           1.8479  -20.5615  -40.9494 O.2       6 UNK        -0.5000 
     42 CA          2.3282  -18.9157  -39.2687 C.3       6 UNK         0.1400 
     43 CB          2.8455  -19.5751  -37.9816 C.3       6 UNK        -0.1800 
     44 N           2.8210  -17.5348  -39.3396 N.am      6 UNK        -0.5000 
     45 C           2.4584  -16.6442  -40.2722 C.2       5 UNK         0.5000 
     46 O           1.7548  -16.9238  -41.2436 O.2       5 UNK        -0.5000 
     47 CA          2.9928  -15.2106  -40.1171 C.3       5 UNK         0.1400 
     48 CB          4.2335  -15.0000  -40.9982 C.3       5 UNK        -0.1800 
     49 N           1.9643  -14.2445  -40.5003 N.am      5 UNK        -0.5000 
     50 C           0.9301  -13.8897  -39.7215 C.2       4 UNK         0.5000 
     51 O           0.8085  -14.2450  -38.5483 O.2       4 UNK        -0.5000 
     52 CA         -0.1596  -12.9993  -40.3564 C.3       4 UNK         0.1400 
     53 CB          0.1461  -11.5137  -40.1132 C.3       4 UNK        -0.1800 
     54 N          -0.2846  -13.2310  -41.7941 N.am      4 UNK        -0.5000 
     55 C          -0.8011  -14.3371  -42.3428 C.2       3 UNK         0.5000 
     56 O          -1.4564  -15.1557  -41.6984 O.2       3 UNK        -0.5000 
     57 CA         -0.5295  -14.5959  -43.8437 C.3       3 UNK         0.1400 
     58 CB         -1.8148  -14.9935  -44.5879 C.3       3 UNK        -0.1800 
     59 N           0.1418  -13.5179  -44.5876 N.am      3 UNK        -0.5000 
     60 C           1.3842  -13.0491  -44.3815 C.2       2 UNK         0.5000 
     61 O           2.0851  -13.3975  -43.4297 O.2       2 UNK        -0.5000 
     62 CA          1.9158  -11.9856  -45.3691 C.3       2 UNK         0.1400 
     63 CB          3.4573  -11.9569  -45.4393 C.3       2 UNK        -0.1800 
     64 N           1.3264  -12.0823  -46.7094 N.am      2 UNK        -0.5000 
     65 C           1.4188  -13.1056  -47.5736 C.2       1 UNK         0.5000 
     66 O           2.1390  -14.0874  -47.3897 O.2       1 UNK        -0.5000 
     67 C          -0.3585  -21.1990  -47.8872 C.2       11 UNK         0.5000 
     68 O          -0.8020  -21.8178  -48.8536 O.2       11 UNK        -0.5000 
     69 N          -1.0154  -20.1992  -47.2820 N.am      12 UNK        -0.5000 
     70 CA         -2.3378  -19.7106  -47.6657 C.3       12 UNK         0.1400 
     71 CB         -2.6914  -18.4637  -46.8414 C.3       12 UNK        -0.1800 
     72 C          -3.4362  -20.7763  -47.5292 C.2       12 UNK         0.5000 
     73 O          -4.2912  -20.8685  -48.4086 O.2       12 UNK        -0.5000 
     74 N          -3.3822  -21.5778  -46.4568 N.am      13 UNK        -0.5000 
     75 CA         -4.2778  -22.7105  -46.2258 C.3       13 UNK         0.1400 
     76 CB         -4.0726  -23.2599  -44.8062 C.3       13 UNK        -0.1800 
     77 C          -4.1043  -23.8179  -47.2804 C.2       13 UNK         0.5000 
     78 O          -5.1030  -24.3054  -47.8100 O.2       13 UNK        -0.5000 
     79 N          -2.8481  -24.1575  -47.6058 N.am      14 UNK        -0.5000 
     80 CA         -2.4899  -25.1149  -48.6568 C.3       14 UNK         0.1400 
     81 CB         -0.9808  -25.3977  -48.6025 C.3       14 UNK        -0.1800 
     82 C          -2.9117  -24.6456  -50.0633 C.2       14 UNK         0.5000 
     83 O          -3.3943  -25.4539  -50.8562 O.2       14 UNK        -0.5000 
     84 N          -2.7655  -23.3404  -50.3240 N.am      15 UNK        -0.5000 
     85 CA         -3.2051  -22.6633  -51.5443 C.3       15 UNK         0.1400 
     86 CB         -2.4858  -21.3074  -51.6293 C.3       15 UNK        -0.1800 
     87 C          -4.7309  -22.4512  -51.6245 C.2       15 UNK         0.5000 
     88 O          -5.2148  -21.9990  -52.6621 O.2       15 UNK        -0.5000 
     89 N          -5.4596  -22.7182  -50.5299 N.am      16 UNK        -0.5000 
     90 CA         -6.8945  -22.4802  -50.3399 C.3       16 UNK         0.1400 
     91 CB         -7.7217  -23.4407  -51.2200 C.3       16 UNK        -0.1800 
     92 C          -7.2679  -20.9971  -50.5503 C.2       16 UNK         0.5000 
     93 O          -8.2174  -20.6924  -51.2709 O.2       16 UNK        -0.5000 
     94 N          -6.4621  -20.0972  -49.9673 N.am      17 UNK        -0.5000 
     95 CA         -6.4999  -18.6381  -50.1307 C.3       17 UNK         0.1400 
     96 CB         -7.7860  -18.0463  -49.5178 C.3       17 UNK        -0.1800 
     97 C          -6.2630  -18.1970  -51.5933 C.2       17 UNK         0.5000 
     98 O          -6.8520  -17.2171  -52.0515 O.2       17 UNK        -0.5000 
     99 N          -5.4054  -18.9544  -52.2931 N.am      18 UNK        -0.5000 
    100 CA        -5.0338  -18.8399  -53.7072 C.3       18 UNK         0.1400 
    101 CB        -4.4036  -17.4661  -54.0173 C.3       18 UNK        -0.1800 
    102 C         -6.1626  -19.2236  -54.6888 C.2       18 UNK         0.5000 
    103 O         -6.0676  -18.8962  -55.8732 O.2       18 UNK        -0.5000 
    104 N         -7.1959  -19.9328  -54.2083 N.am      19 UNK        -0.5000 
    105 CA        -8.2375  -20.5284  -55.0495 C.3       19 UNK         0.1400 
    106 CB        -9.4988  -20.7825  -54.2111 C.3       19 UNK        -0.1800 
    107 C         -7.7672  -21.8348  -55.7185 C.2       19 UNK         0.5000 
    108 O         -8.2986  -22.1981  -56.7690 O.2       19 UNK        -0.5000 
    109 N         -6.7847  -22.5083  -55.1087 N.am      20 UNK        -0.5000 
    110 CA        -6.1015  -23.6854  -55.6338 C.3       20 UNK         0.1400 
    111 CB        -6.1681  -24.7999  -54.5736 C.3       20 UNK        -0.1800 
    112 C         -4.6438  -23.3214  -55.9694 C.2       20 UNK         0.5000 
    113 O         -4.2143  -22.1855  -55.7482 O.2       20 UNK        -0.5000 
    114 N         -3.8995  -24.2967  -56.5054 N.am      21 UNK        -0.5000 
    115 CA        -2.4627  -24.1860  -56.7560 C.3       21 UNK         0.1400 
    116 CB        -1.9978  -25.3960  -57.5808 C.3       21 UNK        -0.1800 
    117 C         -1.6776  -24.0909  -55.4342 C.2       21 UNK         0.5000 
    118 O         -1.9625  -24.8443  -54.5006 O.2       21 UNK        -0.5000 
    119 N         -0.7076  -23.1733  -55.3850 N.am      22 UNK        -0.5000 
    120 CA         0.0950  -22.8732  -54.1868 C.3       22 UNK         0.1400 
    121 C          1.2083  -23.9154  -53.8668 C.2       22 UNK         0.5000 
    122 N          1.4913  -24.8799  -54.7340 N.am      22 UNK        -0.7600 
    123 O          1.8254  -23.8509  -52.8079 O.2       22 UNK        -0.5000 
    124 C124        0.6809  -21.4384  -54.2314 C.3       23 UNK        -0.0398 
    125 S125       -0.5809  -20.1473  -54.5186 S.3       23 UNK        -0.2404 
    126 C126        0.3530  -18.6297  -54.1475 C.3       23 UNK        -0.0205 
    127 H127       -3.6515  -11.5788  -48.2694 H         1 UNK         0.0600 
    128 H128       -2.5462  -10.5056  -49.1323 H         1 UNK         0.0600 
    129 H129       -2.7727  -10.3237  -47.3900 H         1 UNK         0.0600 
    130 H130       -0.6417  -11.4634  -49.6150 H         1 UNK         0.3000 
    131 H131        1.2608  -12.5004  -49.5636 H         1 UNK         0.0600 
    132 H132       -0.1969  -14.1967  -50.5092 H         1 UNK         0.0800 
    133 H133        1.1894  -14.9082  -49.7481 H         1 UNK         0.0800 
    134 H134       -2.1912  -17.2618  -49.4635 H         1 UNK         0.0800 
    135 H135       -1.9899  -15.9768  -50.6193 H         1 UNK         0.0800 
    136 H136       -1.3495  -17.2852  -52.5065 H         1 UNK         0.1150 
    137 H137        2.3737  -19.3970  -52.4825 H         1 UNK         0.1150 
    138 H138        0.8291  -17.7614  -48.8389 H         1 UNK         0.1150 
    139 H139        3.8229  -19.0885  -50.5277 H         1 UNK         0.0800 
    140 H140        3.2073  -18.4988  -49.0126 H         1 UNK         0.0800 
    141 H141        1.8194  -19.6070  -47.4758 H         1 UNK         0.0800 
    142 H142        2.9776  -20.7943  -46.9555 H         1 UNK         0.0800 
    143 H143        1.2423  -22.6025  -47.6681 H         1 UNK         0.0600 
    144 H144        1.4567  -21.1875  -45.2392 H         1 UNK         0.3000 
    145 H145       -0.9221  -23.0582  -43.3398 H         1 UNK         0.0600 
    146 H146        1.0887  -23.2899  -41.9089 H         1 UNK         0.0600 
    147 H147        1.2082  -24.3520  -43.3044 H         1 UNK         0.0600 
    148 H148        2.1357  -22.8581  -43.2576 H         1 UNK         0.0600 
    149 H149        0.7491  -20.8617  -42.6393 H         1 UNK         0.3000 
    150 H150       -1.5392  -18.2472  -43.5862 H         1 UNK         0.0600 
    151 H151       -2.1825  -18.9478  -41.3161 H         1 UNK         0.0600 
    152 H152       -0.9749  -17.6777  -41.1978 H         1 UNK         0.0600 
    153 H153       -0.5211  -19.3524  -40.9135 H         1 UNK         0.0600 
    154 H154        1.0731  -18.0861  -42.5217 H         1 UNK         0.3000 
    155 H155        2.8914  -18.2892  -45.6096 H         1 UNK         0.0600 
    156 H156        2.1215  -15.9143  -45.4151 H         1 UNK         0.0600 
    157 H157        2.4497  -15.9625  -43.6864 H         1 UNK         0.0600 
    158 H158        3.7686  -16.1284  -44.8424 H         1 UNK         0.0600 
    159 H159        3.6010  -17.9035  -42.8314 H         1 UNK         0.3000 
    160 H160        4.1975  -21.3432  -42.1229 H         1 UNK         0.0600 
    161 H161        6.1054  -18.9732  -42.5174 H         1 UNK         0.0600 
    162 H162        6.2476  -20.5406  -43.3043 H         1 UNK         0.0600 
    163 H163        6.4287  -20.4197  -41.5616 H         1 UNK         0.0600 
    164 H164        4.5223  -18.9301  -40.6026 H         1 UNK         0.3000 
    165 H165        1.2390  -18.8699  -39.2085 H         1 UNK         0.0600 
    166 H166        2.5092  -19.0329  -37.0976 H         1 UNK         0.0600 
    167 H167        2.4779  -20.5984  -37.8920 H         1 UNK         0.0600 
    168 H168        3.9352  -19.6145  -37.9580 H         1 UNK         0.0600 
    169 H169        3.4166  -17.2334  -38.5818 H         1 UNK         0.3000 
    170 H170        3.2733  -15.0415  -39.0753 H         1 UNK         0.0600 
    171 H171        4.0074  -15.1372  -42.0559 H         1 UNK         0.0600 
    172 H172        4.6367  -13.9949  -40.8736 H         1 UNK         0.0600 
    173 H173        5.0252  -15.7029  -40.7362 H         1 UNK         0.0600 
    174 H174        1.9711  -13.9484  -41.4711 H         1 UNK         0.3000 
    175 H175       -1.1118  -13.2381  -39.8780 H         1 UNK         0.0600 
    176 H176       -0.6444  -10.8780  -40.5125 H         1 UNK         0.0600 
    177 H177        1.0861  -11.2144  -40.5786 H         1 UNK         0.0600 
    178 H178        0.2254  -11.3017  -39.0461 H         1 UNK         0.0600 
    179 H179        0.2663  -12.6351  -42.3948 H         1 UNK         0.3000 
    180 H180        0.1339  -15.4594  -43.8707 H         1 UNK         0.0600 
    181 H181       -2.5281  -14.1695  -44.6213 H         1 UNK         0.0600 
    182 H182       -2.3086  -15.8402  -44.1099 H         1 UNK         0.0600 
    183 H183       -1.5973  -15.2912  -45.6136 H         1 UNK         0.0600 
    184 H184       -0.3734  -13.1646  -45.3898 H         1 UNK         0.3000 
    185 H185        1.5915  -11.0239  -44.9696 H         1 UNK         0.0600 
    186 H186        3.8880  -11.7110  -44.4680 H         1 UNK         0.0600 
    187 H187        3.8681  -12.9209  -45.7404 H         1 UNK         0.0600 
    188 H188        3.8072  -11.2056  -46.1471 H         1 UNK         0.0600 
    189 H189        0.6991  -11.3315  -46.9615 H         1 UNK         0.3000 
    190 H190       -0.5589  -19.7048  -46.5176 H         1 UNK         0.3000 
    191 H191       -2.2832  -19.4287  -48.7178 H         1 UNK         0.0600 
    192 H192       -1.9197  -17.6998  -46.9276 H         1 UNK         0.0600 
    193 H193       -3.6283  -18.0225  -47.1831 H         1 UNK         0.0600 
    194 H194       -2.8049  -18.6970  -45.7829 H         1 UNK         0.0600 
    195 H195       -2.6907  -21.3857  -45.7376 H         1 UNK         0.3000 
    196 H196       -5.3032  -22.3417  -46.2981 H         1 UNK         0.0600 
    197 H197       -4.7558  -24.0859  -44.6054 H         1 UNK         0.0600 
    198 H198       -4.2611  -22.4917  -44.0561 H         1 UNK         0.0600 
    199 H199       -3.0584  -23.6296  -44.6573 H         1 UNK         0.0600 
    200 H200       -2.0783  -23.7306  -47.0981 H         1 UNK         0.3000 
    201 H201       -3.0166  -26.0484  -48.4482 H         1 UNK         0.0600 
    202 H202       -0.6903  -25.7999  -47.6318 H         1 UNK         0.0600 
    203 H203       -0.3940  -24.4958  -48.7784 H         1 UNK         0.0600 
    204 H204       -0.6930  -26.1293  -49.3584 H         1 UNK         0.0600 
    205 H205       -2.2851  -22.7626  -49.6386 H         1 UNK         0.3000 
    206 H206       -2.9123  -23.2678  -52.4045 H         1 UNK         0.0600 
    207 H207       -1.4028  -21.4243  -51.5855 H         1 UNK         0.0600 
    208 H208       -2.7168  -20.8021  -52.5660 H         1 UNK         0.0600 
    209 H209       -2.7792  -20.6430  -50.8165 H         1 UNK         0.0600 
    210 H210       -4.9689  -23.0593  -49.7133 H         1 UNK         0.3000 
    211 H211       -7.1117  -22.7107  -49.2961 H         1 UNK         0.0600 
    212 H212       -7.5944  -23.2311  -52.2822 H         1 UNK         0.0600 
    213 H213       -8.7857  -23.3553  -50.9968 H         1 UNK         0.0600 
    214 H214       -7.4351  -24.4780  -51.0473 H         1 UNK         0.0600 
    215 H215       -5.6893  -20.4496  -49.4009 H         1 UNK         0.3000 
    216 H216       -5.6559  -18.2497  -49.5589 H         1 UNK         0.0600 
    217 H217       -7.7475  -16.9565  -49.5069 H         1 UNK         0.0600 
    218 H218       -7.9184  -18.3755  -48.4873 H         1 UNK         0.0600 
    219 H219       -8.6745  -18.3352  -50.0797 H         1 UNK         0.0600 
    220 H220       -5.0387  -19.7745  -51.8312 H         1 UNK         0.3000 
    221 H221       -4.2565  -19.5879  -53.8664 H         1 UNK         0.0600 
    222 H222       -5.1442  -16.6663  -54.0033 H         1 UNK         0.0600 
    223 H223       -3.6252  -17.2171  -53.2969 H         1 UNK         0.0600 
    224 H224       -3.9419  -17.4639  -55.0052 H         1 UNK         0.0600 
    225 H225       -7.2228  -20.1613  -53.2221 H         1 UNK         0.3000 
    226 H226       -8.4986  -19.8212  -55.8395 H         1 UNK         0.0600 
    227 H227       -9.8148  -19.8820  -53.6841 H         1 UNK         0.0600 
    228 H228      -10.3279  -21.0983  -54.8452 H         1 UNK         0.0600 
    229 H229       -9.3394  -21.5682  -53.4720 H         1 UNK         0.0600 
    230 H230       -6.3477  -22.1027  -54.2854 H         1 UNK         0.3000 
    231 H231       -6.5817  -24.0377  -56.5487 H         1 UNK         0.0600 
    232 H232       -5.7517  -25.7337  -54.9521 H         1 UNK         0.0600 
    233 H233       -7.1983  -25.0031  -54.2808 H         1 UNK         0.0600 
    234 H234       -5.6121  -24.5364  -53.6735 H         1 UNK         0.0600 
    235 H235       -4.3077  -25.2103  -56.6369 H         1 UNK         0.3000 
    236 H236       -2.2879  -23.2811  -57.3423 H         1 UNK         0.0600 
    237 H237       -2.5287  -25.4538  -58.5312 H         1 UNK         0.0600 
    238 H238       -0.9332  -25.3273  -57.8080 H         1 UNK         0.0600 
    239 H239       -2.1599  -26.3336  -57.0473 H         1 UNK         0.0600 
    240 H240       -0.5371  -22.5862  -56.1884 H         1 UNK         0.3000 
    241 H241       -0.5819  -22.9106  -53.3319 H         1 UNK         0.0600 
    242 H242        0.9901  -24.9502  -55.6047 H         1 UNK         0.3800 
    243 H243        2.2111  -25.5501  -54.5133 H         1 UNK         0.3800 
    244 H244        1.4398  -21.3583  -55.0114 H         1 UNK         0.0800 
    245 H245        1.1825  -21.2253  -53.2878 H         1 UNK         0.0800 
    246 H246       -0.1593  -17.7846  -54.6097 H         1 UNK         0.0800 
    247 H247        1.3372  -18.6783  -54.6160 H         1 UNK         0.0800 
@<TRIPOS>BOND
     1    1    2 1    
     2    1  127 1    
     3    1  128 1    
     4    1  129 1    
     5    2    3 2    
     6    2    4 am   BACKBONE|DICT|INTERRES
     7    4    5 1    
     8    4  130 1    
     9    5    6 1    
    10    5   65 1    
    11    5  131 1    
    12    6    7 1    
    13    6  132 1    
    14    6  133 1    
    15    7    8 1    
    16    8    9 1    
    17    8  134 1    
    18    8  135 1    
    19    9   10 ar   
    20    9   14 ar   
    21   10   11 ar   
    22   10  136 1    
    23   11   12 ar   
    24   11  126 1    
    25   12   13 ar   
    26   12  137 1    
    27   13   14 ar   
    28   13   15 1    
    29   14  138 1    
    30   15   16 1    
    31   15  139 1    
    32   15  140 1    
    33   16   17 1    
    34   17   18 1    
    35   17  141 1    
    36   17  142 1    
    37   18   19 1    
    38   18   67 1    
    39   18  143 1    
    40   19   20 am   BACKBONE|DICT|INTERRES
    41   19  144 1    
    42   20   21 2    
    43   20   22 1    
    44   22   23 1    
    45   22   24 1    
    46   22  145 1    
    47   23  146 1    
    48   23  147 1    
    49   23  148 1    
    50   24   25 am   BACKBONE|DICT|INTERRES
    51   24  149 1    
    52   25   26 2    
    53   25   27 1    
    54   27   28 1    
    55   27   29 1    
    56   27  150 1    
    57   28  151 1    
    58   28  152 1    
    59   28  153 1    
    60   29   30 am   BACKBONE|DICT|INTERRES
    61   29  154 1    
    62   30   31 2    
    63   30   32 1    
    64   32   33 1    
    65   32   34 1    
    66   32  155 1    
    67   33  156 1    
    68   33  157 1    
    69   33  158 1    
    70   34   35 am   BACKBONE|DICT|INTERRES
    71   34  159 1    
    72   35   36 2    
    73   35   37 1    
    74   37   38 1    
    75   37   39 1    
    76   37  160 1    
    77   38  161 1    
    78   38  162 1    
    79   38  163 1    
    80   39   40 am   BACKBONE|DICT|INTERRES
    81   39  164 1    
    82   40   41 2    
    83   40   42 1    
    84   42   43 1    
    85   42   44 1    
    86   42  165 1    
    87   43  166 1    
    88   43  167 1    
    89   43  168 1    
    90   44   45 am   BACKBONE|DICT|INTERRES
    91   44  169 1    
    92   45   46 2    
    93   45   47 1    
    94   47   48 1    
    95   47   49 1    
    96   47  170 1    
    97   48  171 1    
    98   48  172 1    
    99   48  173 1    
   100   49   50 am   BACKBONE|DICT|INTERRES
   101   49  174 1    
   102   50   51 2    
   103   50   52 1    
   104   52   53 1    
   105   52   54 1    
   106   52  175 1    
   107   53  176 1    
   108   53  177 1    
   109   53  178 1    
   110   54   55 am   BACKBONE|DICT|INTERRES
   111   54  179 1    
   112   55   56 2    
   113   55   57 1    
   114   57   58 1    
   115   57   59 1    
   116   57  180 1    
   117   58  181 1    
   118   58  182 1    
   119   58  183 1    
   120   59   60 am   BACKBONE|DICT|INTERRES
   121   59  184 1    
   122   60   61 2    
   123   60   62 1    
   124   62   63 1    
   125   62   64 1    
   126   62  185 1    
   127   63  186 1    
   128   63  187 1    
   129   63  188 1    
   130   64   65 am   BACKBONE|DICT|INTERRES
   131   64  189 1    
   132   65   66 2    
   133   67   68 2    
   134   67   69 am   BACKBONE|DICT|INTERRES
   135   69   70 1    
   136   69  190 1    
   137   70   71 1    
   138   70   72 1    
   139   70  191 1    
   140   71  192 1    
   141   71  193 1    
   142   71  194 1    
   143   72   73 2    
   144   72   74 am   BACKBONE|DICT|INTERRES
   145   74   75 1    
   146   74  195 1    
   147   75   76 1    
   148   75   77 1    
   149   75  196 1    
   150   76  197 1    
   151   76  198 1    
   152   76  199 1    
   153   77   78 2    
   154   77   79 am   BACKBONE|DICT|INTERRES
   155   79   80 1    
   156   79  200 1    
   157   80   81 1    
   158   80   82 1    
   159   80  201 1    
   160   81  202 1    
   161   81  203 1    
   162   81  204 1    
   163   82   83 2    
   164   82   84 am   BACKBONE|DICT|INTERRES
   165   84   85 1    
   166   84  205 1    
   167   85   86 1    
   168   85   87 1    
   169   85  206 1    
   170   86  207 1    
   171   86  208 1    
   172   86  209 1    
   173   87   88 2    
   174   87   89 am   BACKBONE|DICT|INTERRES
   175   89   90 1    
   176   89  210 1    
   177   90   91 1    
   178   90   92 1    
   179   90  211 1    
   180   91  212 1    
   181   91  213 1    
   182   91  214 1    
   183   92   93 2    
   184   92   94 am   BACKBONE|DICT|INTERRES
   185   94   95 1    
   186   94  215 1    
   187   95   96 1    
   188   95   97 1    
   189   95  216 1    
   190   96  217 1    
   191   96  218 1    
   192   96  219 1    
   193   97   98 2    
   194   97   99 am   BACKBONE|DICT|INTERRES
   195   99  100 1    
   196   99  220 1    
   197  100  101 1    
   198  100  102 1    
   199  100  221 1    
   200  101  222 1    
   201  101  223 1    
   202  101  224 1    
   203  102  103 2    
   204  102  104 am   BACKBONE|DICT|INTERRES
   205  104  105 1    
   206  104  225 1    
   207  105  106 1    
   208  105  107 1    
   209  105  226 1    
   210  106  227 1    
   211  106  228 1    
   212  106  229 1    
   213  107  108 2    
   214  107  109 am   BACKBONE|DICT|INTERRES
   215  109  110 1    
   216  109  230 1    
   217  110  111 1    
   218  110  112 1    
   219  110  231 1    
   220  111  232 1    
   221  111  233 1    
   222  111  234 1    
   223  112  113 2    
   224  112  114 am   BACKBONE|DICT|INTERRES
   225  114  115 1    
   226  114  235 1    
   227  115  116 1    
   228  115  117 1    
   229  115  236 1    
   230  116  237 1    
   231  116  238 1    
   232  116  239 1    
   233  117  118 2    
   234  117  119 am   BACKBONE|DICT|INTERRES
   235  119  120 1    
   236  119  240 1    
   237  120  121 1    
   238  120  124 1    
   239  120  241 1    
   240  121  122 am   BACKBONE|DICT|INTERRES
   241  121  123 2    
   242  122  242 1    
   243  122  243 1    
   244  124  125 1    
   245  124  244 1    
   246  124  245 1    
   247  125  126 1    
   248  126  246 1    
   249  126  247 1    
@<TRIPOS>SUBSTRUCTURE
     1 UNK         1 GROUP             0       ****    0 ROOT    
