@<TRIPOS>MOLECULE
3R540
247   249    1
SMALL
USER_CHARGES


@<TRIPOS>ATOM
      1 CA          2.6811  -13.2977  -53.6777 C.3       0 UNK        -0.1800 
      2 C           1.4778  -12.9070  -52.8222 C.2       0 UNK         0.5000 
      3 O           0.3629  -12.8691  -53.3377 O.2       0 UNK        -0.5000 
      4 N           1.6346  -12.6157  -51.5255 N.am      1 UNK        -0.5000 
      5 CA          2.8835  -12.5513  -50.7609 C.3       1 UNK         0.1400 
      6 C6          3.5248  -13.9298  -50.4320 C.3       23 UNK        -0.0398 
      7 S7          2.4321  -15.1283  -49.5825 S.3       23 UNK        -0.2404 
      8 C8          1.8706  -16.1367  -50.9886 C.3       23 UNK        -0.0205 
      9 C9          0.9994  -17.2983  -50.5425 C.ar      23 UNK        -0.0193 
     10 C10        -0.3153  -17.0724  -50.1248 C.ar      23 UNK        -0.1150 
     11 C11        -1.1407  -18.1423  -49.7683 C.ar      23 UNK        -0.0193 
     12 C12        -0.6344  -19.4443  -49.8117 C.ar      23 UNK        -0.1150 
     13 C13         0.6812  -19.6815  -50.2210 C.ar      23 UNK        -0.0193 
     14 C14         1.4922  -18.6047  -50.5877 C.ar      23 UNK        -0.1150 
     15 C15         1.2241  -21.1012  -50.2812 C.3       23 UNK        -0.0205 
     16 S16         2.4865  -21.4222  -49.0044 S.3       23 UNK        -0.2404 
     17 C17         1.5770  -21.0881  -47.4560 C.3       23 UNK        -0.0398 
     18 CA          0.9920  -22.3553  -46.7926 C.3       11 UNK         0.1400 
     19 N           0.6104  -22.1059  -45.4027 N.am      11 UNK        -0.5000 
     20 C           0.2293  -23.0481  -44.5303 C.2       10 UNK         0.5000 
     21 O           0.2095  -24.2511  -44.7875 O.2       10 UNK        -0.5000 
     22 CA         -0.2576  -22.5609  -43.1549 C.3       10 UNK         0.1400 
     23 CB          0.9319  -22.2681  -42.2288 C.3       10 UNK        -0.1800 
     24 N          -1.1184  -21.3802  -43.2491 N.am      10 UNK        -0.5000 
     25 C          -2.3078  -21.3593  -43.8686 C.2       9 UNK         0.5000 
     26 O          -2.8217  -22.3472  -44.3921 O.2       9 UNK        -0.5000 
     27 CA         -3.0274  -20.0022  -43.9590 C.3       9 UNK         0.1400 
     28 CB         -3.7163  -19.6603  -42.6297 C.3       9 UNK        -0.1800 
     29 N          -2.1368  -18.9101  -44.3541 N.am      9 UNK        -0.5000 
     30 C          -1.4875  -18.8474  -45.5261 C.2       8 UNK         0.5000 
     31 O          -1.5911  -19.6966  -46.4106 O.2       8 UNK        -0.5000 
     32 CA         -0.5141  -17.6705  -45.7205 C.3       8 UNK         0.1400 
     33 CB         -1.2671  -16.3704  -46.0393 C.3       8 UNK        -0.1800 
     34 N           0.3417  -17.4601  -44.5540 N.am      8 UNK        -0.5000 
     35 C           1.2116  -18.3596  -44.0742 C.2       7 UNK         0.5000 
     36 O           1.4258  -19.4544  -44.5931 O.2       7 UNK        -0.5000 
     37 CA          1.9199  -17.9960  -42.7601 C.3       7 UNK         0.1400 
     38 CB          3.0765  -17.0161  -43.0113 C.3       7 UNK        -0.1800 
     39 N           0.9905  -17.4380  -41.7765 N.am      7 UNK        -0.5000 
     40 C           0.0052  -18.1342  -41.1899 C.2       6 UNK         0.5000 
     41 O          -0.2077  -19.3276  -41.3979 O.2       6 UNK        -0.5000 
     42 CA         -0.9216  -17.3582  -40.2377 C.3       6 UNK         0.1400 
     43 CB         -0.2969  -17.2547  -38.8385 C.3       6 UNK        -0.1800 
     44 N          -1.2357  -16.0173  -40.7298 N.am      6 UNK        -0.5000 
     45 C          -1.9606  -15.7615  -41.8282 C.2       5 UNK         0.5000 
     46 O          -2.4689  -16.6315  -42.5344 O.2       5 UNK        -0.5000 
     47 CA         -2.0830  -14.2815  -42.2333 C.3       5 UNK         0.1400 
     48 CB         -3.2035  -13.5903  -41.4422 C.3       5 UNK        -0.1800 
     49 N          -0.8276  -13.5452  -42.0542 N.am      5 UNK        -0.5000 
     50 C           0.2968  -13.8163  -42.7276 C.2       4 UNK         0.5000 
     51 O           0.3880  -14.7108  -43.5741 O.2       4 UNK        -0.5000 
     52 CA          1.5352  -12.9840  -42.3782 C.3       4 UNK         0.1400 
     53 CB          2.2845  -13.6036  -41.1827 C.3       4 UNK        -0.1800 
     54 N           2.3700  -12.9536  -43.5713 N.am      4 UNK        -0.5000 
     55 C           3.4594  -12.2108  -43.7864 C.2       3 UNK         0.5000 
     56 O           3.9843  -11.4841  -42.9421 O.2       3 UNK        -0.5000 
     57 CA          4.0246  -12.2599  -45.2190 C.3       3 UNK         0.1400 
     58 CB          4.8697  -13.5263  -45.4294 C.3       3 UNK        -0.1800 
     59 N           2.9742  -12.2038  -46.2417 N.am      3 UNK        -0.5000 
     60 C           2.1528  -11.1606  -46.4381 C.2       2 UNK         0.5000 
     61 O           2.2072  -10.1187  -45.7818 O.2       2 UNK        -0.5000 
     62 CA          1.1003  -11.3142  -47.5589 C.3       2 UNK         0.1400 
     63 CB          0.4573   -9.9722  -47.9677 C.3       2 UNK        -0.1800 
     64 N           1.5982  -12.0215  -48.7455 N.am      2 UNK        -0.5000 
     65 C           2.6487  -11.6847  -49.5124 C.2       1 UNK         0.5000 
     66 O           3.3817  -10.7182  -49.2999 O.2       1 UNK        -0.5000 
     67 C          -0.1790  -22.9471  -47.6030 C.2       11 UNK         0.5000 
     68 O           0.0101  -23.9558  -48.2816 O.2       11 UNK        -0.5000 
     69 N          -1.3722  -22.3449  -47.4922 N.am      12 UNK        -0.5000 
     70 CA         -2.5932  -22.8193  -48.1466 C.3       12 UNK         0.1400 
     71 CB         -3.7182  -21.7907  -47.9614 C.3       12 UNK        -0.1800 
     72 C          -3.0311  -24.2139  -47.6601 C.2       12 UNK         0.5000 
     73 O          -3.4560  -25.0338  -48.4733 O.2       12 UNK        -0.5000 
     74 N          -2.8793  -24.4797  -46.3550 N.am      13 UNK        -0.5000 
     75 CA         -3.1181  -25.7878  -45.7451 C.3       13 UNK         0.1400 
     76 CB         -3.0906  -25.6617  -44.2146 C.3       13 UNK        -0.1800 
     77 C          -2.1211  -26.8582  -46.2275 C.2       13 UNK         0.5000 
     78 O          -2.5387  -27.9777  -46.5233 O.2       13 UNK        -0.5000 
     79 N          -0.8348  -26.4924  -46.3290 N.am      14 UNK        -0.5000 
     80 CA          0.2382  -27.3487  -46.8406 C.3       14 UNK         0.1400 
     81 CB          1.6005  -26.7008  -46.5495 C.3       14 UNK        -0.1800 
     82 C           0.0890  -27.6591  -48.3417 C.2       14 UNK         0.5000 
     83 O           0.3010  -28.8017  -48.7498 O.2       14 UNK        -0.5000 
     84 N          -0.3011  -26.6474  -49.1295 N.am      15 UNK        -0.5000 
     85 CA         -0.6254  -26.7698  -50.5528 C.3       15 UNK         0.1400 
     86 CB         -0.7143  -25.3630  -51.1676 C.3       15 UNK        -0.1800 
     87 C          -1.9348  -27.5421  -50.8095 C.2       15 UNK         0.5000 
     88 O          -2.1068  -28.0930  -51.8973 O.2       15 UNK        -0.5000 
     89 N          -2.8282  -27.5470  -49.8093 N.am      16 UNK        -0.5000 
     90 CA         -4.1895  -28.0884  -49.8101 C.3       16 UNK         0.1400 
     91 CB         -4.1761  -29.6224  -49.9718 C.3       16 UNK        -0.1800 
     92 C          -5.1061  -27.3727  -50.8249 C.2       16 UNK         0.5000 
     93 O          -5.9967  -27.9980  -51.4040 O.2       16 UNK        -0.5000 
     94 N          -4.8672  -26.0712  -51.0241 N.am      17 UNK        -0.5000 
     95 CA         -5.5449  -25.2113  -51.9857 C.3       17 UNK         0.1400 
     96 CB         -5.1141  -25.5717  -53.4213 C.3       17 UNK        -0.1800 
     97 C          -5.1912  -23.7507  -51.6844 C.2       17 UNK         0.5000 
     98 O          -4.1297  -23.4741  -51.1205 O.2       17 UNK        -0.5000 
     99 N          -6.0612  -22.8319  -52.1175 N.am      18 UNK        -0.5000 
    100 CA        -5.8696  -21.3830  -52.0506 C.3       18 UNK         0.1400 
    101 CB        -7.2505  -20.7114  -52.1567 C.3       18 UNK        -0.1800 
    102 C         -4.8864  -20.9124  -53.1445 C.2       18 UNK         0.5000 
    103 O         -5.2906  -20.2474  -54.0995 O.2       18 UNK        -0.5000 
    104 N         -3.6177  -21.3111  -52.9888 N.am      19 UNK        -0.5000 
    105 CA        -2.5271  -21.2427  -53.9659 C.3       19 UNK         0.1400 
    106 CB        -1.2378  -21.7309  -53.2865 C.3       19 UNK        -0.1800 
    107 C         -2.2903  -19.8756  -54.6373 C.2       19 UNK         0.5000 
    108 O         -1.9467  -19.8426  -55.8196 O.2       19 UNK        -0.5000 
    109 N         -2.4814  -18.7845  -53.8871 N.am      20 UNK        -0.5000 
    110 CA        -2.2969  -17.4068  -54.3513 C.3       20 UNK         0.1400 
    111 CB        -1.3263  -16.6952  -53.3937 C.3       20 UNK        -0.1800 
    112 C         -3.6382  -16.6544  -54.4626 C.2       20 UNK         0.5000 
    113 O         -3.6460  -15.4258  -54.3738 O.2       20 UNK        -0.5000 
    114 N         -4.7483  -17.3937  -54.6279 N.am      21 UNK        -0.5000 
    115 CA        -6.1388  -16.9205  -54.5659 C.3       21 UNK         0.1400 
    116 CB        -6.4587  -15.9285  -55.7041 C.3       21 UNK        -0.1800 
    117 C         -6.4699  -16.3810  -53.1588 C.2       21 UNK         0.5000 
    118 O         -6.9945  -15.2771  -53.0050 O.2       21 UNK        -0.5000 
    119 N         -6.0975  -17.1879  -52.1593 N.am      22 UNK        -0.5000 
    120 CA        -6.1025  -16.8942  -50.7172 C.3       22 UNK         0.1400 
    121 C         -7.4978  -16.6334  -50.0749 C.2       22 UNK         0.5000 
    122 N         -8.6077  -16.9331  -50.7378 N.am      22 UNK        -0.7600 
    123 O         -7.5721  -16.1510  -48.9483 O.2       22 UNK        -0.5000 
    124 C124       -5.3481  -17.9961  -49.9225 C.3       23 UNK        -0.0398 
    125 S125       -3.7312  -18.4444  -50.6493 S.3       23 UNK        -0.2404 
    126 C126       -2.5825  -17.8970  -49.3545 C.3       23 UNK        -0.0205 
    127 H127        2.4368  -13.1996  -54.7356 H         1 UNK         0.0600 
    128 H128        2.9543  -14.3368  -53.4975 H         1 UNK         0.0600 
    129 H129        3.5467  -12.6652  -53.4874 H         1 UNK         0.0600 
    130 H130        0.8183  -12.3242  -51.0065 H         1 UNK         0.3000 
    131 H131        3.6058  -11.9928  -51.3585 H         1 UNK         0.0600 
    132 H132        3.9099  -14.3868  -51.3427 H         1 UNK         0.0800 
    133 H133        4.4064  -13.7848  -49.8050 H         1 UNK         0.0800 
    134 H134        2.7366  -16.5025  -51.5423 H         1 UNK         0.0800 
    135 H135        1.2991  -15.5187  -51.6801 H         1 UNK         0.0800 
    136 H136       -0.6997  -16.0625  -50.1000 H         1 UNK         0.1150 
    137 H137       -1.2718  -20.2716  -49.5342 H         1 UNK         0.1150 
    138 H138        2.5070  -18.7884  -50.9116 H         1 UNK         0.1150 
    139 H139        0.4171  -21.8294  -50.1931 H         1 UNK         0.0800 
    140 H140        1.6697  -21.2685  -51.2627 H         1 UNK         0.0800 
    141 H141        0.8097  -20.3286  -47.6030 H         1 UNK         0.0800 
    142 H142        2.3027  -20.6342  -46.7806 H         1 UNK         0.0800 
    143 H143        1.7806  -23.1104  -46.7654 H         1 UNK         0.0600 
    144 H144        0.6418  -21.1381  -45.0934 H         1 UNK         0.3000 
    145 H145       -0.8447  -23.3654  -42.7075 H         1 UNK         0.0600 
    146 H146        0.5946  -22.0160  -41.2234 H         1 UNK         0.0600 
    147 H147        1.5851  -23.1375  -42.1440 H         1 UNK         0.0600 
    148 H148        1.5347  -21.4375  -42.5971 H         1 UNK         0.0600 
    149 H149       -0.7782  -20.5342  -42.8005 H         1 UNK         0.3000 
    150 H150       -3.7996  -20.0901  -44.7259 H         1 UNK         0.0600 
    151 H151       -4.3909  -20.4601  -42.3217 H         1 UNK         0.0600 
    152 H152       -4.3098  -18.7502  -42.7169 H         1 UNK         0.0600 
    153 H153       -2.9932  -19.5123  -41.8273 H         1 UNK         0.0600 
    154 H154       -2.0291  -18.1499  -43.6888 H         1 UNK         0.3000 
    155 H155        0.1287  -17.9086  -46.5709 H         1 UNK         0.0600 
    156 H156       -1.8849  -16.0460  -45.2017 H         1 UNK         0.0600 
    157 H157       -0.5730  -15.5630  -46.2737 H         1 UNK         0.0600 
    158 H158       -1.9222  -16.4960  -46.9002 H         1 UNK         0.0600 
    159 H159        0.2527  -16.5646  -44.0820 H         1 UNK         0.3000 
    160 H160        2.3403  -18.9139  -42.3436 H         1 UNK         0.0600 
    161 H161        2.7278  -16.0701  -43.4257 H         1 UNK         0.0600 
    162 H162        3.7927  -17.4357  -43.7188 H         1 UNK         0.0600 
    163 H163        3.6197  -16.8027  -42.0907 H         1 UNK         0.0600 
    164 H164        1.0678  -16.4519  -41.5828 H         1 UNK         0.3000 
    165 H165       -1.8564  -17.9164  -40.1539 H         1 UNK         0.0600 
    166 H166       -0.9793  -16.7745  -38.1368 H         1 UNK         0.0600 
    167 H167       -0.0667  -18.2440  -38.4405 H         1 UNK         0.0600 
    168 H168        0.6310  -16.6815  -38.8508 H         1 UNK         0.0600 
    169 H169       -0.8556  -15.2393  -40.2117 H         1 UNK         0.3000 
    170 H170       -2.3445  -14.2496  -43.2933 H         1 UNK         0.0600 
    171 H171       -4.1519  -14.1135  -41.5719 H         1 UNK         0.0600 
    172 H172       -2.9871  -13.5626  -40.3736 H         1 UNK         0.0600 
    173 H173       -3.3508  -12.5649  -41.7818 H         1 UNK         0.0600 
    174 H174       -0.8314  -12.7987  -41.3738 H         1 UNK         0.3000 
    175 H175        1.2252  -11.9652  -42.1379 H         1 UNK         0.0600 
    176 H176        2.6598  -14.5999  -41.4131 H         1 UNK         0.0600 
    177 H177        3.1341  -12.9912  -40.8820 H         1 UNK         0.0600 
    178 H178        1.6324  -13.6908  -40.3129 H         1 UNK         0.0600 
    179 H179        2.0067  -13.5246  -44.3245 H         1 UNK         0.3000 
    180 H180        4.6715  -11.3904  -45.3533 H         1 UNK         0.0600 
    181 H181        4.2702  -14.4332  -45.3383 H         1 UNK         0.0600 
    182 H182        5.6707  -13.5873  -44.6915 H         1 UNK         0.0600 
    183 H183        5.3357  -13.5299  -46.4149 H         1 UNK         0.0600 
    184 H184        2.8715  -13.0142  -46.8346 H         1 UNK         0.3000 
    185 H185        0.3106  -11.9398  -47.1403 H         1 UNK         0.0600 
    186 H186       -0.0327   -9.4962  -47.1175 H         1 UNK         0.0600 
    187 H187        1.1971   -9.2706  -48.3544 H         1 UNK         0.0600 
    188 H188       -0.3014  -10.1167  -48.7367 H         1 UNK         0.0600 
    189 H189        1.1053  -12.8734  -48.9772 H         1 UNK         0.3000 
    190 H190       -1.4522  -21.4947  -46.9386 H         1 UNK         0.3000 
    191 H191       -2.3797  -22.8960  -49.2141 H         1 UNK         0.0600 
    192 H192       -3.9495  -21.6322  -46.9078 H         1 UNK         0.0600 
    193 H193       -4.6323  -22.1208  -48.4568 H         1 UNK         0.0600 
    194 H194       -3.4465  -20.8281  -48.3935 H         1 UNK         0.0600 
    195 H195       -2.5870  -23.7313  -45.7329 H         1 UNK         0.3000 
    196 H196       -4.1189  -26.1128  -46.0371 H         1 UNK         0.0600 
    197 H197       -3.2889  -26.6234  -43.7398 H         1 UNK         0.0600 
    198 H198       -3.8501  -24.9628  -43.8638 H         1 UNK         0.0600 
    199 H199       -2.1233  -25.3111  -43.8551 H         1 UNK         0.0600 
    200 H200       -0.5624  -25.5660  -46.0129 H         1 UNK         0.3000 
    201 H201        0.1944  -28.2969  -46.3009 H         1 UNK         0.0600 
    202 H202        1.7463  -26.5555  -45.4791 H         1 UNK         0.0600 
    203 H203        1.6974  -25.7291  -47.0343 H         1 UNK         0.0600 
    204 H204        2.4169  -27.3295  -46.9068 H         1 UNK         0.0600 
    205 H205       -0.3732  -25.7150  -48.7268 H         1 UNK         0.3000 
    206 H206        0.1846  -27.3116  -51.0450 H         1 UNK         0.0600 
    207 H207        0.2216  -24.8173  -51.0456 H         1 UNK         0.0600 
    208 H208       -0.9253  -25.4142  -52.2365 H         1 UNK         0.0600 
    209 H209       -1.5072  -24.7729  -50.7060 H         1 UNK         0.0600 
    210 H210       -2.5945  -27.0029  -48.9884 H         1 UNK         0.3000 
    211 H211       -4.5995  -27.8654  -48.8241 H         1 UNK         0.0600 
    212 H212       -3.8430  -29.9239  -50.9651 H         1 UNK         0.0600 
    213 H213       -5.1724  -30.0394  -49.8212 H         1 UNK         0.0600 
    214 H214       -3.5162  -30.0883  -49.2398 H         1 UNK         0.0600 
    215 H215       -4.1669  -25.6014  -50.4561 H         1 UNK         0.3000 
    216 H216       -6.6236  -25.3408  -51.8774 H         1 UNK         0.0600 
    217 H217       -4.0328  -25.4942  -53.5436 H         1 UNK         0.0600 
    218 H218       -5.5759  -24.9057  -54.1512 H         1 UNK         0.0600 
    219 H219       -5.4069  -26.5876  -53.6859 H         1 UNK         0.0600 
    220 H220       -6.8890  -23.1428  -52.6052 H         1 UNK         0.3000 
    221 H221       -5.4407  -21.1241  -51.0801 H         1 UNK         0.0600 
    222 H222       -7.9080  -21.0366  -51.3502 H         1 UNK         0.0600 
    223 H223       -7.7421  -20.9433  -53.1024 H         1 UNK         0.0600 
    224 H224       -7.1724  -19.6289  -52.0865 H         1 UNK         0.0600 
    225 H225       -3.4349  -21.8923  -52.1773 H         1 UNK         0.3000 
    226 H226       -2.7774  -21.9479  -54.7605 H         1 UNK         0.0600 
    227 H227       -1.3492  -22.7473  -52.9080 H         1 UNK         0.0600 
    228 H228       -0.4006  -21.7346  -53.9857 H         1 UNK         0.0600 
    229 H229       -0.9632  -21.0896  -52.4484 H         1 UNK         0.0600 
    230 H230       -2.7727  -18.9004  -52.9253 H         1 UNK         0.3000 
    231 H231       -1.8484  -17.3933  -55.3463 H         1 UNK         0.0600 
    232 H232       -0.4072  -17.2665  -53.2619 H         1 UNK         0.0600 
    233 H233       -1.7788  -16.5501  -52.4129 H         1 UNK         0.0600 
    234 H234       -1.0448  -15.7119  -53.7727 H         1 UNK         0.0600 
    235 H235       -4.6442  -18.4029  -54.6702 H         1 UNK         0.3000 
    236 H236       -6.7678  -17.7996  -54.7143 H         1 UNK         0.0600 
    237 H237       -7.5235  -15.6941  -55.7238 H         1 UNK         0.0600 
    238 H238       -5.9227  -14.9859  -55.5924 H         1 UNK         0.0600 
    239 H239       -6.2005  -16.3484  -56.6762 H         1 UNK         0.0600 
    240 H240       -5.6442  -18.0521  -52.4123 H         1 UNK         0.3000 
    241 H241       -5.5433  -15.9646  -50.5978 H         1 UNK         0.0600 
    242 H242       -9.5034  -16.7560  -50.3108 H         1 UNK         0.3800 
    243 H243       -8.5630  -17.3048  -51.6724 H         1 UNK         0.3800 
    244 H244       -5.9485  -18.9059  -49.8756 H         1 UNK         0.0800 
    245 H245       -5.2040  -17.6827  -48.8870 H         1 UNK         0.0800 
    246 H246       -2.7506  -16.8380  -49.1541 H         1 UNK         0.0800 
    247 H247       -2.7951  -18.4323  -48.4291 H         1 UNK         0.0800 
@<TRIPOS>BOND
     1    1    2 1    
     2    1  127 1    
     3    1  128 1    
     4    1  129 1    
     5    2    3 2    
     6    2    4 am   BACKBONE|DICT|INTERRES
     7    4    5 1    
     8    4  130 1    
     9    5    6 1    
    10    5   65 1    
    11    5  131 1    
    12    6    7 1    
    13    6  132 1    
    14    6  133 1    
    15    7    8 1    
    16    8    9 1    
    17    8  134 1    
    18    8  135 1    
    19    9   10 ar   
    20    9   14 ar   
    21   10   11 ar   
    22   10  136 1    
    23   11   12 ar   
    24   11  126 1    
    25   12   13 ar   
    26   12  137 1    
    27   13   14 ar   
    28   13   15 1    
    29   14  138 1    
    30   15   16 1    
    31   15  139 1    
    32   15  140 1    
    33   16   17 1    
    34   17   18 1    
    35   17  141 1    
    36   17  142 1    
    37   18   19 1    
    38   18   67 1    
    39   18  143 1    
    40   19   20 am   BACKBONE|DICT|INTERRES
    41   19  144 1    
    42   20   21 2    
    43   20   22 1    
    44   22   23 1    
    45   22   24 1    
    46   22  145 1    
    47   23  146 1    
    48   23  147 1    
    49   23  148 1    
    50   24   25 am   BACKBONE|DICT|INTERRES
    51   24  149 1    
    52   25   26 2    
    53   25   27 1    
    54   27   28 1    
    55   27   29 1    
    56   27  150 1    
    57   28  151 1    
    58   28  152 1    
    59   28  153 1    
    60   29   30 am   BACKBONE|DICT|INTERRES
    61   29  154 1    
    62   30   31 2    
    63   30   32 1    
    64   32   33 1    
    65   32   34 1    
    66   32  155 1    
    67   33  156 1    
    68   33  157 1    
    69   33  158 1    
    70   34   35 am   BACKBONE|DICT|INTERRES
    71   34  159 1    
    72   35   36 2    
    73   35   37 1    
    74   37   38 1    
    75   37   39 1    
    76   37  160 1    
    77   38  161 1    
    78   38  162 1    
    79   38  163 1    
    80   39   40 am   BACKBONE|DICT|INTERRES
    81   39  164 1    
    82   40   41 2    
    83   40   42 1    
    84   42   43 1    
    85   42   44 1    
    86   42  165 1    
    87   43  166 1    
    88   43  167 1    
    89   43  168 1    
    90   44   45 am   BACKBONE|DICT|INTERRES
    91   44  169 1    
    92   45   46 2    
    93   45   47 1    
    94   47   48 1    
    95   47   49 1    
    96   47  170 1    
    97   48  171 1    
    98   48  172 1    
    99   48  173 1    
   100   49   50 am   BACKBONE|DICT|INTERRES
   101   49  174 1    
   102   50   51 2    
   103   50   52 1    
   104   52   53 1    
   105   52   54 1    
   106   52  175 1    
   107   53  176 1    
   108   53  177 1    
   109   53  178 1    
   110   54   55 am   BACKBONE|DICT|INTERRES
   111   54  179 1    
   112   55   56 2    
   113   55   57 1    
   114   57   58 1    
   115   57   59 1    
   116   57  180 1    
   117   58  181 1    
   118   58  182 1    
   119   58  183 1    
   120   59   60 am   BACKBONE|DICT|INTERRES
   121   59  184 1    
   122   60   61 2    
   123   60   62 1    
   124   62   63 1    
   125   62   64 1    
   126   62  185 1    
   127   63  186 1    
   128   63  187 1    
   129   63  188 1    
   130   64   65 am   BACKBONE|DICT|INTERRES
   131   64  189 1    
   132   65   66 2    
   133   67   68 2    
   134   67   69 am   BACKBONE|DICT|INTERRES
   135   69   70 1    
   136   69  190 1    
   137   70   71 1    
   138   70   72 1    
   139   70  191 1    
   140   71  192 1    
   141   71  193 1    
   142   71  194 1    
   143   72   73 2    
   144   72   74 am   BACKBONE|DICT|INTERRES
   145   74   75 1    
   146   74  195 1    
   147   75   76 1    
   148   75   77 1    
   149   75  196 1    
   150   76  197 1    
   151   76  198 1    
   152   76  199 1    
   153   77   78 2    
   154   77   79 am   BACKBONE|DICT|INTERRES
   155   79   80 1    
   156   79  200 1    
   157   80   81 1    
   158   80   82 1    
   159   80  201 1    
   160   81  202 1    
   161   81  203 1    
   162   81  204 1    
   163   82   83 2    
   164   82   84 am   BACKBONE|DICT|INTERRES
   165   84   85 1    
   166   84  205 1    
   167   85   86 1    
   168   85   87 1    
   169   85  206 1    
   170   86  207 1    
   171   86  208 1    
   172   86  209 1    
   173   87   88 2    
   174   87   89 am   BACKBONE|DICT|INTERRES
   175   89   90 1    
   176   89  210 1    
   177   90   91 1    
   178   90   92 1    
   179   90  211 1    
   180   91  212 1    
   181   91  213 1    
   182   91  214 1    
   183   92   93 2    
   184   92   94 am   BACKBONE|DICT|INTERRES
   185   94   95 1    
   186   94  215 1    
   187   95   96 1    
   188   95   97 1    
   189   95  216 1    
   190   96  217 1    
   191   96  218 1    
   192   96  219 1    
   193   97   98 2    
   194   97   99 am   BACKBONE|DICT|INTERRES
   195   99  100 1    
   196   99  220 1    
   197  100  101 1    
   198  100  102 1    
   199  100  221 1    
   200  101  222 1    
   201  101  223 1    
   202  101  224 1    
   203  102  103 2    
   204  102  104 am   BACKBONE|DICT|INTERRES
   205  104  105 1    
   206  104  225 1    
   207  105  106 1    
   208  105  107 1    
   209  105  226 1    
   210  106  227 1    
   211  106  228 1    
   212  106  229 1    
   213  107  108 2    
   214  107  109 am   BACKBONE|DICT|INTERRES
   215  109  110 1    
   216  109  230 1    
   217  110  111 1    
   218  110  112 1    
   219  110  231 1    
   220  111  232 1    
   221  111  233 1    
   222  111  234 1    
   223  112  113 2    
   224  112  114 am   BACKBONE|DICT|INTERRES
   225  114  115 1    
   226  114  235 1    
   227  115  116 1    
   228  115  117 1    
   229  115  236 1    
   230  116  237 1    
   231  116  238 1    
   232  116  239 1    
   233  117  118 2    
   234  117  119 am   BACKBONE|DICT|INTERRES
   235  119  120 1    
   236  119  240 1    
   237  120  121 1    
   238  120  124 1    
   239  120  241 1    
   240  121  122 am   BACKBONE|DICT|INTERRES
   241  121  123 2    
   242  122  242 1    
   243  122  243 1    
   244  124  125 1    
   245  124  244 1    
   246  124  245 1    
   247  125  126 1    
   248  126  246 1    
   249  126  247 1    
@<TRIPOS>SUBSTRUCTURE
     1 UNK         1 GROUP             0       ****    0 ROOT    
