@<TRIPOS>MOLECULE
3R540
247   249    1
SMALL
USER_CHARGES


@<TRIPOS>ATOM
      1 CA          5.5219  -15.7071  -46.0103 C.3       0 UNK        -0.1800 
      2 C           4.0664  -15.3011  -46.1846 C.2       0 UNK         0.5000 
      3 O           3.3681  -15.0783  -45.1979 O.2       0 UNK        -0.5000 
      4 N           3.6062  -15.1770  -47.4360 N.am      1 UNK        -0.5000 
      5 CA          2.2233  -14.8270  -47.7988 C.3       1 UNK         0.1400 
      6 C6          1.9318  -15.0926  -49.2958 C.3       23 UNK        -0.0398 
      7 S7          2.2137  -16.8399  -49.7464 S.3       23 UNK        -0.2404 
      8 C8          1.4015  -16.9301  -51.3800 C.3       23 UNK        -0.0205 
      9 C9         -0.1212  -16.7987  -51.3519 C.ar      23 UNK        -0.0193 
     10 C10        -0.7726  -16.2397  -52.4555 C.ar      23 UNK        -0.1150 
     11 C11        -2.1647  -16.1195  -52.4794 C.ar      23 UNK        -0.0193 
     12 C12        -2.9080  -16.5343  -51.3706 C.ar      23 UNK        -0.1150 
     13 C13        -2.2753  -17.1002  -50.2618 C.ar      23 UNK        -0.0193 
     14 C14        -0.8859  -17.2457  -50.2669 C.ar      23 UNK        -0.1150 
     15 C15        -3.0912  -17.5391  -49.0557 C.3       23 UNK        -0.0205 
     16 S16        -4.0000  -19.0787  -49.3944 S.3       23 UNK        -0.2404 
     17 C17        -3.7235  -20.0432  -47.8722 C.3       23 UNK        -0.0398 
     18 CA         -2.7312  -21.2079  -48.1004 C.3       11 UNK         0.1400 
     19 N          -1.3737  -20.7446  -48.4101 N.am      11 UNK        -0.5000 
     20 C          -0.3608  -21.5355  -48.7940 C.2       10 UNK         0.5000 
     21 O          -0.4785  -22.7455  -48.9735 O.2       10 UNK        -0.5000 
     22 CA          1.0297  -20.8902  -48.9463 C.3       10 UNK         0.1400 
     23 CB          1.3051  -20.5557  -50.4181 C.3       10 UNK        -0.1800 
     24 N           1.2309  -19.6900  -48.1283 N.am      10 UNK        -0.5000 
     25 C           1.1370  -19.6458  -46.7925 C.2       9 UNK         0.5000 
     26 O           0.8212  -20.6138  -46.0969 O.2       9 UNK        -0.5000 
     27 CA          1.3544  -18.2692  -46.1477 C.3       9 UNK         0.1400 
     28 CB          0.0434  -17.4654  -46.1653 C.3       9 UNK        -0.1800 
     29 N           1.8249  -18.3845  -44.7699 N.am      9 UNK        -0.5000 
     30 C           3.0837  -18.6947  -44.4276 C.2       8 UNK         0.5000 
     31 O           3.9693  -18.9301  -45.2510 O.2       8 UNK        -0.5000 
     32 CA          3.4389  -18.7214  -42.9265 C.3       8 UNK         0.1400 
     33 CB          4.3017  -17.5032  -42.5598 C.3       8 UNK        -0.1800 
     34 N           2.2639  -18.7357  -42.0561 N.am      8 UNK        -0.5000 
     35 C           1.5615  -19.8305  -41.7376 C.2       7 UNK         0.5000 
     36 O           1.8746  -20.9682  -42.0877 O.2       7 UNK        -0.5000 
     37 CA          0.2918  -19.6196  -40.8865 C.3       7 UNK         0.1400 
     38 CB          0.5788  -19.9287  -39.4095 C.3       7 UNK        -0.1800 
     39 N          -0.2816  -18.2729  -40.9821 N.am      7 UNK        -0.5000 
     40 C          -0.7761  -17.7100  -42.0909 C.2       6 UNK         0.5000 
     41 O          -0.7678  -18.2741  -43.1829 O.2       6 UNK        -0.5000 
     42 CA         -1.3393  -16.2762  -41.9967 C.3       6 UNK         0.1400 
     43 CB         -2.8730  -16.2987  -41.8624 C.3       6 UNK        -0.1800 
     44 N          -0.7325  -15.4124  -40.9719 N.am      6 UNK        -0.5000 
     45 C          -0.7751  -15.5222  -39.6339 C.2       5 UNK         0.5000 
     46 O          -1.3018  -16.4636  -39.0410 O.2       5 UNK        -0.5000 
     47 CA         -0.0871  -14.4148  -38.8102 C.3       5 UNK         0.1400 
     48 CB          1.2795  -14.9041  -38.3050 C.3       5 UNK        -0.1800 
     49 N           0.1060  -13.1661  -39.5489 N.am      5 UNK        -0.5000 
     50 C          -0.8706  -12.3369  -39.9453 C.2       4 UNK         0.5000 
     51 O          -2.0590  -12.4993  -39.6669 O.2       4 UNK        -0.5000 
     52 CA         -0.4510  -11.1326  -40.8135 C.3       4 UNK         0.1400 
     53 CB         -0.4327   -9.8452  -39.9750 C.3       4 UNK        -0.1800 
     54 N           0.8567  -11.2979  -41.4583 N.am      4 UNK        -0.5000 
     55 C           1.1289  -12.1800  -42.4289 C.2       3 UNK         0.5000 
     56 O           0.3034  -12.9735  -42.8872 O.2       3 UNK        -0.5000 
     57 CA          2.5875  -12.2266  -42.9145 C.3       3 UNK         0.1400 
     58 CB          3.2794  -13.4935  -42.3877 C.3       3 UNK        -0.1800 
     59 N           2.6802  -12.1838  -44.3742 N.am      3 UNK        -0.5000 
     60 C           2.4218  -11.0905  -45.1098 C.2       2 UNK         0.5000 
     61 O           2.0604  -10.0200  -44.6181 O.2       2 UNK        -0.5000 
     62 CA          2.6312  -11.1668  -46.6375 C.3       2 UNK         0.1400 
     63 CB          3.8543  -10.3329  -47.0527 C.3       2 UNK        -0.1800 
     64 N           2.8132  -12.5294  -47.1340 N.am      2 UNK        -0.5000 
     65 C           1.8214  -13.3904  -47.3952 C.2       1 UNK         0.5000 
     66 O           0.6285  -13.0977  -47.3108 O.2       1 UNK        -0.5000 
     67 C          -2.7739  -22.1891  -46.9105 C.2       11 UNK         0.5000 
     68 O          -3.6510  -23.0521  -46.8901 O.2       11 UNK        -0.5000 
     69 N          -1.8304  -22.0773  -45.9629 N.am      12 UNK        -0.5000 
     70 CA         -1.7087  -23.0034  -44.8358 C.3       12 UNK         0.1400 
     71 CB         -0.8152  -22.3820  -43.7521 C.3       12 UNK        -0.1800 
     72 C          -1.1708  -24.3785  -45.2744 C.2       12 UNK         0.5000 
     73 O          -1.6130  -25.3991  -44.7470 O.2       12 UNK        -0.5000 
     74 N          -0.2533  -24.3824  -46.2516 N.am      13 UNK        -0.5000 
     75 CA          0.3108  -25.5898  -46.8560 C.3       13 UNK         0.1400 
     76 CB          1.6441  -25.2424  -47.5367 C.3       13 UNK        -0.1800 
     77 C          -0.6616  -26.2401  -47.8565 C.2       13 UNK         0.5000 
     78 O          -0.7886  -27.4645  -47.8774 O.2       13 UNK        -0.5000 
     79 N          -1.3432  -25.4057  -48.6531 N.am      14 UNK        -0.5000 
     80 CA         -2.3209  -25.8072  -49.6663 C.3       14 UNK         0.1400 
     81 CB         -2.5071  -24.6440  -50.6545 C.3       14 UNK        -0.1800 
     82 C          -3.6820  -26.2397  -49.0833 C.2       14 UNK         0.5000 
     83 O          -4.5113  -26.7535  -49.8328 O.2       14 UNK        -0.5000 
     84 N          -3.9002  -26.0087  -47.7799 N.am      15 UNK        -0.5000 
     85 CA         -5.1261  -26.2795  -47.0207 C.3       15 UNK         0.1400 
     86 CB         -5.4063  -27.7948  -46.9387 C.3       15 UNK        -0.1800 
     87 C          -6.3221  -25.4606  -47.5485 C.2       15 UNK         0.5000 
     88 O          -7.3842  -26.0121  -47.8413 O.2       15 UNK        -0.5000 
     89 N          -6.0953  -24.1458  -47.6732 N.am      16 UNK        -0.5000 
     90 CA         -7.0173  -23.0993  -48.1278 C.3       16 UNK         0.1400 
     91 CB         -8.2654  -23.0208  -47.2244 C.3       16 UNK        -0.1800 
     92 C          -7.3771  -23.1571  -49.6275 C.2       16 UNK         0.5000 
     93 O          -8.2681  -22.4232  -50.0599 O.2       16 UNK        -0.5000 
     94 N          -6.6707  -23.9825  -50.4129 N.am      17 UNK        -0.5000 
     95 CA         -6.7939  -24.0471  -51.8678 C.3       17 UNK         0.1400 
     96 CB         -6.2834  -25.4074  -52.3710 C.3       17 UNK        -0.1800 
     97 C          -6.0468  -22.8669  -52.5143 C.2       17 UNK         0.5000 
     98 O          -4.8932  -23.0112  -52.9257 O.2       17 UNK        -0.5000 
     99 N          -6.7187  -21.7093  -52.5773 N.am      18 UNK        -0.5000 
    100 CA        -6.2028  -20.4493  -53.1225 C.3       18 UNK         0.1400 
    101 CB        -7.2822  -19.3636  -53.0083 C.3       18 UNK        -0.1800 
    102 C         -5.6983  -20.5621  -54.5736 C.2       18 UNK         0.5000 
    103 O         -4.6889  -19.9508  -54.9168 O.2       18 UNK        -0.5000 
    104 N         -6.3719  -21.3946  -55.3802 N.am      19 UNK        -0.5000 
    105 CA        -6.0013  -21.7086  -56.7619 C.3       19 UNK         0.1400 
    106 CB        -7.0934  -22.5935  -57.3818 C.3       19 UNK        -0.1800 
    107 C         -4.6192  -22.3799  -56.9020 C.2       19 UNK         0.5000 
    108 O         -3.9746  -22.2131  -57.9381 O.2       19 UNK        -0.5000 
    109 N         -4.1859  -23.1091  -55.8643 N.am      20 UNK        -0.5000 
    110 CA        -2.8455  -23.6790  -55.7658 C.3       20 UNK         0.1400 
    111 CB        -2.9015  -24.9982  -54.9782 C.3       20 UNK        -0.1800 
    112 C         -1.8812  -22.6809  -55.1048 C.2       20 UNK         0.5000 
    113 O         -0.7895  -22.4570  -55.6294 O.2       20 UNK        -0.5000 
    114 N         -2.3052  -22.0910  -53.9769 N.am      21 UNK        -0.5000 
    115 CA        -1.5077  -21.1857  -53.1452 C.3       21 UNK         0.1400 
    116 CB        -2.3135  -20.7958  -51.9034 C.3       21 UNK        -0.1800 
    117 C         -1.0123  -19.9231  -53.8725 C.2       21 UNK         0.5000 
    118 O          0.1470  -19.5467  -53.6977 O.2       21 UNK        -0.5000 
    119 N         -1.8776  -19.3162  -54.6951 N.am      22 UNK        -0.5000 
    120 CA        -1.5391  -18.1567  -55.5354 C.3       22 UNK         0.1400 
    121 C         -0.6794  -18.5000  -56.7911 C.2       22 UNK         0.5000 
    122 N         -0.3548  -19.7575  -57.0716 N.am      22 UNK        -0.7600 
    123 O         -0.2870  -17.5995  -57.5283 O.2       22 UNK        -0.5000 
    124 C124       -2.7833  -17.3159  -55.9313 C.3       23 UNK        -0.0398 
    125 S125       -3.8655  -16.7980  -54.5518 S.3       23 UNK        -0.2404 
    126 C126       -2.8745  -15.5353  -53.6919 C.3       23 UNK        -0.0205 
    127 H127        6.0388  -15.7823  -46.9671 H         1 UNK         0.0600 
    128 H128        5.5836  -16.6748  -45.5134 H         1 UNK         0.0600 
    129 H129        6.0447  -14.9738  -45.3964 H         1 UNK         0.0600 
    130 H130        4.2204  -15.3792  -48.2124 H         1 UNK         0.3000 
    131 H131        1.5695  -15.4760  -47.2195 H         1 UNK         0.0600 
    132 H132        2.5560  -14.4611  -49.9302 H         1 UNK         0.0800 
    133 H133        0.8959  -14.8398  -49.5302 H         1 UNK         0.0800 
    134 H134        1.6543  -17.8830  -51.8457 H         1 UNK         0.0800 
    135 H135        1.8326  -16.1569  -52.0178 H         1 UNK         0.0800 
    136 H136       -0.1926  -15.9067  -53.3045 H         1 UNK         0.1150 
    137 H137       -3.9842  -16.4330  -51.3784 H         1 UNK         0.1150 
    138 H138       -0.4013  -17.6997  -49.4182 H         1 UNK         0.1150 
    139 H139       -2.4410  -17.6573  -48.1891 H         1 UNK         0.0800 
    140 H140       -3.8049  -16.7570  -48.7929 H         1 UNK         0.0800 
    141 H141       -4.6989  -20.4265  -47.5671 H         1 UNK         0.0800 
    142 H142       -3.3913  -19.3973  -47.0580 H         1 UNK         0.0800 
    143 H143       -3.0805  -21.7716  -48.9668 H         1 UNK         0.0600 
    144 H144       -1.1938  -19.7614  -48.2872 H         1 UNK         0.3000 
    145 H145        1.7639  -21.6310  -48.6231 H         1 UNK         0.0600 
    146 H146        2.3157  -20.1709  -50.5553 H         1 UNK         0.0600 
    147 H147        1.2087  -21.4424  -51.0459 H         1 UNK         0.0600 
    148 H148        0.6077  -19.8097  -50.7977 H         1 UNK         0.0600 
    149 H149        1.5097  -18.8549  -48.6266 H         1 UNK         0.3000 
    150 H150        2.1095  -17.7284  -46.7206 H         1 UNK         0.0600 
    151 H151       -0.2157  -17.1631  -47.1788 H         1 UNK         0.0600 
    152 H152        0.1249  -16.5560  -45.5691 H         1 UNK         0.0600 
    153 H153       -0.7941  -18.0453  -45.7760 H         1 UNK         0.0600 
    154 H154        1.1184  -18.2984  -44.0491 H         1 UNK         0.3000 
    155 H155        4.0291  -19.6219  -42.7440 H         1 UNK         0.0600 
    156 H156        3.7781  -16.5675  -42.7561 H         1 UNK         0.0600 
    157 H157        5.2245  -17.4884  -43.1407 H         1 UNK         0.0600 
    158 H158        4.5829  -17.5183  -41.5067 H         1 UNK         0.0600 
    159 H159        1.9365  -17.8434  -41.7173 H         1 UNK         0.3000 
    160 H160       -0.4597  -20.3257  -41.2448 H         1 UNK         0.0600 
    161 H161        1.3053  -19.2328  -38.9879 H         1 UNK         0.0600 
    162 H162        0.9798  -20.9361  -39.2903 H         1 UNK         0.0600 
    163 H163       -0.3300  -19.8687  -38.8102 H         1 UNK         0.0600 
    164 H164       -0.3978  -17.7578  -40.1149 H         1 UNK         0.3000 
    165 H165       -1.1042  -15.7978  -42.9491 H         1 UNK         0.0600 
    166 H166       -3.1947  -16.7836  -40.9403 H         1 UNK         0.0600 
    167 H167       -3.2837  -15.2890  -41.8721 H         1 UNK         0.0600 
    168 H168       -3.3279  -16.8427  -42.6912 H         1 UNK         0.0600 
    169 H169       -0.2572  -14.6013  -41.3480 H         1 UNK         0.3000 
    170 H170       -0.7210  -14.2062  -37.9459 H         1 UNK         0.0600 
    171 H171        1.1766  -15.8200  -37.7213 H         1 UNK         0.0600 
    172 H172        1.9620  -15.1155  -39.1294 H         1 UNK         0.0600 
    173 H173        1.7507  -14.1622  -37.6600 H         1 UNK         0.0600 
    174 H174        1.0538  -12.9360  -39.8066 H         1 UNK         0.3000 
    175 H175       -1.2025  -11.0200  -41.5979 H         1 UNK         0.0600 
    176 H176        0.3139   -9.8922  -39.1812 H         1 UNK         0.0600 
    177 H177       -0.2130   -8.9744  -40.5930 H         1 UNK         0.0600 
    178 H178       -1.4014   -9.6709  -39.5044 H         1 UNK         0.0600 
    179 H179        1.5919  -10.6848  -41.1356 H         1 UNK         0.3000 
    180 H180        3.1253  -11.3620  -42.5191 H         1 UNK         0.0600 
    181 H181        2.7472  -14.3949  -42.6931 H         1 UNK         0.0600 
    182 H182        3.3200  -13.4930  -41.2979 H         1 UNK         0.0600 
    183 H183        4.3040  -13.5692  -42.7524 H         1 UNK         0.0600 
    184 H184        2.9174  -13.0552  -44.8346 H         1 UNK         0.3000 
    185 H185        1.7485  -10.7303  -47.1097 H         1 UNK         0.0600 
    186 H186        3.9813  -10.3306  -48.1354 H         1 UNK         0.0600 
    187 H187        3.7460   -9.2939  -46.7386 H         1 UNK         0.0600 
    188 H188        4.7730  -10.7162  -46.6068 H         1 UNK         0.0600 
    189 H189        3.7641  -12.8571  -47.2224 H         1 UNK         0.3000 
    190 H190       -1.0995  -21.3795  -46.0544 H         1 UNK         0.3000 
    191 H191       -2.7015  -23.1534  -44.4056 H         1 UNK         0.0600 
    192 H192       -0.7888  -23.0099  -42.8608 H         1 UNK         0.0600 
    193 H193       -1.1830  -21.4010  -43.4503 H         1 UNK         0.0600 
    194 H194        0.2129  -22.2609  -44.0946 H         1 UNK         0.0600 
    195 H195        0.0288  -23.4989  -46.6515 H         1 UNK         0.3000 
    196 H196        0.5147  -26.3150  -46.0652 H         1 UNK         0.0600 
    197 H197        1.5138  -24.5153  -48.3388 H         1 UNK         0.0600 
    198 H198        2.3549  -24.8280  -46.8216 H         1 UNK         0.0600 
    199 H199        2.1019  -26.1315  -47.9720 H         1 UNK         0.0600 
    200 H200       -1.1171  -24.4136  -48.6212 H         1 UNK         0.3000 
    201 H201       -1.9144  -26.6588  -50.2156 H         1 UNK         0.0600 
    202 H202       -2.9940  -23.7919  -50.1813 H         1 UNK         0.0600 
    203 H203       -3.1224  -24.9424  -51.5018 H         1 UNK         0.0600 
    204 H204       -1.5528  -24.3050  -51.0582 H         1 UNK         0.0600 
    205 H205       -3.1673  -25.5376  -47.2681 H         1 UNK         0.3000 
    206 H206       -4.9389  -25.9274  -46.0051 H         1 UNK         0.0600 
    207 H207       -4.5443  -28.3330  -46.5445 H         1 UNK         0.0600 
    208 H208       -6.2476  -27.9986  -46.2755 H         1 UNK         0.0600 
    209 H209       -5.6500  -28.2196  -47.9128 H         1 UNK         0.0600 
    210 H210       -5.1716  -23.8077  -47.4023 H         1 UNK         0.3000 
    211 H211       -6.4720  -22.1635  -48.0003 H         1 UNK         0.0600 
    212 H212       -8.8586  -22.1344  -47.4521 H         1 UNK         0.0600 
    213 H213       -7.9878  -22.9604  -46.1720 H         1 UNK         0.0600 
    214 H214       -8.9154  -23.8866  -47.3523 H         1 UNK         0.0600 
    215 H215       -5.9613  -24.5650  -49.9915 H         1 UNK         0.3000 
    216 H216       -7.8487  -23.9754  -52.1419 H         1 UNK         0.0600 
    217 H217       -5.2304  -25.5604  -52.1409 H         1 UNK         0.0600 
    218 H218       -6.3945  -25.4885  -53.4529 H         1 UNK         0.0600 
    219 H219       -6.8432  -26.2283  -51.9225 H         1 UNK         0.0600 
    220 H220       -7.6341  -21.6727  -52.1472 H         1 UNK         0.3000 
    221 H221       -5.3624  -20.1459  -52.4993 H         1 UNK         0.0600 
    222 H222       -7.5777  -19.2099  -51.9702 H         1 UNK         0.0600 
    223 H223       -8.1754  -19.6208  -53.5788 H         1 UNK         0.0600 
    224 H224       -6.9137  -18.4081  -53.3847 H         1 UNK         0.0600 
    225 H225       -7.1846  -21.8646  -55.0099 H         1 UNK         0.3000 
    226 H226       -5.9649  -20.7685  -57.3162 H         1 UNK         0.0600 
    227 H227       -7.1949  -23.5397  -56.8486 H         1 UNK         0.0600 
    228 H228       -8.0621  -22.0936  -57.3687 H         1 UNK         0.0600 
    229 H229       -6.8637  -22.8262  -58.4226 H         1 UNK         0.0600 
    230 H230       -4.7525  -23.1512  -55.0263 H         1 UNK         0.3000 
    231 H231       -2.4652  -23.9062  -56.7641 H         1 UNK         0.0600 
    232 H232       -3.2759  -24.8548  -53.9649 H         1 UNK         0.0600 
    233 H233       -1.9106  -25.4471  -54.9002 H         1 UNK         0.0600 
    234 H234       -3.5490  -25.7227  -55.4722 H         1 UNK         0.0600 
    235 H235       -3.2215  -22.3416  -53.6169 H         1 UNK         0.3000 
    236 H236       -0.6294  -21.7441  -52.8155 H         1 UNK         0.0600 
    237 H237       -2.6557  -21.6722  -51.3553 H         1 UNK         0.0600 
    238 H238       -1.7134  -20.1921  -51.2236 H         1 UNK         0.0600 
    239 H239       -3.1835  -20.1991  -52.1695 H         1 UNK         0.0600 
    240 H240       -2.8315  -19.6618  -54.7715 H         1 UNK         0.3000 
    241 H241       -0.9022  -17.5051  -54.9382 H         1 UNK         0.0600 
    242 H242        0.2050  -19.9507  -57.8867 H         1 UNK         0.3800 
    243 H243       -0.6296  -20.5198  -56.4643 H         1 UNK         0.3800 
    244 H244       -3.4024  -17.8876  -56.6247 H         1 UNK         0.0800 
    245 H245       -2.4814  -16.4176  -56.4724 H         1 UNK         0.0800 
    246 H246       -2.1665  -15.0756  -54.3830 H         1 UNK         0.0800 
    247 H247       -3.5387  -14.7366  -53.3591 H         1 UNK         0.0800 
@<TRIPOS>BOND
     1    1    2 1    
     2    1  127 1    
     3    1  128 1    
     4    1  129 1    
     5    2    3 2    
     6    2    4 am   BACKBONE|DICT|INTERRES
     7    4    5 1    
     8    4  130 1    
     9    5    6 1    
    10    5   65 1    
    11    5  131 1    
    12    6    7 1    
    13    6  132 1    
    14    6  133 1    
    15    7    8 1    
    16    8    9 1    
    17    8  134 1    
    18    8  135 1    
    19    9   10 ar   
    20    9   14 ar   
    21   10   11 ar   
    22   10  136 1    
    23   11   12 ar   
    24   11  126 1    
    25   12   13 ar   
    26   12  137 1    
    27   13   14 ar   
    28   13   15 1    
    29   14  138 1    
    30   15   16 1    
    31   15  139 1    
    32   15  140 1    
    33   16   17 1    
    34   17   18 1    
    35   17  141 1    
    36   17  142 1    
    37   18   19 1    
    38   18   67 1    
    39   18  143 1    
    40   19   20 am   BACKBONE|DICT|INTERRES
    41   19  144 1    
    42   20   21 2    
    43   20   22 1    
    44   22   23 1    
    45   22   24 1    
    46   22  145 1    
    47   23  146 1    
    48   23  147 1    
    49   23  148 1    
    50   24   25 am   BACKBONE|DICT|INTERRES
    51   24  149 1    
    52   25   26 2    
    53   25   27 1    
    54   27   28 1    
    55   27   29 1    
    56   27  150 1    
    57   28  151 1    
    58   28  152 1    
    59   28  153 1    
    60   29   30 am   BACKBONE|DICT|INTERRES
    61   29  154 1    
    62   30   31 2    
    63   30   32 1    
    64   32   33 1    
    65   32   34 1    
    66   32  155 1    
    67   33  156 1    
    68   33  157 1    
    69   33  158 1    
    70   34   35 am   BACKBONE|DICT|INTERRES
    71   34  159 1    
    72   35   36 2    
    73   35   37 1    
    74   37   38 1    
    75   37   39 1    
    76   37  160 1    
    77   38  161 1    
    78   38  162 1    
    79   38  163 1    
    80   39   40 am   BACKBONE|DICT|INTERRES
    81   39  164 1    
    82   40   41 2    
    83   40   42 1    
    84   42   43 1    
    85   42   44 1    
    86   42  165 1    
    87   43  166 1    
    88   43  167 1    
    89   43  168 1    
    90   44   45 am   BACKBONE|DICT|INTERRES
    91   44  169 1    
    92   45   46 2    
    93   45   47 1    
    94   47   48 1    
    95   47   49 1    
    96   47  170 1    
    97   48  171 1    
    98   48  172 1    
    99   48  173 1    
   100   49   50 am   BACKBONE|DICT|INTERRES
   101   49  174 1    
   102   50   51 2    
   103   50   52 1    
   104   52   53 1    
   105   52   54 1    
   106   52  175 1    
   107   53  176 1    
   108   53  177 1    
   109   53  178 1    
   110   54   55 am   BACKBONE|DICT|INTERRES
   111   54  179 1    
   112   55   56 2    
   113   55   57 1    
   114   57   58 1    
   115   57   59 1    
   116   57  180 1    
   117   58  181 1    
   118   58  182 1    
   119   58  183 1    
   120   59   60 am   BACKBONE|DICT|INTERRES
   121   59  184 1    
   122   60   61 2    
   123   60   62 1    
   124   62   63 1    
   125   62   64 1    
   126   62  185 1    
   127   63  186 1    
   128   63  187 1    
   129   63  188 1    
   130   64   65 am   BACKBONE|DICT|INTERRES
   131   64  189 1    
   132   65   66 2    
   133   67   68 2    
   134   67   69 am   BACKBONE|DICT|INTERRES
   135   69   70 1    
   136   69  190 1    
   137   70   71 1    
   138   70   72 1    
   139   70  191 1    
   140   71  192 1    
   141   71  193 1    
   142   71  194 1    
   143   72   73 2    
   144   72   74 am   BACKBONE|DICT|INTERRES
   145   74   75 1    
   146   74  195 1    
   147   75   76 1    
   148   75   77 1    
   149   75  196 1    
   150   76  197 1    
   151   76  198 1    
   152   76  199 1    
   153   77   78 2    
   154   77   79 am   BACKBONE|DICT|INTERRES
   155   79   80 1    
   156   79  200 1    
   157   80   81 1    
   158   80   82 1    
   159   80  201 1    
   160   81  202 1    
   161   81  203 1    
   162   81  204 1    
   163   82   83 2    
   164   82   84 am   BACKBONE|DICT|INTERRES
   165   84   85 1    
   166   84  205 1    
   167   85   86 1    
   168   85   87 1    
   169   85  206 1    
   170   86  207 1    
   171   86  208 1    
   172   86  209 1    
   173   87   88 2    
   174   87   89 am   BACKBONE|DICT|INTERRES
   175   89   90 1    
   176   89  210 1    
   177   90   91 1    
   178   90   92 1    
   179   90  211 1    
   180   91  212 1    
   181   91  213 1    
   182   91  214 1    
   183   92   93 2    
   184   92   94 am   BACKBONE|DICT|INTERRES
   185   94   95 1    
   186   94  215 1    
   187   95   96 1    
   188   95   97 1    
   189   95  216 1    
   190   96  217 1    
   191   96  218 1    
   192   96  219 1    
   193   97   98 2    
   194   97   99 am   BACKBONE|DICT|INTERRES
   195   99  100 1    
   196   99  220 1    
   197  100  101 1    
   198  100  102 1    
   199  100  221 1    
   200  101  222 1    
   201  101  223 1    
   202  101  224 1    
   203  102  103 2    
   204  102  104 am   BACKBONE|DICT|INTERRES
   205  104  105 1    
   206  104  225 1    
   207  105  106 1    
   208  105  107 1    
   209  105  226 1    
   210  106  227 1    
   211  106  228 1    
   212  106  229 1    
   213  107  108 2    
   214  107  109 am   BACKBONE|DICT|INTERRES
   215  109  110 1    
   216  109  230 1    
   217  110  111 1    
   218  110  112 1    
   219  110  231 1    
   220  111  232 1    
   221  111  233 1    
   222  111  234 1    
   223  112  113 2    
   224  112  114 am   BACKBONE|DICT|INTERRES
   225  114  115 1    
   226  114  235 1    
   227  115  116 1    
   228  115  117 1    
   229  115  236 1    
   230  116  237 1    
   231  116  238 1    
   232  116  239 1    
   233  117  118 2    
   234  117  119 am   BACKBONE|DICT|INTERRES
   235  119  120 1    
   236  119  240 1    
   237  120  121 1    
   238  120  124 1    
   239  120  241 1    
   240  121  122 am   BACKBONE|DICT|INTERRES
   241  121  123 2    
   242  122  242 1    
   243  122  243 1    
   244  124  125 1    
   245  124  244 1    
   246  124  245 1    
   247  125  126 1    
   248  126  246 1    
   249  126  247 1    
@<TRIPOS>SUBSTRUCTURE
     1 UNK         1 GROUP             0       ****    0 ROOT    
