@<TRIPOS>MOLECULE
3R540
247   249    1
SMALL
USER_CHARGES


@<TRIPOS>ATOM
      1 CA          7.2170  -13.6160  -46.5024 C.3       0 UNK        -0.1800 
      2 C           5.9291  -14.3089  -46.9228 C.2       0 UNK         0.5000 
      3 O           5.3928  -15.1187  -46.1667 O.2       0 UNK        -0.5000 
      4 N           5.4204  -13.9860  -48.1181 N.am      1 UNK        -0.5000 
      5 CA          4.2079  -14.5508  -48.7275 C.3       1 UNK         0.1400 
      6 C6          4.2454  -14.4395  -50.2720 C.3       23 UNK        -0.0398 
      7 S7          5.5815  -15.4670  -50.9736 S.3       23 UNK        -0.2404 
      8 C8          4.9077  -15.9100  -52.6109 C.3       23 UNK        -0.0205 
      9 C9          3.5722  -16.6512  -52.5776 C.ar      23 UNK        -0.0193 
     10 C10         2.6115  -16.3636  -53.5519 C.ar      23 UNK        -0.1150 
     11 C11         1.3880  -17.0378  -53.5725 C.ar      23 UNK        -0.0193 
     12 C12         1.1188  -17.9990  -52.5957 C.ar      23 UNK        -0.1150 
     13 C13         2.0694  -18.3033  -51.6171 C.ar      23 UNK        -0.0193 
     14 C14         3.2970  -17.6338  -51.6179 C.ar      23 UNK        -0.1150 
     15 C15         1.7847  -19.3892  -50.5921 C.3       23 UNK        -0.0205 
     16 S16         1.3925  -18.7035  -48.9501 S.3       23 UNK        -0.2404 
     17 C17         0.2585  -19.9797  -48.3115 C.3       23 UNK        -0.0398 
     18 CA          0.9351  -21.3509  -48.0559 C.3       11 UNK         0.1400 
     19 N           1.8140  -21.3236  -46.8885 N.am      11 UNK        -0.5000 
     20 C           2.8285  -22.1716  -46.6734 C.2       10 UNK         0.5000 
     21 O           3.1704  -23.0404  -47.4783 O.2       10 UNK        -0.5000 
     22 CA          3.5800  -22.0142  -45.3326 C.3       10 UNK         0.1400 
     23 CB          4.9769  -22.6692  -45.3312 C.3       10 UNK        -0.1800 
     24 N           3.6454  -20.6182  -44.8914 N.am      10 UNK        -0.5000 
     25 C           4.2459  -19.5882  -45.5070 C.2       9 UNK         0.5000 
     26 O           4.9789  -19.7023  -46.4896 O.2       9 UNK        -0.5000 
     27 CA          3.9462  -18.1832  -44.9514 C.3       9 UNK         0.1400 
     28 CB          2.9960  -17.4378  -45.8972 C.3       9 UNK        -0.1800 
     29 N           3.3222  -18.2198  -43.6288 N.am      9 UNK        -0.5000 
     30 C           3.9841  -18.2466  -42.4654 C.2       8 UNK         0.5000 
     31 O           5.2110  -18.2080  -42.3703 O.2       8 UNK        -0.5000 
     32 CA          3.1219  -18.3481  -41.1916 C.3       8 UNK         0.1400 
     33 CB          2.7643  -16.9457  -40.6762 C.3       8 UNK        -0.1800 
     34 N           1.8873  -19.1096  -41.3994 N.am      8 UNK        -0.5000 
     35 C           1.8344  -20.4283  -41.6361 C.2       7 UNK         0.5000 
     36 O           2.8237  -21.1593  -41.6677 O.2       7 UNK        -0.5000 
     37 CA          0.4469  -21.0205  -41.9401 C.3       7 UNK         0.1400 
     38 CB         -0.2460  -21.4812  -40.6498 C.3       7 UNK        -0.1800 
     39 N          -0.4306  -20.0903  -42.6517 N.am      7 UNK        -0.5000 
     40 C          -0.2327  -19.6459  -43.8980 C.2       6 UNK         0.5000 
     41 O           0.7562  -19.9225  -44.5764 O.2       6 UNK        -0.5000 
     42 CA         -1.3125  -18.7275  -44.4832 C.3       6 UNK         0.1400 
     43 CB         -2.6930  -19.4080  -44.5012 C.3       6 UNK        -0.1800 
     44 N          -1.3656  -17.4128  -43.8483 N.am      6 UNK        -0.5000 
     45 C          -1.7628  -17.0809  -42.6121 C.2       5 UNK         0.5000 
     46 O          -2.0643  -17.8926  -41.7363 O.2       5 UNK        -0.5000 
     47 CA         -1.8678  -15.5719  -42.3268 C.3       5 UNK         0.1400 
     48 CB         -0.5306  -15.0230  -41.8057 C.3       5 UNK        -0.1800 
     49 N          -2.2662  -14.8355  -43.5307 N.am      5 UNK        -0.5000 
     50 C          -3.5307  -14.7286  -43.9667 C.2       4 UNK         0.5000 
     51 O          -4.5070  -15.1278  -43.3310 O.2       4 UNK        -0.5000 
     52 CA         -3.7469  -14.0774  -45.3484 C.3       4 UNK         0.1400 
     53 CB         -3.9004  -12.5554  -45.2073 C.3       4 UNK        -0.1800 
     54 N          -2.6656  -14.3636  -46.2930 N.am      4 UNK        -0.5000 
     55 C          -2.4363  -15.5576  -46.8595 C.2       3 UNK         0.5000 
     56 O          -3.1701  -16.5344  -46.7156 O.2       3 UNK        -0.5000 
     57 CA         -1.1493  -15.6996  -47.7005 C.3       3 UNK         0.1400 
     58 CB         -1.4559  -15.5557  -49.1991 C.3       3 UNK        -0.1800 
     59 N          -0.0820  -14.7600  -47.3389 N.am      3 UNK        -0.5000 
     60 C           0.4986  -14.6678  -46.1362 C.2       2 UNK         0.5000 
     61 O           0.1658  -15.3616  -45.1741 O.2       2 UNK        -0.5000 
     62 CA          1.6380  -13.6386  -45.9980 C.3       2 UNK         0.1400 
     63 CB          2.0819  -13.4482  -44.5362 C.3       2 UNK        -0.1800 
     64 N           2.7988  -14.0358  -46.7901 N.am      2 UNK        -0.5000 
     65 C           2.9246  -13.9407  -48.1180 C.2       1 UNK         0.5000 
     66 O           2.0772  -13.4061  -48.8366 O.2       1 UNK        -0.5000 
     67 C          -0.1371  -22.4459  -47.9006 C.2       11 UNK         0.5000 
     68 O          -0.5160  -22.7980  -46.7800 O.2       11 UNK        -0.5000 
     69 N          -0.6558  -22.9124  -49.0470 N.am      12 UNK        -0.5000 
     70 CA         -1.6980  -23.9385  -49.1638 C.3       12 UNK         0.1400 
     71 CB         -1.9542  -24.2264  -50.6513 C.3       12 UNK        -0.1800 
     72 C          -3.0228  -23.5890  -48.4611 C.2       12 UNK         0.5000 
     73 O          -3.7545  -24.5011  -48.0777 O.2       12 UNK        -0.5000 
     74 N          -3.2875  -22.2889  -48.2584 N.am      13 UNK        -0.5000 
     75 CA         -4.4685  -21.7377  -47.5874 C.3       13 UNK         0.1400 
     76 CB         -4.3782  -20.2032  -47.5731 C.3       13 UNK        -0.1800 
     77 C          -4.7239  -22.2726  -46.1654 C.2       13 UNK         0.5000 
     78 O          -5.8656  -22.2388  -45.7085 O.2       13 UNK        -0.5000 
     79 N          -3.6774  -22.7950  -45.5114 N.am      14 UNK        -0.5000 
     80 CA         -3.7494  -23.4620  -44.2127 C.3       14 UNK         0.1400 
     81 CB         -2.3184  -23.7038  -43.7076 C.3       14 UNK        -0.1800 
     82 C          -4.5598  -24.7782  -44.2307 C.2       14 UNK         0.5000 
     83 O          -5.0064  -25.2116  -43.1677 O.2       14 UNK        -0.5000 
     84 N          -4.7424  -25.3831  -45.4147 N.am      15 UNK        -0.5000 
     85 CA         -5.5202  -26.6074  -45.6158 C.3       15 UNK         0.1400 
     86 CB         -4.5598  -27.7726  -45.9038 C.3       15 UNK        -0.1800 
     87 C          -6.5508  -26.4654  -46.7500 C.2       15 UNK         0.5000 
     88 O          -7.6666  -26.9686  -46.6163 O.2       15 UNK        -0.5000 
     89 N          -6.1704  -25.7967  -47.8462 N.am      16 UNK        -0.5000 
     90 CA         -6.9565  -25.6804  -49.0773 C.3       16 UNK         0.1400 
     91 CB         -5.9870  -25.6941  -50.2720 C.3       16 UNK        -0.1800 
     92 C          -7.8455  -24.4230  -49.1269 C.2       16 UNK         0.5000 
     93 O          -8.5307  -24.2205  -50.1300 O.2       16 UNK        -0.5000 
     94 N          -7.7989  -23.5825  -48.0822 N.am      17 UNK        -0.5000 
     95 CA         -8.4865  -22.2931  -47.9014 C.3       17 UNK         0.1400 
     96 CB        -10.0174  -22.4394  -47.9957 C.3       17 UNK        -0.1800 
     97 C          -7.9719  -21.1618  -48.8166 C.2       17 UNK         0.5000 
     98 O          -7.7923  -20.0412  -48.3401 O.2       17 UNK        -0.5000 
     99 N          -7.7062  -21.4710  -50.0896 N.am      18 UNK        -0.5000 
    100 CA        -7.0465  -20.5978  -51.0546 C.3       18 UNK         0.1400 
    101 CB        -7.7022  -20.7883  -52.4307 C.3       18 UNK        -0.1800 
    102 C         -5.5549  -20.9539  -51.1283 C.2       18 UNK         0.5000 
    103 O         -5.2056  -22.1364  -51.1385 O.2       18 UNK        -0.5000 
    104 N         -4.6969  -19.9322  -51.2246 N.am      19 UNK        -0.5000 
    105 CA        -3.2454  -20.0583  -51.3687 C.3       19 UNK         0.1400 
    106 CB        -2.5757  -18.8233  -50.7383 C.3       19 UNK        -0.1800 
    107 C         -2.8576  -20.2606  -52.8460 C.2       19 UNK         0.5000 
    108 O         -2.0827  -19.4768  -53.3972 O.2       19 UNK        -0.5000 
    109 N         -3.4492  -21.2862  -53.4750 N.am      20 UNK        -0.5000 
    110 CA        -3.3725  -21.6009  -54.9043 C.3       20 UNK         0.1400 
    111 CB        -1.9695  -22.1431  -55.2606 C.3       20 UNK        -0.1800 
    112 C         -3.8251  -20.3908  -55.7507 C.2       20 UNK         0.5000 
    113 O         -4.9698  -19.9553  -55.6081 O.2       20 UNK        -0.5000 
    114 N         -2.9159  -19.8281  -56.5582 N.am      21 UNK        -0.5000 
    115 CA        -3.1205  -18.6141  -57.3545 C.3       21 UNK         0.1400 
    116 CB        -1.8859  -18.3920  -58.2418 C.3       21 UNK        -0.1800 
    117 C         -3.4117  -17.3498  -56.5174 C.2       21 UNK         0.5000 
    118 O         -4.0277  -16.4170  -57.0347 O.2       21 UNK        -0.5000 
    119 N         -2.9828  -17.3470  -55.2492 N.am      22 UNK        -0.5000 
    120 CA        -3.2567  -16.2935  -54.2607 C.3       22 UNK         0.1400 
    121 C         -4.5381  -16.5662  -53.4164 C.2       22 UNK         0.5000 
    122 N         -5.3162  -17.6114  -53.6809 N.am      22 UNK        -0.7600 
    123 O         -4.8540  -15.7978  -52.5130 O.2       22 UNK        -0.5000 
    124 C124       -2.0134  -16.0100  -53.3741 C.3       23 UNK        -0.0398 
    125 S125       -0.6376  -15.2946  -54.3372 S.3       23 UNK        -0.2404 
    126 C126        0.3859  -16.7594  -54.6824 C.3       23 UNK        -0.0205 
    127 H127        7.5755  -12.9270  -47.2675 H         1 UNK         0.0600 
    128 H128        7.9965  -14.3552  -46.3179 H         1 UNK         0.0600 
    129 H129        7.0561  -13.0518  -45.5838 H         1 UNK         0.0600 
    130 H130        5.9025  -13.3005  -48.6817 H         1 UNK         0.3000 
    131 H131        4.1708  -15.6152  -48.4851 H         1 UNK         0.0600 
    132 H132        3.2943  -14.7631  -50.6972 H         1 UNK         0.0800 
    133 H133        4.3848  -13.4044  -50.5878 H         1 UNK         0.0800 
    134 H134        5.6357  -16.5359  -53.1281 H         1 UNK         0.0800 
    135 H135        4.8182  -14.9941  -53.1973 H         1 UNK         0.0800 
    136 H136        2.8196  -15.6214  -54.3100 H         1 UNK         0.1150 
    137 H137        0.1782  -18.5288  -52.6142 H         1 UNK         0.1150 
    138 H138        4.0359  -17.8811  -50.8688 H         1 UNK         0.1150 
    139 H139        0.9625  -20.0154  -50.9412 H         1 UNK         0.0800 
    140 H140        2.6527  -20.0445  -50.5061 H         1 UNK         0.0800 
    141 H141       -0.5560  -20.0681  -49.0307 H         1 UNK         0.0800 
    142 H142       -0.1975  -19.6051  -47.3953 H         1 UNK         0.0800 
    143 H143        1.5368  -21.6132  -48.9280 H         1 UNK         0.0600 
    144 H144        1.5458  -20.6961  -46.1358 H         1 UNK         0.3000 
    145 H145        2.9746  -22.5334  -44.5882 H         1 UNK         0.0600 
    146 H146        5.4752  -22.5310  -44.3718 H         1 UNK         0.0600 
    147 H147        4.9035  -23.7431  -45.5062 H         1 UNK         0.0600 
    148 H148        5.6213  -22.2567  -46.1078 H         1 UNK         0.0600 
    149 H149        3.0484  -20.3921  -44.1082 H         1 UNK         0.3000 
    150 H150        4.8873  -17.6314  -44.9008 H         1 UNK         0.0600 
    151 H151        3.4320  -17.3329  -46.8909 H         1 UNK         0.0600 
    152 H152        2.7937  -16.4388  -45.5191 H         1 UNK         0.0600 
    153 H153        2.0410  -17.9524  -46.0071 H         1 UNK         0.0600 
    154 H154        2.3143  -18.2782  -43.6139 H         1 UNK         0.3000 
    155 H155        3.7125  -18.8566  -40.4265 H         1 UNK         0.0600 
    156 H156        3.6648  -16.3688  -40.4610 H         1 UNK         0.0600 
    157 H157        2.1844  -16.9975  -39.7546 H         1 UNK         0.0600 
    158 H158        2.1843  -16.3840  -41.4090 H         1 UNK         0.0600 
    159 H159        1.0209  -18.5917  -41.3868 H         1 UNK         0.3000 
    160 H160        0.5954  -21.8941  -42.5786 H         1 UNK         0.0600 
    161 H161       -0.4542  -20.6430  -39.9835 H         1 UNK         0.0600 
    162 H162        0.3766  -22.1906  -40.1031 H         1 UNK         0.0600 
    163 H163       -1.1909  -21.9797  -40.8676 H         1 UNK         0.0600 
    164 H164       -1.2302  -19.7253  -42.1452 H         1 UNK         0.3000 
    165 H165       -1.0348  -18.5335  -45.5192 H         1 UNK         0.0600 
    166 H166       -3.4310  -18.7849  -45.0062 H         1 UNK         0.0600 
    167 H167       -2.6368  -20.3542  -45.0356 H         1 UNK         0.0600 
    168 H168       -3.0704  -19.6239  -43.5018 H         1 UNK         0.0600 
    169 H169       -1.0301  -16.6510  -44.4309 H         1 UNK         0.3000 
    170 H170       -2.6205  -15.4259  -41.5493 H         1 UNK         0.0600 
    171 H171       -0.2401  -15.5230  -40.8810 H         1 UNK         0.0600 
    172 H172        0.2768  -15.1676  -42.5236 H         1 UNK         0.0600 
    173 H173       -0.5995  -13.9567  -41.5903 H         1 UNK         0.0600 
    174 H174       -1.5148  -14.5335  -44.1366 H         1 UNK         0.3000 
    175 H175       -4.6756  -14.4769  -45.7617 H         1 UNK         0.0600 
    176 H176       -4.7162  -12.3071  -44.5270 H         1 UNK         0.0600 
    177 H177       -2.9938  -12.0928  -44.8152 H         1 UNK         0.0600 
    178 H178       -4.1271  -12.0910  -46.1673 H         1 UNK         0.0600 
    179 H179       -2.0182  -13.6137  -46.4848 H         1 UNK         0.3000 
    180 H180       -0.7679  -16.7083  -47.5289 H         1 UNK         0.0600 
    181 H181       -2.2760  -16.2093  -49.4963 H         1 UNK         0.0600 
    182 H182       -1.7438  -14.5353  -49.4546 H         1 UNK         0.0600 
    183 H183       -0.5906  -15.8245  -49.8061 H         1 UNK         0.0600 
    184 H184        0.2945  -14.1863  -48.0858 H         1 UNK         0.3000 
    185 H185        1.2674  -12.6794  -46.3652 H         1 UNK         0.0600 
    186 H186        1.2464  -13.1285  -43.9121 H         1 UNK         0.0600 
    187 H187        2.4777  -14.3705  -44.1086 H         1 UNK         0.0600 
    188 H188        2.8561  -12.6850  -44.4565 H         1 UNK         0.0600 
    189 H189        3.5583  -14.4882  -46.2892 H         1 UNK         0.3000 
    190 H190       -0.2743  -22.5817  -49.9213 H         1 UNK         0.3000 
    191 H191       -1.3168  -24.8491  -48.6973 H         1 UNK         0.0600 
    192 H192       -2.3235  -23.3453  -51.1773 H         1 UNK         0.0600 
    193 H193       -2.6997  -25.0136  -50.7737 H         1 UNK         0.0600 
    194 H194       -1.0463  -24.5625  -51.1525 H         1 UNK         0.0600 
    195 H195       -2.6124  -21.6204  -48.5903 H         1 UNK         0.3000 
    196 H196       -5.3322  -22.0273  -48.1849 H         1 UNK         0.0600 
    197 H197       -5.1198  -19.7638  -46.9040 H         1 UNK         0.0600 
    198 H198       -4.5727  -19.7877  -48.5579 H         1 UNK         0.0600 
    199 H199       -3.3971  -19.8532  -47.2539 H         1 UNK         0.0600 
    200 H200       -2.7739  -22.7968  -45.9677 H         1 UNK         0.3000 
    201 H201       -4.2465  -22.7838  -43.5159 H         1 UNK         0.0600 
    202 H202       -2.3232  -24.1704  -42.7218 H         1 UNK         0.0600 
    203 H203       -1.7610  -24.3573  -44.3800 H         1 UNK         0.0600 
    204 H204       -1.7678  -22.7667  -43.6202 H         1 UNK         0.0600 
    205 H205       -4.3342  -24.9627  -46.2427 H         1 UNK         0.3000 
    206 H206       -6.0840  -26.8506  -44.7129 H         1 UNK         0.0600 
    207 H207       -3.8827  -27.9389  -45.0658 H         1 UNK         0.0600 
    208 H208       -5.1078  -28.7012  -46.0686 H         1 UNK         0.0600 
    209 H209       -3.9540  -27.5843  -46.7912 H         1 UNK         0.0600 
    210 H210       -5.2329  -25.4005  -47.8937 H         1 UNK         0.3000 
    211 H211       -7.6155  -26.5459  -49.1711 H         1 UNK         0.0600 
    212 H212       -6.5287  -25.7169  -51.2183 H         1 UNK         0.0600 
    213 H213       -5.3405  -26.5715  -50.2483 H         1 UNK         0.0600 
    214 H214       -5.3506  -24.8086  -50.2839 H         1 UNK         0.0600 
    215 H215       -7.1874  -23.8429  -47.3210 H         1 UNK         0.3000 
    216 H216       -8.2615  -21.9872  -46.8789 H         1 UNK         0.0600 
    217 H217      -10.5115  -21.5061  -47.7232 H         1 UNK         0.0600 
    218 H218      -10.3824  -23.2104  -47.3172 H         1 UNK         0.0600 
    219 H219      -10.3455  -22.6949  -49.0034 H         1 UNK         0.0600 
    220 H220       -7.8660  -22.4307  -50.3816 H         1 UNK         0.3000 
    221 H221       -7.1556  -19.5523  -50.7586 H         1 UNK         0.0600 
    222 H222       -7.6327  -21.8227  -52.7705 H         1 UNK         0.0600 
    223 H223       -8.7574  -20.5159  -52.4042 H         1 UNK         0.0600 
    224 H224       -7.2223  -20.1630  -53.1850 H         1 UNK         0.0600 
    225 H225       -5.0592  -18.9904  -51.2607 H         1 UNK         0.3000 
    226 H226       -2.8969  -20.9377  -50.8252 H         1 UNK         0.0600 
    227 H227       -2.7471  -18.7811  -49.6636 H         1 UNK         0.0600 
    228 H228       -1.4962  -18.8304  -50.8894 H         1 UNK         0.0600 
    229 H229       -2.9616  -17.8995  -51.1674 H         1 UNK         0.0600 
    230 H230       -4.0997  -21.8442  -52.9336 H         1 UNK         0.3000 
    231 H231       -4.0959  -22.3956  -55.0917 H         1 UNK         0.0600 
    232 H232       -1.7356  -23.0265  -54.6663 H         1 UNK         0.0600 
    233 H233       -1.1815  -21.4112  -55.0798 H         1 UNK         0.0600 
    234 H234       -1.9166  -22.4416  -56.3084 H         1 UNK         0.0600 
    235 H235       -1.9911  -20.2321  -56.5871 H         1 UNK         0.3000 
    236 H236       -3.9838  -18.7827  -58.0014 H         1 UNK         0.0600 
    237 H237       -1.7132  -19.2436  -58.9002 H         1 UNK         0.0600 
    238 H238       -2.0129  -17.5135  -58.8759 H         1 UNK         0.0600 
    239 H239       -0.9855  -18.2384  -57.6453 H         1 UNK         0.0600 
    240 H240       -2.5267  -18.1749  -54.8805 H         1 UNK         0.3000 
    241 H241       -3.4782  -15.3673  -54.7939 H         1 UNK         0.0600 
    242 H242       -5.1008  -18.2531  -54.4352 H         1 UNK         0.3800 
    243 H243       -6.1775  -17.7143  -53.1716 H         1 UNK         0.3800 
    244 H244       -2.2543  -15.2940  -52.5867 H         1 UNK         0.0800 
    245 H245       -1.6769  -16.9128  -52.8667 H         1 UNK         0.0800 
    246 H246        0.9222  -16.5935  -55.6177 H         1 UNK         0.0800 
    247 H247       -0.2464  -17.6315  -54.8533 H         1 UNK         0.0800 
@<TRIPOS>BOND
     1    1    2 1    
     2    1  127 1    
     3    1  128 1    
     4    1  129 1    
     5    2    3 2    
     6    2    4 am   BACKBONE|DICT|INTERRES
     7    4    5 1    
     8    4  130 1    
     9    5    6 1    
    10    5   65 1    
    11    5  131 1    
    12    6    7 1    
    13    6  132 1    
    14    6  133 1    
    15    7    8 1    
    16    8    9 1    
    17    8  134 1    
    18    8  135 1    
    19    9   10 ar   
    20    9   14 ar   
    21   10   11 ar   
    22   10  136 1    
    23   11   12 ar   
    24   11  126 1    
    25   12   13 ar   
    26   12  137 1    
    27   13   14 ar   
    28   13   15 1    
    29   14  138 1    
    30   15   16 1    
    31   15  139 1    
    32   15  140 1    
    33   16   17 1    
    34   17   18 1    
    35   17  141 1    
    36   17  142 1    
    37   18   19 1    
    38   18   67 1    
    39   18  143 1    
    40   19   20 am   BACKBONE|DICT|INTERRES
    41   19  144 1    
    42   20   21 2    
    43   20   22 1    
    44   22   23 1    
    45   22   24 1    
    46   22  145 1    
    47   23  146 1    
    48   23  147 1    
    49   23  148 1    
    50   24   25 am   BACKBONE|DICT|INTERRES
    51   24  149 1    
    52   25   26 2    
    53   25   27 1    
    54   27   28 1    
    55   27   29 1    
    56   27  150 1    
    57   28  151 1    
    58   28  152 1    
    59   28  153 1    
    60   29   30 am   BACKBONE|DICT|INTERRES
    61   29  154 1    
    62   30   31 2    
    63   30   32 1    
    64   32   33 1    
    65   32   34 1    
    66   32  155 1    
    67   33  156 1    
    68   33  157 1    
    69   33  158 1    
    70   34   35 am   BACKBONE|DICT|INTERRES
    71   34  159 1    
    72   35   36 2    
    73   35   37 1    
    74   37   38 1    
    75   37   39 1    
    76   37  160 1    
    77   38  161 1    
    78   38  162 1    
    79   38  163 1    
    80   39   40 am   BACKBONE|DICT|INTERRES
    81   39  164 1    
    82   40   41 2    
    83   40   42 1    
    84   42   43 1    
    85   42   44 1    
    86   42  165 1    
    87   43  166 1    
    88   43  167 1    
    89   43  168 1    
    90   44   45 am   BACKBONE|DICT|INTERRES
    91   44  169 1    
    92   45   46 2    
    93   45   47 1    
    94   47   48 1    
    95   47   49 1    
    96   47  170 1    
    97   48  171 1    
    98   48  172 1    
    99   48  173 1    
   100   49   50 am   BACKBONE|DICT|INTERRES
   101   49  174 1    
   102   50   51 2    
   103   50   52 1    
   104   52   53 1    
   105   52   54 1    
   106   52  175 1    
   107   53  176 1    
   108   53  177 1    
   109   53  178 1    
   110   54   55 am   BACKBONE|DICT|INTERRES
   111   54  179 1    
   112   55   56 2    
   113   55   57 1    
   114   57   58 1    
   115   57   59 1    
   116   57  180 1    
   117   58  181 1    
   118   58  182 1    
   119   58  183 1    
   120   59   60 am   BACKBONE|DICT|INTERRES
   121   59  184 1    
   122   60   61 2    
   123   60   62 1    
   124   62   63 1    
   125   62   64 1    
   126   62  185 1    
   127   63  186 1    
   128   63  187 1    
   129   63  188 1    
   130   64   65 am   BACKBONE|DICT|INTERRES
   131   64  189 1    
   132   65   66 2    
   133   67   68 2    
   134   67   69 am   BACKBONE|DICT|INTERRES
   135   69   70 1    
   136   69  190 1    
   137   70   71 1    
   138   70   72 1    
   139   70  191 1    
   140   71  192 1    
   141   71  193 1    
   142   71  194 1    
   143   72   73 2    
   144   72   74 am   BACKBONE|DICT|INTERRES
   145   74   75 1    
   146   74  195 1    
   147   75   76 1    
   148   75   77 1    
   149   75  196 1    
   150   76  197 1    
   151   76  198 1    
   152   76  199 1    
   153   77   78 2    
   154   77   79 am   BACKBONE|DICT|INTERRES
   155   79   80 1    
   156   79  200 1    
   157   80   81 1    
   158   80   82 1    
   159   80  201 1    
   160   81  202 1    
   161   81  203 1    
   162   81  204 1    
   163   82   83 2    
   164   82   84 am   BACKBONE|DICT|INTERRES
   165   84   85 1    
   166   84  205 1    
   167   85   86 1    
   168   85   87 1    
   169   85  206 1    
   170   86  207 1    
   171   86  208 1    
   172   86  209 1    
   173   87   88 2    
   174   87   89 am   BACKBONE|DICT|INTERRES
   175   89   90 1    
   176   89  210 1    
   177   90   91 1    
   178   90   92 1    
   179   90  211 1    
   180   91  212 1    
   181   91  213 1    
   182   91  214 1    
   183   92   93 2    
   184   92   94 am   BACKBONE|DICT|INTERRES
   185   94   95 1    
   186   94  215 1    
   187   95   96 1    
   188   95   97 1    
   189   95  216 1    
   190   96  217 1    
   191   96  218 1    
   192   96  219 1    
   193   97   98 2    
   194   97   99 am   BACKBONE|DICT|INTERRES
   195   99  100 1    
   196   99  220 1    
   197  100  101 1    
   198  100  102 1    
   199  100  221 1    
   200  101  222 1    
   201  101  223 1    
   202  101  224 1    
   203  102  103 2    
   204  102  104 am   BACKBONE|DICT|INTERRES
   205  104  105 1    
   206  104  225 1    
   207  105  106 1    
   208  105  107 1    
   209  105  226 1    
   210  106  227 1    
   211  106  228 1    
   212  106  229 1    
   213  107  108 2    
   214  107  109 am   BACKBONE|DICT|INTERRES
   215  109  110 1    
   216  109  230 1    
   217  110  111 1    
   218  110  112 1    
   219  110  231 1    
   220  111  232 1    
   221  111  233 1    
   222  111  234 1    
   223  112  113 2    
   224  112  114 am   BACKBONE|DICT|INTERRES
   225  114  115 1    
   226  114  235 1    
   227  115  116 1    
   228  115  117 1    
   229  115  236 1    
   230  116  237 1    
   231  116  238 1    
   232  116  239 1    
   233  117  118 2    
   234  117  119 am   BACKBONE|DICT|INTERRES
   235  119  120 1    
   236  119  240 1    
   237  120  121 1    
   238  120  124 1    
   239  120  241 1    
   240  121  122 am   BACKBONE|DICT|INTERRES
   241  121  123 2    
   242  122  242 1    
   243  122  243 1    
   244  124  125 1    
   245  124  244 1    
   246  124  245 1    
   247  125  126 1    
   248  126  246 1    
   249  126  247 1    
@<TRIPOS>SUBSTRUCTURE
     1 UNK         1 GROUP             0       ****    0 ROOT    
