@<TRIPOS>MOLECULE
3R540
247   249    1
SMALL
USER_CHARGES


@<TRIPOS>ATOM
      1 CA          8.8782  -11.0473  -51.7658 C.3       0 UNK        -0.1800 
      2 C           7.8712  -12.0941  -51.3099 C.2       0 UNK         0.5000 
      3 O           8.0867  -13.2867  -51.5261 O.2       0 UNK        -0.5000 
      4 N           6.7772  -11.6535  -50.6803 N.am      1 UNK        -0.5000 
      5 CA          5.7030  -12.5030  -50.1610 C.3       1 UNK         0.1400 
      6 C6          4.6642  -12.8887  -51.2554 C.3       23 UNK        -0.0398 
      7 S7          4.0923  -14.6187  -51.1435 S.3       23 UNK        -0.2404 
      8 C8          2.7946  -14.4986  -49.8733 C.3       23 UNK        -0.0205 
      9 C9          1.8630  -15.7008  -49.8966 C.ar      23 UNK        -0.0193 
     10 C10         0.5220  -15.5400  -50.2572 C.ar      23 UNK        -0.1150 
     11 C11        -0.3485  -16.6328  -50.2629 C.ar      23 UNK        -0.0193 
     12 C12         0.1311  -17.8957  -49.9053 C.ar      23 UNK        -0.1150 
     13 C13         1.4705  -18.0722  -49.5493 C.ar      23 UNK        -0.0193 
     14 C14         2.3310  -16.9700  -49.5407 C.ar      23 UNK        -0.1150 
     15 C15         1.9798  -19.4501  -49.1590 C.3       23 UNK        -0.0205 
     16 S16         1.9526  -19.6440  -47.3557 S.3       23 UNK        -0.2404 
     17 C17         2.3016  -21.4160  -47.1444 C.3       23 UNK        -0.0398 
     18 CA          1.0709  -22.2958  -46.8118 C.3       11 UNK         0.1400 
     19 N           0.2974  -21.8583  -45.6418 N.am      11 UNK        -0.5000 
     20 C          -0.5159  -22.6839  -44.9645 C.2       10 UNK         0.5000 
     21 O          -0.6557  -23.8747  -45.2478 O.2       10 UNK        -0.5000 
     22 CA         -1.3406  -22.0933  -43.8074 C.3       10 UNK         0.1400 
     23 CB         -0.4764  -21.8911  -42.5538 C.3       10 UNK        -0.1800 
     24 N          -2.0183  -20.8470  -44.1634 N.am      10 UNK        -0.5000 
     25 C          -2.9925  -20.7533  -45.0798 C.2       9 UNK         0.5000 
     26 O          -3.4194  -21.7132  -45.7198 O.2       9 UNK        -0.5000 
     27 CA         -3.5714  -19.3527  -45.3535 C.3       9 UNK         0.1400 
     28 CB         -4.6498  -18.9941  -44.3212 C.3       9 UNK        -0.1800 
     29 N          -2.5473  -18.3107  -45.3828 N.am      9 UNK        -0.5000 
     30 C          -1.5611  -18.2567  -46.2896 C.2       8 UNK         0.5000 
     31 O          -1.4526  -19.0494  -47.2240 O.2       8 UNK        -0.5000 
     32 CA         -0.4921  -17.1703  -46.0805 C.3       8 UNK         0.1400 
     33 CB         -0.9977  -15.8009  -46.5577 C.3       8 UNK        -0.1800 
     34 N          -0.0596  -17.0745  -44.6865 N.am      8 UNK        -0.5000 
     35 C           0.4840  -18.0649  -43.9636 C.2       7 UNK         0.5000 
     36 O           0.7260  -19.1901  -44.3969 O.2       7 UNK        -0.5000 
     37 CA          0.7397  -17.7635  -42.4784 C.3       7 UNK         0.1400 
     38 CB          2.0123  -16.9230  -42.2909 C.3       7 UNK        -0.1800 
     39 N          -0.4011  -17.0874  -41.8609 N.am      7 UNK        -0.5000 
     40 C          -1.5891  -17.6655  -41.6333 C.2       6 UNK         0.5000 
     41 O          -1.8372  -18.8430  -41.8913 O.2       6 UNK        -0.5000 
     42 CA         -2.6934  -16.7682  -41.0453 C.3       6 UNK         0.1400 
     43 CB         -2.5719  -16.6921  -39.5160 C.3       6 UNK        -0.1800 
     44 N          -2.6743  -15.4144  -41.6011 N.am      6 UNK        -0.5000 
     45 C          -2.9945  -15.1157  -42.8678 C.2       5 UNK         0.5000 
     46 O          -3.3661  -15.9491  -43.6944 O.2       5 UNK        -0.5000 
     47 CA         -2.8175  -13.6442  -43.2932 C.3       5 UNK         0.1400 
     48 CB         -4.0420  -12.8115  -42.8853 C.3       5 UNK        -0.1800 
     49 N          -1.5998  -13.0151  -42.7648 N.am      5 UNK        -0.5000 
     50 C          -0.3598  -13.4663  -42.9935 C.2       4 UNK         0.5000 
     51 O          -0.1233  -14.5016  -43.6177 O.2       4 UNK        -0.5000 
     52 CA          0.8103  -12.6651  -42.3923 C.3       4 UNK         0.1400 
     53 CB          0.9872  -13.0164  -40.9066 C.3       4 UNK        -0.1800 
     54 N           2.0538  -12.9780  -43.0990 N.am      4 UNK        -0.5000 
     55 C           2.3392  -12.5597  -44.3375 C.2       3 UNK         0.5000 
     56 O           1.6977  -11.6905  -44.9345 O.2       3 UNK        -0.5000 
     57 CA          3.4982  -13.2833  -45.0439 C.3       3 UNK         0.1400 
     58 CB          2.9692  -14.5069  -45.8125 C.3       3 UNK        -0.1800 
     59 N           4.1706  -12.3935  -45.9854 N.am      3 UNK        -0.5000 
     60 C           5.1050  -11.4939  -45.6624 C.2       2 UNK         0.5000 
     61 O           5.5655  -11.3793  -44.5247 O.2       2 UNK        -0.5000 
     62 CA          5.6150  -10.5859  -46.8063 C.3       2 UNK         0.1400 
     63 CB          6.8283   -9.7334  -46.3912 C.3       2 UNK        -0.1800 
     64 N           5.9624  -11.3284  -48.0236 N.am      2 UNK        -0.5000 
     65 C           5.0943  -11.8156  -48.9215 C.2       1 UNK         0.5000 
     66 O           3.8739  -11.7089  -48.7942 O.2       1 UNK        -0.5000 
     67 C           0.1765  -22.5761  -48.0372 C.2       11 UNK         0.5000 
     68 O           0.4799  -23.5007  -48.7900 O.2       11 UNK        -0.5000 
     69 N          -0.9349  -21.8397  -48.1938 N.am      12 UNK        -0.5000 
     70 CA         -1.9617  -22.1275  -49.1976 C.3       12 UNK         0.1400 
     71 CB         -2.9838  -20.9881  -49.2525 C.3       12 UNK        -0.1800 
     72 C          -2.6701  -23.4719  -48.9537 C.2       12 UNK         0.5000 
     73 O          -2.8890  -24.2222  -49.9044 O.2       12 UNK        -0.5000 
     74 N          -2.9911  -23.7750  -47.6886 N.am      13 UNK        -0.5000 
     75 CA         -3.5481  -25.0604  -47.2675 C.3       13 UNK         0.1400 
     76 CB         -4.0011  -24.9857  -45.8026 C.3       13 UNK        -0.1800 
     77 C          -2.5704  -26.2269  -47.4958 C.2       13 UNK         0.5000 
     78 O          -2.9854  -27.2647  -48.0112 O.2       13 UNK        -0.5000 
     79 N          -1.2847  -26.0180  -47.1757 N.am      14 UNK        -0.5000 
     80 CA         -0.1980  -26.9692  -47.4332 C.3       14 UNK         0.1400 
     81 CB          1.0921  -26.4699  -46.7666 C.3       14 UNK        -0.1800 
     82 C           0.0327  -27.2353  -48.9353 C.2       14 UNK         0.5000 
     83 O           0.3325  -28.3679  -49.3134 O.2       14 UNK        -0.5000 
     84 N          -0.1543  -26.2001  -49.7654 N.am      15 UNK        -0.5000 
     85 CA         -0.1158  -26.2636  -51.2288 C.3       15 UNK         0.1400 
     86 CB          0.1282  -24.8475  -51.7775 C.3       15 UNK        -0.1800 
     87 C          -1.3856  -26.8770  -51.8600 C.2       15 UNK         0.5000 
     88 O          -1.4224  -27.0416  -53.0799 O.2       15 UNK        -0.5000 
     89 N          -2.3996  -27.1877  -51.0371 N.am      16 UNK        -0.5000 
     90 CA         -3.7162  -27.7280  -51.3940 C.3       16 UNK         0.1400 
     91 CB         -3.5949  -29.1041  -52.0818 C.3       16 UNK        -0.1800 
     92 C          -4.6034  -26.7357  -52.1768 C.2       16 UNK         0.5000 
     93 O          -5.5381  -27.1569  -52.8601 O.2       16 UNK        -0.5000 
     94 N          -4.3265  -25.4330  -52.0319 N.am      17 UNK        -0.5000 
     95 CA         -5.1336  -24.3347  -52.5669 C.3       17 UNK         0.1400 
     96 CB         -4.2002  -23.1710  -52.9274 C.3       17 UNK        -0.1800 
     97 C          -6.2270  -23.8865  -51.5735 C.2       17 UNK         0.5000 
     98 O          -7.0973  -23.0964  -51.9424 O.2       17 UNK        -0.5000 
     99 N          -6.1622  -24.3961  -50.3312 N.am      18 UNK        -0.5000 
    100 CA        -7.1584  -24.2962  -49.2537 C.3       18 UNK         0.1400 
    101 CB        -8.4340  -25.0687  -49.6484 C.3       18 UNK        -0.1800 
    102 C         -7.4737  -22.8582  -48.7889 C.2       18 UNK         0.5000 
    103 O         -8.5238  -22.6300  -48.1877 O.2       18 UNK        -0.5000 
    104 N         -6.5715  -21.9155  -49.0975 N.am      19 UNK        -0.5000 
    105 CA        -6.6844  -20.4661  -48.8935 C.3       19 UNK         0.1400 
    106 CB        -6.8161  -20.1205  -47.3958 C.3       19 UNK        -0.1800 
    107 C         -7.7715  -19.7897  -49.7604 C.2       19 UNK         0.5000 
    108 O         -8.0439  -18.6043  -49.5657 O.2       19 UNK        -0.5000 
    109 N         -8.3429  -20.5222  -50.7294 N.am      20 UNK        -0.5000 
    110 CA        -9.2199  -19.9825  -51.7727 C.3       20 UNK         0.1400 
    111 CB       -10.0635  -21.1236  -52.3608 C.3       20 UNK        -0.1800 
    112 C         -8.4022  -19.2822  -52.8754 C.2       20 UNK         0.5000 
    113 O         -8.8882  -18.3441  -53.5081 O.2       20 UNK        -0.5000 
    114 N         -7.1598  -19.7391  -53.0457 N.am      21 UNK        -0.5000 
    115 CA        -6.0845  -19.1285  -53.8094 C.3       21 UNK         0.1400 
    116 CB        -6.0209  -19.7751  -55.2035 C.3       21 UNK        -0.1800 
    117 C         -4.7889  -19.3598  -53.0141 C.2       21 UNK         0.5000 
    118 O         -4.8027  -20.1017  -52.0269 O.2       21 UNK        -0.5000 
    119 N         -3.6946  -18.7296  -53.4469 N.am      22 UNK        -0.5000 
    120 CA        -2.3512  -18.9567  -52.8927 C.3       22 UNK         0.1400 
    121 C         -1.7082  -20.2692  -53.4231 C.2       22 UNK         0.5000 
    122 N         -0.7675  -20.8465  -52.6874 N.am      22 UNK        -0.7600 
    123 O         -2.0208  -20.7485  -54.5108 O.2       22 UNK        -0.5000 
    124 C124       -1.4149  -17.7472  -53.1359 C.3       23 UNK        -0.0398 
    125 S125       -2.0506  -16.1887  -52.4251 S.3       23 UNK        -0.2404 
    126 C126       -1.8110  -16.4429  -50.6352 C.3       23 UNK        -0.0205 
    127 H127        9.8462  -11.2294  -51.2989 H         1 UNK         0.0600 
    128 H128        8.5600  -10.0374  -51.5056 H         1 UNK         0.0600 
    129 H129        9.0055  -11.0955  -52.8473 H         1 UNK         0.0600 
    130 H130        6.6551  -10.6617  -50.5228 H         1 UNK         0.3000 
    131 H131        6.1637  -13.4177  -49.7811 H         1 UNK         0.0600 
    132 H132        3.8117  -12.2082  -51.2873 H         1 UNK         0.0800 
    133 H133        5.1207  -12.8006  -52.2421 H         1 UNK         0.0800 
    134 H134        3.2604  -14.4247  -48.8904 H         1 UNK         0.0800 
    135 H135        2.2271  -13.5781  -50.0182 H         1 UNK         0.0800 
    136 H136        0.1497  -14.5629  -50.5315 H         1 UNK         0.1150 
    137 H137       -0.5408  -18.7414  -49.8882 H         1 UNK         0.1150 
    138 H138        3.3656  -17.0988  -49.2548 H         1 UNK         0.1150 
    139 H139        1.3653  -20.2236  -49.6214 H         1 UNK         0.0800 
    140 H140        2.9963  -19.5942  -49.5279 H         1 UNK         0.0800 
    141 H141        3.0200  -21.4986  -46.3280 H         1 UNK         0.0800 
    142 H142        2.8226  -21.7964  -48.0249 H         1 UNK         0.0800 
    143 H143        1.4933  -23.2664  -46.5442 H         1 UNK         0.0600 
    144 H144        0.3838  -20.8841  -45.3608 H         1 UNK         0.3000 
    145 H145       -2.1145  -22.8220  -43.5569 H         1 UNK         0.0600 
    146 H146       -1.0786  -21.5512  -41.7112 H         1 UNK         0.0600 
    147 H147        0.0006  -22.8255  -42.2558 H         1 UNK         0.0600 
    148 H148        0.3138  -21.1591  -42.7164 H         1 UNK         0.0600 
    149 H149       -1.7372  -20.0152  -43.6571 H         1 UNK         0.3000 
    150 H150       -4.0413  -19.3766  -46.3382 H         1 UNK         0.0600 
    151 H151       -5.4323  -19.7534  -44.2938 H         1 UNK         0.0600 
    152 H152       -5.1268  -18.0446  -44.5648 H         1 UNK         0.0600 
    153 H153       -4.2347  -18.9118  -43.3164 H         1 UNK         0.0600 
    154 H154       -2.5991  -17.5947  -44.6659 H         1 UNK         0.3000 
    155 H155        0.3782  -17.4264  -46.6832 H         1 UNK         0.0600 
    156 H156       -1.3200  -15.8451  -47.5979 H         1 UNK         0.0600 
    157 H157       -0.2127  -15.0474  -46.4922 H         1 UNK         0.0600 
    158 H158       -1.8443  -15.4540  -45.9654 H         1 UNK         0.0600 
    159 H159       -0.1894  -16.1677  -44.2403 H         1 UNK         0.3000 
    160 H160        0.8875  -18.7159  -41.9648 H         1 UNK         0.0600 
    161 H161        1.9334  -15.9513  -42.7762 H         1 UNK         0.0600 
    162 H162        2.8781  -17.4309  -42.7174 H         1 UNK         0.0600 
    163 H163        2.2215  -16.7548  -41.2344 H         1 UNK         0.0600 
    164 H164       -0.3022  -16.0999  -41.6820 H         1 UNK         0.3000 
    165 H165       -3.6559  -17.2237  -41.2883 H         1 UNK         0.0600 
    166 H166       -3.3940  -16.1218  -39.0833 H         1 UNK         0.0600 
    167 H167       -2.6003  -17.6885  -39.0729 H         1 UNK         0.0600 
    168 H168       -1.6373  -16.2220  -39.2075 H         1 UNK         0.0600 
    169 H169       -2.3747  -14.6695  -40.9896 H         1 UNK         0.3000 
    170 H170       -2.7461  -13.6285  -44.3827 H         1 UNK         0.0600 
    171 H171       -4.9604  -13.2490  -43.2793 H         1 UNK         0.0600 
    172 H172       -4.1461  -12.7506  -41.8013 H         1 UNK         0.0600 
    173 H173       -3.9756  -11.7953  -43.2743 H         1 UNK         0.0600 
    174 H174       -1.7250  -12.1672  -42.2306 H         1 UNK         0.3000 
    175 H175        0.5984  -11.5982  -42.4879 H         1 UNK         0.0600 
    176 H176        1.1880  -14.0790  -40.7629 H         1 UNK         0.0600 
    177 H177        1.8133  -12.4576  -40.4663 H         1 UNK         0.0600 
    178 H178        0.0914  -12.7712  -40.3347 H         1 UNK         0.0600 
    179 H179        2.6186  -13.7093  -42.6942 H         1 UNK         0.3000 
    180 H180        4.2165  -13.6257  -44.2957 H         1 UNK         0.0600 
    181 H181        3.7785  -15.0470  -46.3040 H         1 UNK         0.0600 
    182 H182        2.2451  -14.2196  -46.5760 H         1 UNK         0.0600 
    183 H183        2.4708  -15.2083  -45.1420 H         1 UNK         0.0600 
    184 H184        3.8049  -12.3656  -46.9313 H         1 UNK         0.3000 
    185 H185        4.8002   -9.8987  -47.0436 H         1 UNK         0.0600 
    186 H186        6.5938   -9.1090  -45.5281 H         1 UNK         0.0600 
    187 H187        7.6845  -10.3549  -46.1260 H         1 UNK         0.0600 
    188 H188        7.1349   -9.0651  -47.1962 H         1 UNK         0.0600 
    189 H189        6.9481  -11.4829  -48.1816 H         1 UNK         0.3000 
    190 H190       -1.1036  -21.0506  -47.5774 H         1 UNK         0.3000 
    191 H191       -1.4731  -22.1874  -50.1717 H         1 UNK         0.0600 
    192 H192       -2.5176  -20.0462  -49.5373 H         1 UNK         0.0600 
    193 H193       -3.7533  -21.2058  -49.9905 H         1 UNK         0.0600 
    194 H194       -3.4792  -20.8408  -48.2934 H         1 UNK         0.0600 
    195 H195       -2.8518  -23.0786  -46.9613 H         1 UNK         0.3000 
    196 H196       -4.4306  -25.2543  -47.8783 H         1 UNK         0.0600 
    197 H197       -4.4357  -25.9323  -45.4792 H         1 UNK         0.0600 
    198 H198       -4.7604  -24.2155  -45.6659 H         1 UNK         0.0600 
    199 H199       -3.1722  -24.7588  -45.1326 H         1 UNK         0.0600 
    200 H200       -1.0357  -25.1530  -46.7045 H         1 UNK         0.3000 
    201 H201       -0.4743  -27.9176  -46.9679 H         1 UNK         0.0600 
    202 H202        0.9450  -26.2914  -45.7012 H         1 UNK         0.0600 
    203 H203        1.4443  -25.5430  -47.2179 H         1 UNK         0.0600 
    204 H204        1.8910  -27.2054  -46.8670 H         1 UNK         0.0600 
    205 H205       -0.3221  -25.2836  -49.3636 H         1 UNK         0.3000 
    206 H206        0.7270  -26.8914  -51.5249 H         1 UNK         0.0600 
    207 H207        1.0486  -24.4222  -51.3772 H         1 UNK         0.0600 
    208 H208        0.2229  -24.8566  -52.8640 H         1 UNK         0.0600 
    209 H209       -0.6900  -24.1726  -51.5262 H         1 UNK         0.0600 
    210 H210       -2.2712  -27.0052  -50.0493 H         1 UNK         0.3000 
    211 H211       -4.2301  -27.8900  -50.4457 H         1 UNK         0.0600 
    212 H212       -3.1769  -29.0232  -53.0853 H         1 UNK         0.0600 
    213 H213       -4.5711  -29.5813  -52.1751 H         1 UNK         0.0600 
    214 H214       -2.9605  -29.7780  -51.5059 H         1 UNK         0.0600 
    215 H215       -3.5640  -25.1607  -51.4161 H         1 UNK         0.3000 
    216 H216       -5.6340  -24.6600  -53.4810 H         1 UNK         0.0600 
    217 H217       -4.7498  -22.3832  -53.4416 H         1 UNK         0.0600 
    218 H218       -3.4024  -23.4938  -53.5964 H         1 UNK         0.0600 
    219 H219       -3.7367  -22.7295  -52.0450 H         1 UNK         0.0600 
    220 H220       -5.3671  -24.9865  -50.1342 H         1 UNK         0.3000 
    221 H221       -6.7265  -24.7990  -48.3882 H         1 UNK         0.0600 
    222 H222       -8.9612  -24.5830  -50.4703 H         1 UNK         0.0600 
    223 H223       -8.1984  -26.0873  -49.9571 H         1 UNK         0.0600 
    224 H224       -9.1286  -25.1396  -48.8106 H         1 UNK         0.0600 
    225 H225       -5.7640  -22.2157  -49.6236 H         1 UNK         0.3000 
    226 H226       -5.7404  -20.0444  -49.2389 H         1 UNK         0.0600 
    227 H227       -6.0742  -20.6539  -46.8017 H         1 UNK         0.0600 
    228 H228       -6.6645  -19.0539  -47.2266 H         1 UNK         0.0600 
    229 H229       -7.8018  -20.3737  -47.0051 H         1 UNK         0.0600 
    230 H230       -8.0463  -21.4841  -50.8476 H         1 UNK         0.3000 
    231 H231       -9.8952  -19.2474  -51.3300 H         1 UNK         0.0600 
    232 H232       -9.4402  -21.8852  -52.8311 H         1 UNK         0.0600 
    233 H233      -10.7518  -20.7483  -53.1191 H         1 UNK         0.0600 
    234 H234      -10.6613  -21.6096  -51.5895 H         1 UNK         0.0600 
    235 H235       -6.8381  -20.4814  -52.4357 H         1 UNK         0.3000 
    236 H236       -6.2499  -18.0529  -53.8995 H         1 UNK         0.0600 
    237 H237       -6.9580  -19.6378  -55.7432 H         1 UNK         0.0600 
    238 H238       -5.2299  -19.3316  -55.8090 H         1 UNK         0.0600 
    239 H239       -5.8257  -20.8463  -55.1406 H         1 UNK         0.0600 
    240 H240       -3.7453  -18.1497  -54.2711 H         1 UNK         0.3000 
    241 H241       -2.4543  -19.0803  -51.8138 H         1 UNK         0.0600 
    242 H242       -0.4575  -20.4557  -51.8141 H         1 UNK         0.3800 
    243 H243       -0.3309  -21.6833  -53.0397 H         1 UNK         0.3800 
    244 H244       -0.4189  -17.9348  -52.7326 H         1 UNK         0.0800 
    245 H245       -1.2743  -17.5921  -54.2069 H         1 UNK         0.0800 
    246 H246       -2.2021  -15.5730  -50.1058 H         1 UNK         0.0800 
    247 H247       -2.4105  -17.2896  -50.2984 H         1 UNK         0.0800 
@<TRIPOS>BOND
     1    1    2 1    
     2    1  127 1    
     3    1  128 1    
     4    1  129 1    
     5    2    3 2    
     6    2    4 am   BACKBONE|DICT|INTERRES
     7    4    5 1    
     8    4  130 1    
     9    5    6 1    
    10    5   65 1    
    11    5  131 1    
    12    6    7 1    
    13    6  132 1    
    14    6  133 1    
    15    7    8 1    
    16    8    9 1    
    17    8  134 1    
    18    8  135 1    
    19    9   10 ar   
    20    9   14 ar   
    21   10   11 ar   
    22   10  136 1    
    23   11   12 ar   
    24   11  126 1    
    25   12   13 ar   
    26   12  137 1    
    27   13   14 ar   
    28   13   15 1    
    29   14  138 1    
    30   15   16 1    
    31   15  139 1    
    32   15  140 1    
    33   16   17 1    
    34   17   18 1    
    35   17  141 1    
    36   17  142 1    
    37   18   19 1    
    38   18   67 1    
    39   18  143 1    
    40   19   20 am   BACKBONE|DICT|INTERRES
    41   19  144 1    
    42   20   21 2    
    43   20   22 1    
    44   22   23 1    
    45   22   24 1    
    46   22  145 1    
    47   23  146 1    
    48   23  147 1    
    49   23  148 1    
    50   24   25 am   BACKBONE|DICT|INTERRES
    51   24  149 1    
    52   25   26 2    
    53   25   27 1    
    54   27   28 1    
    55   27   29 1    
    56   27  150 1    
    57   28  151 1    
    58   28  152 1    
    59   28  153 1    
    60   29   30 am   BACKBONE|DICT|INTERRES
    61   29  154 1    
    62   30   31 2    
    63   30   32 1    
    64   32   33 1    
    65   32   34 1    
    66   32  155 1    
    67   33  156 1    
    68   33  157 1    
    69   33  158 1    
    70   34   35 am   BACKBONE|DICT|INTERRES
    71   34  159 1    
    72   35   36 2    
    73   35   37 1    
    74   37   38 1    
    75   37   39 1    
    76   37  160 1    
    77   38  161 1    
    78   38  162 1    
    79   38  163 1    
    80   39   40 am   BACKBONE|DICT|INTERRES
    81   39  164 1    
    82   40   41 2    
    83   40   42 1    
    84   42   43 1    
    85   42   44 1    
    86   42  165 1    
    87   43  166 1    
    88   43  167 1    
    89   43  168 1    
    90   44   45 am   BACKBONE|DICT|INTERRES
    91   44  169 1    
    92   45   46 2    
    93   45   47 1    
    94   47   48 1    
    95   47   49 1    
    96   47  170 1    
    97   48  171 1    
    98   48  172 1    
    99   48  173 1    
   100   49   50 am   BACKBONE|DICT|INTERRES
   101   49  174 1    
   102   50   51 2    
   103   50   52 1    
   104   52   53 1    
   105   52   54 1    
   106   52  175 1    
   107   53  176 1    
   108   53  177 1    
   109   53  178 1    
   110   54   55 am   BACKBONE|DICT|INTERRES
   111   54  179 1    
   112   55   56 2    
   113   55   57 1    
   114   57   58 1    
   115   57   59 1    
   116   57  180 1    
   117   58  181 1    
   118   58  182 1    
   119   58  183 1    
   120   59   60 am   BACKBONE|DICT|INTERRES
   121   59  184 1    
   122   60   61 2    
   123   60   62 1    
   124   62   63 1    
   125   62   64 1    
   126   62  185 1    
   127   63  186 1    
   128   63  187 1    
   129   63  188 1    
   130   64   65 am   BACKBONE|DICT|INTERRES
   131   64  189 1    
   132   65   66 2    
   133   67   68 2    
   134   67   69 am   BACKBONE|DICT|INTERRES
   135   69   70 1    
   136   69  190 1    
   137   70   71 1    
   138   70   72 1    
   139   70  191 1    
   140   71  192 1    
   141   71  193 1    
   142   71  194 1    
   143   72   73 2    
   144   72   74 am   BACKBONE|DICT|INTERRES
   145   74   75 1    
   146   74  195 1    
   147   75   76 1    
   148   75   77 1    
   149   75  196 1    
   150   76  197 1    
   151   76  198 1    
   152   76  199 1    
   153   77   78 2    
   154   77   79 am   BACKBONE|DICT|INTERRES
   155   79   80 1    
   156   79  200 1    
   157   80   81 1    
   158   80   82 1    
   159   80  201 1    
   160   81  202 1    
   161   81  203 1    
   162   81  204 1    
   163   82   83 2    
   164   82   84 am   BACKBONE|DICT|INTERRES
   165   84   85 1    
   166   84  205 1    
   167   85   86 1    
   168   85   87 1    
   169   85  206 1    
   170   86  207 1    
   171   86  208 1    
   172   86  209 1    
   173   87   88 2    
   174   87   89 am   BACKBONE|DICT|INTERRES
   175   89   90 1    
   176   89  210 1    
   177   90   91 1    
   178   90   92 1    
   179   90  211 1    
   180   91  212 1    
   181   91  213 1    
   182   91  214 1    
   183   92   93 2    
   184   92   94 am   BACKBONE|DICT|INTERRES
   185   94   95 1    
   186   94  215 1    
   187   95   96 1    
   188   95   97 1    
   189   95  216 1    
   190   96  217 1    
   191   96  218 1    
   192   96  219 1    
   193   97   98 2    
   194   97   99 am   BACKBONE|DICT|INTERRES
   195   99  100 1    
   196   99  220 1    
   197  100  101 1    
   198  100  102 1    
   199  100  221 1    
   200  101  222 1    
   201  101  223 1    
   202  101  224 1    
   203  102  103 2    
   204  102  104 am   BACKBONE|DICT|INTERRES
   205  104  105 1    
   206  104  225 1    
   207  105  106 1    
   208  105  107 1    
   209  105  226 1    
   210  106  227 1    
   211  106  228 1    
   212  106  229 1    
   213  107  108 2    
   214  107  109 am   BACKBONE|DICT|INTERRES
   215  109  110 1    
   216  109  230 1    
   217  110  111 1    
   218  110  112 1    
   219  110  231 1    
   220  111  232 1    
   221  111  233 1    
   222  111  234 1    
   223  112  113 2    
   224  112  114 am   BACKBONE|DICT|INTERRES
   225  114  115 1    
   226  114  235 1    
   227  115  116 1    
   228  115  117 1    
   229  115  236 1    
   230  116  237 1    
   231  116  238 1    
   232  116  239 1    
   233  117  118 2    
   234  117  119 am   BACKBONE|DICT|INTERRES
   235  119  120 1    
   236  119  240 1    
   237  120  121 1    
   238  120  124 1    
   239  120  241 1    
   240  121  122 am   BACKBONE|DICT|INTERRES
   241  121  123 2    
   242  122  242 1    
   243  122  243 1    
   244  124  125 1    
   245  124  244 1    
   246  124  245 1    
   247  125  126 1    
   248  126  246 1    
   249  126  247 1    
@<TRIPOS>SUBSTRUCTURE
     1 UNK         1 GROUP             0       ****    0 ROOT    
