@<TRIPOS>MOLECULE
3R540
247   249    1
SMALL
USER_CHARGES


@<TRIPOS>ATOM
      1 CA         -2.2645  -12.8191  -53.8812 C.3       0 UNK        -0.1800 
      2 C          -0.9370  -12.3067  -53.3434 C.2       0 UNK         0.5000 
      3 O          -0.4393  -11.2812  -53.8082 O.2       0 UNK        -0.5000 
      4 N          -0.3713  -13.0075  -52.3545 N.am      1 UNK        -0.5000 
      5 CA          0.8939  -12.6692  -51.6871 C.3       1 UNK         0.1400 
      6 C6          1.5401  -13.9043  -51.0090 C.3       23 UNK        -0.0398 
      7 S7          1.7725  -15.3056  -52.1516 S.3       23 UNK        -0.2404 
      8 C8          2.8645  -16.3911  -51.1712 C.3       23 UNK        -0.0205 
      9 C9          2.6834  -17.8702  -51.5026 C.ar      23 UNK        -0.0193 
     10 C10         2.5540  -18.3026  -52.8263 C.ar      23 UNK        -0.1150 
     11 C11         2.3380  -19.6502  -53.1195 C.ar      23 UNK        -0.0193 
     12 C12         2.2977  -20.5798  -52.0778 C.ar      23 UNK        -0.1150 
     13 C13         2.4560  -20.1760  -50.7484 C.ar      23 UNK        -0.0193 
     14 C14         2.6491  -18.8154  -50.4717 C.ar      23 UNK        -0.1150 
     15 C15         2.4439  -21.2445  -49.6548 C.3       23 UNK        -0.0205 
     16 S16         1.9162  -20.6581  -48.0049 S.3       23 UNK        -0.2404 
     17 C17         3.4103  -20.9812  -46.9984 C.3       23 UNK        -0.0398 
     18 CA          3.3575  -22.2186  -46.0595 C.3       11 UNK         0.1400 
     19 N           2.6306  -21.9552  -44.8144 N.am      11 UNK        -0.5000 
     20 C           2.8544  -22.6141  -43.6669 C.2       10 UNK         0.5000 
     21 O           3.6663  -23.5336  -43.5548 O.2       10 UNK        -0.5000 
     22 CA          2.0418  -22.1791  -42.4344 C.3       10 UNK         0.1400 
     23 CB          2.6437  -20.9227  -41.7861 C.3       10 UNK        -0.1800 
     24 N           0.6371  -21.9528  -42.7659 N.am      10 UNK        -0.5000 
     25 C          -0.2378  -22.9438  -42.9796 C.2       9 UNK         0.5000 
     26 O           0.0360  -24.1305  -42.8125 O.2       9 UNK        -0.5000 
     27 CA         -1.6463  -22.5657  -43.4730 C.3       9 UNK         0.1400 
     28 CB         -2.6355  -22.4940  -42.3014 C.3       9 UNK        -0.1800 
     29 N          -1.6868  -21.3072  -44.2166 N.am      9 UNK        -0.5000 
     30 C          -1.1296  -21.1140  -45.4191 C.2       8 UNK         0.5000 
     31 O          -0.5701  -22.0019  -46.0592 O.2       8 UNK        -0.5000 
     32 CA         -1.1580  -19.6743  -45.9678 C.3       8 UNK         0.1400 
     33 CB         -2.5301  -19.3450  -46.5683 C.3       8 UNK        -0.1800 
     34 N          -0.8101  -18.6838  -44.9481 N.am      8 UNK        -0.5000 
     35 C           0.3742  -18.6301  -44.3212 C.2       7 UNK         0.5000 
     36 O           1.3194  -19.3723  -44.5842 O.2       7 UNK        -0.5000 
     37 CA          0.5048  -17.6244  -43.1659 C.3       7 UNK         0.1400 
     38 CB          0.8981  -16.2358  -43.6876 C.3       7 UNK        -0.1800 
     39 N          -0.7348  -17.5334  -42.3943 N.am      7 UNK        -0.5000 
     40 C          -1.1450  -18.4629  -41.5188 C.2       6 UNK         0.5000 
     41 O          -0.4875  -19.4609  -41.2275 O.2       6 UNK        -0.5000 
     42 CA         -2.5387  -18.2647  -40.8912 C.3       6 UNK         0.1400 
     43 CB         -2.4481  -17.3677  -39.6478 C.3       6 UNK        -0.1800 
     44 N          -3.5066  -17.6927  -41.8285 N.am      6 UNK        -0.5000 
     45 C          -3.9463  -18.3075  -42.9361 C.2       5 UNK         0.5000 
     46 O          -3.6345  -19.4569  -43.2405 O.2       5 UNK        -0.5000 
     47 CA         -4.8304  -17.4800  -43.8920 C.3       5 UNK         0.1400 
     48 CB         -6.3169  -17.7033  -43.5800 C.3       5 UNK        -0.1800 
     49 N          -4.5351  -16.0429  -43.8598 N.am      5 UNK        -0.5000 
     50 C          -3.3517  -15.5008  -44.1793 C.2       4 UNK         0.5000 
     51 O          -2.3854  -16.1631  -44.5647 O.2       4 UNK        -0.5000 
     52 CA         -3.2130  -13.9872  -43.9297 C.3       4 UNK         0.1400 
     53 CB         -3.1068  -13.7106  -42.4202 C.3       4 UNK        -0.1800 
     54 N          -2.0414  -13.4018  -44.5824 N.am      4 UNK        -0.5000 
     55 C          -1.9175  -13.1923  -45.8973 C.2       3 UNK         0.5000 
     56 O          -2.7821  -13.4876  -46.7274 O.2       3 UNK        -0.5000 
     57 CA         -0.6095  -12.5227  -46.3508 C.3       3 UNK         0.1400 
     58 CB          0.5229  -13.5522  -46.4908 C.3       3 UNK        -0.1800 
     59 N          -0.8210  -11.8824  -47.6449 N.am      3 UNK        -0.5000 
     60 C          -0.5929  -10.5947  -47.9277 C.2       2 UNK         0.5000 
     61 O          -0.1268   -9.7857  -47.1227 O.2       2 UNK        -0.5000 
     62 CA         -0.9488  -10.1550  -49.3634 C.3       2 UNK         0.1400 
     63 CB         -0.4379   -8.7424  -49.7189 C.3       2 UNK        -0.1800 
     64 N          -0.5247  -11.1416  -50.3638 N.am      2 UNK        -0.5000 
     65 C           0.7286  -11.5289  -50.6556 C.2       1 UNK         0.5000 
     66 O           1.7346  -11.0438  -50.1362 O.2       1 UNK        -0.5000 
     67 C           2.8968  -23.5186  -46.7586 C.2       11 UNK         0.5000 
     68 O           3.7337  -24.2131  -47.3381 O.2       11 UNK        -0.5000 
     69 N           1.5962  -23.8356  -46.6887 N.am      12 UNK        -0.5000 
     70 CA          0.9874  -24.9972  -47.3281 C.3       12 UNK         0.1400 
     71 CB          0.6877  -24.6844  -48.8056 C.3       12 UNK        -0.1800 
     72 C          -0.2727  -25.4032  -46.5521 C.2       12 UNK         0.5000 
     73 O          -1.3860  -25.0502  -46.9475 O.2       12 UNK        -0.5000 
     74 N          -0.0774  -26.1526  -45.4592 N.am      13 UNK        -0.5000 
     75 CA         -1.1266  -26.6342  -44.5503 C.3       13 UNK         0.1400 
     76 CB         -0.4724  -27.4307  -43.4102 C.3       13 UNK        -0.1800 
     77 C          -2.2239  -27.4836  -45.2204 C.2       13 UNK         0.5000 
     78 O          -3.3672  -27.4650  -44.7643 O.2       13 UNK        -0.5000 
     79 N          -1.8616  -28.1987  -46.2940 N.am      14 UNK        -0.5000 
     80 CA         -2.7769  -29.0001  -47.1072 C.3       14 UNK         0.1400 
     81 CB         -1.9530  -29.9342  -48.0068 C.3       14 UNK        -0.1800 
     82 C          -3.7420  -28.1494  -47.9573 C.2       14 UNK         0.5000 
     83 O          -4.8268  -28.6277  -48.2915 O.2       14 UNK        -0.5000 
     84 N          -3.3335  -26.9194  -48.2971 N.am      15 UNK        -0.5000 
     85 CA         -4.1278  -25.9655  -49.0666 C.3       15 UNK         0.1400 
     86 CB         -3.2064  -25.1964  -50.0278 C.3       15 UNK        -0.1800 
     87 C          -4.8665  -24.9961  -48.1328 C.2       15 UNK         0.5000 
     88 O          -6.0709  -24.8005  -48.2911 O.2       15 UNK        -0.5000 
     89 N          -4.1193  -24.3920  -47.1952 N.am      16 UNK        -0.5000 
     90 CA         -4.5484  -23.4123  -46.1871 C.3       16 UNK         0.1400 
     91 CB         -5.5334  -24.0488  -45.1872 C.3       16 UNK        -0.1800 
     92 C          -5.0646  -22.0684  -46.7511 C.2       16 UNK         0.5000 
     93 O          -5.5675  -21.2437  -45.9880 O.2       16 UNK        -0.5000 
     94 N          -4.9049  -21.8528  -48.0621 N.am      17 UNK        -0.5000 
     95 CA         -5.3009  -20.6438  -48.7859 C.3       17 UNK         0.1400 
     96 CB         -6.7540  -20.7869  -49.2727 C.3       17 UNK        -0.1800 
     97 C          -4.3357  -20.3364  -49.9465 C.2       17 UNK         0.5000 
     98 O          -4.6454  -19.4865  -50.7817 O.2       17 UNK        -0.5000 
     99 N          -3.1782  -21.0164  -49.9871 N.am      18 UNK        -0.5000 
    100 CA        -2.1770  -20.9269  -51.0546 C.3       18 UNK         0.1400 
    101 CB        -1.0250  -21.8880  -50.7468 C.3       18 UNK        -0.1800 
    102 C         -1.6438  -19.5043  -51.2971 C.2       18 UNK         0.5000 
    103 O         -1.5071  -19.0979  -52.4485 O.2       18 UNK        -0.5000 
    104 N         -1.4287  -18.7487  -50.2116 N.am      19 UNK        -0.5000 
    105 CA        -0.9707  -17.3583  -50.2561 C.3       19 UNK         0.1400 
    106 CB        -0.5544  -16.9162  -48.8454 C.3       19 UNK        -0.1800 
    107 C         -1.9955  -16.3765  -50.8644 C.2       19 UNK         0.5000 
    108 O         -1.6079  -15.2758  -51.2547 O.2       19 UNK        -0.5000 
    109 N         -3.2706  -16.7797  -50.9479 N.am      20 UNK        -0.5000 
    110 CA        -4.3109  -16.0625  -51.6804 C.3       20 UNK         0.1400 
    111 CB        -5.6404  -16.1553  -50.9146 C.3       20 UNK        -0.1800 
    112 C         -4.4491  -16.6317  -53.1025 C.2       20 UNK         0.5000 
    113 O         -4.4750  -15.8618  -54.0633 O.2       20 UNK        -0.5000 
    114 N         -4.5141  -17.9674  -53.2158 N.am      21 UNK        -0.5000 
    115 CA        -4.7123  -18.7071  -54.4665 C.3       21 UNK         0.1400 
    116 CB        -4.8553  -20.2038  -54.1547 C.3       21 UNK        -0.1800 
    117 C         -3.6140  -18.4765  -55.5227 C.2       21 UNK         0.5000 
    118 O         -3.9250  -18.4326  -56.7138 O.2       21 UNK        -0.5000 
    119 N         -2.3653  -18.3015  -55.0737 N.am      22 UNK        -0.5000 
    120 CA        -1.2188  -17.9074  -55.9087 C.3       22 UNK         0.1400 
    121 C         -1.2429  -16.4219  -56.3844 C.2       22 UNK         0.5000 
    122 N         -2.1879  -15.5864  -55.9695 N.am      22 UNK        -0.7600 
    123 O         -0.3903  -16.0189  -57.1711 O.2       22 UNK        -0.5000 
    124 C124        0.1290  -18.2517  -55.2246 C.3       23 UNK        -0.0398 
    125 S125        0.4017  -20.0510  -55.0671 S.3       23 UNK        -0.2404 
    126 C126        2.1513  -20.1014  -54.5608 C.3       23 UNK        -0.0205 
    127 H127       -2.2597  -12.8063  -54.9706 H         1 UNK         0.0600 
    128 H128       -2.4627  -13.8401  -53.5540 H         1 UNK         0.0600 
    129 H129       -3.0804  -12.1845  -53.5360 H         1 UNK         0.0600 
    130 H130       -0.8252  -13.8565  -52.0157 H         1 UNK         0.3000 
    131 H131        1.5902  -12.3074  -52.4466 H         1 UNK         0.0600 
    132 H132        0.9267  -14.2443  -50.1737 H         1 UNK         0.0800 
    133 H133        2.5138  -13.6411  -50.5915 H         1 UNK         0.0800 
    134 H134        2.6667  -16.2247  -50.1110 H         1 UNK         0.0800 
    135 H135        3.9032  -16.1079  -51.3449 H         1 UNK         0.0800 
    136 H136        2.5962  -17.5845  -53.6326 H         1 UNK         0.1150 
    137 H137        2.1443  -21.6252  -52.3062 H         1 UNK         0.1150 
    138 H138        2.7755  -18.4843  -49.4513 H         1 UNK         0.1150 
    139 H139        1.7727  -22.0528  -49.9431 H         1 UNK         0.0800 
    140 H140        3.4349  -21.6954  -49.6084 H         1 UNK         0.0800 
    141 H141        3.6025  -20.0861  -46.4051 H         1 UNK         0.0800 
    142 H142        4.2761  -21.0642  -47.6559 H         1 UNK         0.0800 
    143 H143        4.3954  -22.3983  -45.7691 H         1 UNK         0.0600 
    144 H144        1.9791  -21.1749  -44.8232 H         1 UNK         0.3000 
    145 H145        2.0971  -22.9835  -41.6975 H         1 UNK         0.0600 
    146 H146        2.0756  -20.6223  -40.9056 H         1 UNK         0.0600 
    147 H147        3.6688  -21.1083  -41.4635 H         1 UNK         0.0600 
    148 H148        2.6689  -20.0782  -42.4732 H         1 UNK         0.0600 
    149 H149        0.3367  -20.9949  -42.8817 H         1 UNK         0.3000 
    150 H150       -1.9682  -23.3645  -44.1419 H         1 UNK         0.0600 
    151 H151       -2.6470  -23.4290  -41.7399 H         1 UNK         0.0600 
    152 H152       -3.6510  -22.3137  -42.6550 H         1 UNK         0.0600 
    153 H153       -2.3756  -21.6941  -41.6070 H         1 UNK         0.0600 
    154 H154       -2.1976  -20.5408  -43.7843 H         1 UNK         0.3000 
    155 H155       -0.4171  -19.5954  -46.7630 H         1 UNK         0.0600 
    156 H156       -3.3386  -19.5480  -45.8678 H         1 UNK         0.0600 
    157 H157       -2.7081  -19.9548  -47.4506 H         1 UNK         0.0600 
    158 H158       -2.6045  -18.3001  -46.8658 H         1 UNK         0.0600 
    159 H159       -1.5145  -17.9945  -44.7084 H         1 UNK         0.3000 
    160 H160        1.3014  -17.9717  -42.5046 H         1 UNK         0.0600 
    161 H161        1.0059  -15.5214  -42.8714 H         1 UNK         0.0600 
    162 H162        0.1574  -15.8438  -44.3827 H         1 UNK         0.0600 
    163 H163        1.8517  -16.2752  -44.2156 H         1 UNK         0.0600 
    164 H164       -1.3616  -16.7802  -42.6397 H         1 UNK         0.3000 
    165 H165       -2.9060  -19.2453  -40.5811 H         1 UNK         0.0600 
    166 H166       -3.4148  -17.2833  -39.1512 H         1 UNK         0.0600 
    167 H167       -1.7456  -17.7783  -38.9213 H         1 UNK         0.0600 
    168 H168       -2.1101  -16.3615  -39.8993 H         1 UNK         0.0600 
    169 H169       -3.8203  -16.7519  -41.6439 H         1 UNK         0.3000 
    170 H170       -4.6409  -17.8332  -44.9069 H         1 UNK         0.0600 
    171 H171       -6.5688  -18.7638  -43.6297 H         1 UNK         0.0600 
    172 H172       -6.5777  -17.3492  -42.5819 H         1 UNK         0.0600 
    173 H173       -6.9532  -17.1866  -44.2986 H         1 UNK         0.0600 
    174 H174       -5.2800  -15.4401  -43.5407 H         1 UNK         0.3000 
    175 H175       -4.1066  -13.4934  -44.3174 H         1 UNK         0.0600 
    176 H176       -2.2331  -14.1951  -41.9819 H         1 UNK         0.0600 
    177 H177       -3.0309  -12.6414  -42.2205 H         1 UNK         0.0600 
    178 H178       -3.9857  -14.0724  -41.8854 H         1 UNK         0.0600 
    179 H179       -1.2715  -13.1596  -43.9767 H         1 UNK         0.3000 
    180 H180       -0.3244  -11.7823  -45.6005 H         1 UNK         0.0600 
    181 H181        1.4074  -13.1079  -46.9479 H         1 UNK         0.0600 
    182 H182        0.2229  -14.4044  -47.1003 H         1 UNK         0.0600 
    183 H183        0.8240  -13.9308  -45.5151 H         1 UNK         0.0600 
    184 H184       -1.2774  -12.4597  -48.3374 H         1 UNK         0.3000 
    185 H185       -2.0385  -10.1254  -49.4077 H         1 UNK         0.0600 
    186 H186       -0.8725   -7.9934  -49.0559 H         1 UNK         0.0600 
    187 H187        0.6459   -8.6651  -49.6299 H         1 UNK         0.0600 
    188 H188       -0.7111   -8.4699  -50.7383 H         1 UNK         0.0600 
    189 H189       -1.2693  -11.6140  -50.8566 H         1 UNK         0.3000 
    190 H190        0.9462  -23.1900  -46.2445 H         1 UNK         0.3000 
    191 H191        1.6793  -25.8413  -47.2913 H         1 UNK         0.0600 
    192 H192        0.0527  -23.8044  -48.8977 H         1 UNK         0.0600 
    193 H193        0.1738  -25.5163  -49.2887 H         1 UNK         0.0600 
    194 H194        1.6036  -24.4983  -49.3660 H         1 UNK         0.0600 
    195 H195        0.8711  -26.3734  -45.1925 H         1 UNK         0.3000 
    196 H196       -1.6198  -25.7604  -44.1228 H         1 UNK         0.0600 
    197 H197       -1.2191  -27.7662  -42.6892 H         1 UNK         0.0600 
    198 H198        0.2512  -26.8246  -42.8653 H         1 UNK         0.0600 
    199 H199        0.0453  -28.3152  -43.7832 H         1 UNK         0.0600 
    200 H200       -0.8971  -28.1667  -46.5892 H         1 UNK         0.3000 
    201 H201       -3.3815  -29.6158  -46.4378 H         1 UNK         0.0600 
    202 H202       -1.3165  -30.5923  -47.4150 H         1 UNK         0.0600 
    203 H203       -1.3148  -29.3743  -48.6916 H         1 UNK         0.0600 
    204 H204       -2.6033  -30.5695  -48.6097 H         1 UNK         0.0600 
    205 H205       -2.4573  -26.5775  -47.9229 H         1 UNK         0.3000 
    206 H206       -4.8729  -26.4912  -49.6678 H         1 UNK         0.0600 
    207 H207       -2.7314  -25.8723  -50.7389 H         1 UNK         0.0600 
    208 H208       -3.7662  -24.4592  -50.6049 H         1 UNK         0.0600 
    209 H209       -2.4157  -24.6688  -49.4945 H         1 UNK         0.0600 
    210 H210       -3.1273  -24.6244  -47.1580 H         1 UNK         0.3000 
    211 H211       -3.6459  -23.1571  -45.6351 H         1 UNK         0.0600 
    212 H212       -6.4901  -24.2828  -45.6546 H         1 UNK         0.0600 
    213 H213       -5.7332  -23.3770  -44.3516 H         1 UNK         0.0600 
    214 H214       -5.1279  -24.9709  -44.7701 H         1 UNK         0.0600 
    215 H215       -4.5469  -22.6127  -48.6209 H         1 UNK         0.3000 
    216 H216       -5.2458  -19.7852  -48.1136 H         1 UNK         0.0600 
    217 H217       -7.0902  -19.8858  -49.7872 H         1 UNK         0.0600 
    218 H218       -7.4347  -20.9534  -48.4377 H         1 UNK         0.0600 
    219 H219       -6.8626  -21.6229  -49.9646 H         1 UNK         0.0600 
    220 H220       -2.9690  -21.6568  -49.2375 H         1 UNK         0.3000 
    221 H221       -2.6509  -21.2615  -51.9778 H         1 UNK         0.0600 
    222 H222       -0.5645  -21.6586  -49.7856 H         1 UNK         0.0600 
    223 H223       -1.3681  -22.9210  -50.7238 H         1 UNK         0.0600 
    224 H224       -0.2516  -21.8262  -51.5126 H         1 UNK         0.0600 
    225 H225       -1.5762  -19.1541  -49.3013 H         1 UNK         0.3000 
    226 H226       -0.0861  -17.3298  -50.8938 H         1 UNK         0.0600 
    227 H227       -1.4101  -16.8377  -48.1754 H         1 UNK         0.0600 
    228 H228        0.1638  -17.6085  -48.4051 H         1 UNK         0.0600 
    229 H229       -0.0788  -15.9371  -48.8768 H         1 UNK         0.0600 
    230 H230       -3.5063  -17.7135  -50.6371 H         1 UNK         0.3000 
    231 H231       -4.0530  -15.0046  -51.7650 H         1 UNK         0.0600 
    232 H232       -5.5489  -15.7236  -49.9179 H         1 UNK         0.0600 
    233 H233       -5.9795  -17.1852  -50.8020 H         1 UNK         0.0600 
    234 H234       -6.4267  -15.6075  -51.4353 H         1 UNK         0.0600 
    235 H235       -4.4991  -18.5262  -52.3668 H         1 UNK         0.3000 
    236 H236       -5.6545  -18.3611  -54.8960 H         1 UNK         0.0600 
    237 H237       -5.1006  -20.7675  -55.0555 H         1 UNK         0.0600 
    238 H238       -3.9304  -20.6161  -53.7539 H         1 UNK         0.0600 
    239 H239       -5.6486  -20.3856  -53.4293 H         1 UNK         0.0600 
    240 H240       -2.1725  -18.4237  -54.0823 H         1 UNK         0.3000 
    241 H241       -1.2725  -18.4952  -56.8270 H         1 UNK         0.0600 
    242 H242       -2.1862  -14.6422  -56.3175 H         1 UNK         0.3800 
    243 H243       -2.9222  -15.8835  -55.3365 H         1 UNK         0.3800 
    244 H244        0.9677  -17.8433  -55.7910 H         1 UNK         0.0800 
    245 H245        0.1719  -17.7935  -54.2353 H         1 UNK         0.0800 
    246 H246        2.5197  -21.1216  -54.6776 H         1 UNK         0.0800 
    247 H247        2.7502  -19.4857  -55.2336 H         1 UNK         0.0800 
@<TRIPOS>BOND
     1    1    2 1    
     2    1  127 1    
     3    1  128 1    
     4    1  129 1    
     5    2    3 2    
     6    2    4 am   BACKBONE|DICT|INTERRES
     7    4    5 1    
     8    4  130 1    
     9    5    6 1    
    10    5   65 1    
    11    5  131 1    
    12    6    7 1    
    13    6  132 1    
    14    6  133 1    
    15    7    8 1    
    16    8    9 1    
    17    8  134 1    
    18    8  135 1    
    19    9   10 ar   
    20    9   14 ar   
    21   10   11 ar   
    22   10  136 1    
    23   11   12 ar   
    24   11  126 1    
    25   12   13 ar   
    26   12  137 1    
    27   13   14 ar   
    28   13   15 1    
    29   14  138 1    
    30   15   16 1    
    31   15  139 1    
    32   15  140 1    
    33   16   17 1    
    34   17   18 1    
    35   17  141 1    
    36   17  142 1    
    37   18   19 1    
    38   18   67 1    
    39   18  143 1    
    40   19   20 am   BACKBONE|DICT|INTERRES
    41   19  144 1    
    42   20   21 2    
    43   20   22 1    
    44   22   23 1    
    45   22   24 1    
    46   22  145 1    
    47   23  146 1    
    48   23  147 1    
    49   23  148 1    
    50   24   25 am   BACKBONE|DICT|INTERRES
    51   24  149 1    
    52   25   26 2    
    53   25   27 1    
    54   27   28 1    
    55   27   29 1    
    56   27  150 1    
    57   28  151 1    
    58   28  152 1    
    59   28  153 1    
    60   29   30 am   BACKBONE|DICT|INTERRES
    61   29  154 1    
    62   30   31 2    
    63   30   32 1    
    64   32   33 1    
    65   32   34 1    
    66   32  155 1    
    67   33  156 1    
    68   33  157 1    
    69   33  158 1    
    70   34   35 am   BACKBONE|DICT|INTERRES
    71   34  159 1    
    72   35   36 2    
    73   35   37 1    
    74   37   38 1    
    75   37   39 1    
    76   37  160 1    
    77   38  161 1    
    78   38  162 1    
    79   38  163 1    
    80   39   40 am   BACKBONE|DICT|INTERRES
    81   39  164 1    
    82   40   41 2    
    83   40   42 1    
    84   42   43 1    
    85   42   44 1    
    86   42  165 1    
    87   43  166 1    
    88   43  167 1    
    89   43  168 1    
    90   44   45 am   BACKBONE|DICT|INTERRES
    91   44  169 1    
    92   45   46 2    
    93   45   47 1    
    94   47   48 1    
    95   47   49 1    
    96   47  170 1    
    97   48  171 1    
    98   48  172 1    
    99   48  173 1    
   100   49   50 am   BACKBONE|DICT|INTERRES
   101   49  174 1    
   102   50   51 2    
   103   50   52 1    
   104   52   53 1    
   105   52   54 1    
   106   52  175 1    
   107   53  176 1    
   108   53  177 1    
   109   53  178 1    
   110   54   55 am   BACKBONE|DICT|INTERRES
   111   54  179 1    
   112   55   56 2    
   113   55   57 1    
   114   57   58 1    
   115   57   59 1    
   116   57  180 1    
   117   58  181 1    
   118   58  182 1    
   119   58  183 1    
   120   59   60 am   BACKBONE|DICT|INTERRES
   121   59  184 1    
   122   60   61 2    
   123   60   62 1    
   124   62   63 1    
   125   62   64 1    
   126   62  185 1    
   127   63  186 1    
   128   63  187 1    
   129   63  188 1    
   130   64   65 am   BACKBONE|DICT|INTERRES
   131   64  189 1    
   132   65   66 2    
   133   67   68 2    
   134   67   69 am   BACKBONE|DICT|INTERRES
   135   69   70 1    
   136   69  190 1    
   137   70   71 1    
   138   70   72 1    
   139   70  191 1    
   140   71  192 1    
   141   71  193 1    
   142   71  194 1    
   143   72   73 2    
   144   72   74 am   BACKBONE|DICT|INTERRES
   145   74   75 1    
   146   74  195 1    
   147   75   76 1    
   148   75   77 1    
   149   75  196 1    
   150   76  197 1    
   151   76  198 1    
   152   76  199 1    
   153   77   78 2    
   154   77   79 am   BACKBONE|DICT|INTERRES
   155   79   80 1    
   156   79  200 1    
   157   80   81 1    
   158   80   82 1    
   159   80  201 1    
   160   81  202 1    
   161   81  203 1    
   162   81  204 1    
   163   82   83 2    
   164   82   84 am   BACKBONE|DICT|INTERRES
   165   84   85 1    
   166   84  205 1    
   167   85   86 1    
   168   85   87 1    
   169   85  206 1    
   170   86  207 1    
   171   86  208 1    
   172   86  209 1    
   173   87   88 2    
   174   87   89 am   BACKBONE|DICT|INTERRES
   175   89   90 1    
   176   89  210 1    
   177   90   91 1    
   178   90   92 1    
   179   90  211 1    
   180   91  212 1    
   181   91  213 1    
   182   91  214 1    
   183   92   93 2    
   184   92   94 am   BACKBONE|DICT|INTERRES
   185   94   95 1    
   186   94  215 1    
   187   95   96 1    
   188   95   97 1    
   189   95  216 1    
   190   96  217 1    
   191   96  218 1    
   192   96  219 1    
   193   97   98 2    
   194   97   99 am   BACKBONE|DICT|INTERRES
   195   99  100 1    
   196   99  220 1    
   197  100  101 1    
   198  100  102 1    
   199  100  221 1    
   200  101  222 1    
   201  101  223 1    
   202  101  224 1    
   203  102  103 2    
   204  102  104 am   BACKBONE|DICT|INTERRES
   205  104  105 1    
   206  104  225 1    
   207  105  106 1    
   208  105  107 1    
   209  105  226 1    
   210  106  227 1    
   211  106  228 1    
   212  106  229 1    
   213  107  108 2    
   214  107  109 am   BACKBONE|DICT|INTERRES
   215  109  110 1    
   216  109  230 1    
   217  110  111 1    
   218  110  112 1    
   219  110  231 1    
   220  111  232 1    
   221  111  233 1    
   222  111  234 1    
   223  112  113 2    
   224  112  114 am   BACKBONE|DICT|INTERRES
   225  114  115 1    
   226  114  235 1    
   227  115  116 1    
   228  115  117 1    
   229  115  236 1    
   230  116  237 1    
   231  116  238 1    
   232  116  239 1    
   233  117  118 2    
   234  117  119 am   BACKBONE|DICT|INTERRES
   235  119  120 1    
   236  119  240 1    
   237  120  121 1    
   238  120  124 1    
   239  120  241 1    
   240  121  122 am   BACKBONE|DICT|INTERRES
   241  121  123 2    
   242  122  242 1    
   243  122  243 1    
   244  124  125 1    
   245  124  244 1    
   246  124  245 1    
   247  125  126 1    
   248  126  246 1    
   249  126  247 1    
@<TRIPOS>SUBSTRUCTURE
     1 UNK         1 GROUP             0       ****    0 ROOT    
