@<TRIPOS>MOLECULE
3R540
247   249    1
SMALL
USER_CHARGES


@<TRIPOS>ATOM
      1 CA         -4.0662  -18.6310  -47.3072 C.3       0 UNK        -0.1800 
      2 C          -4.0484  -17.1381  -47.6058 C.2       0 UNK         0.5000 
      3 O          -5.0749  -16.4748  -47.4595 O.2       0 UNK        -0.5000 
      4 N          -2.8858  -16.6110  -48.0116 N.am      1 UNK        -0.5000 
      5 CA         -2.6433  -15.1821  -48.2286 C.3       1 UNK         0.1400 
      6 C6         -1.3071  -14.9335  -48.9690 C.3       23 UNK        -0.0398 
      7 S7         -1.3783  -15.4384  -50.7187 S.3       23 UNK        -0.2404 
      8 C8          0.3889  -15.5920  -51.1274 C.3       23 UNK        -0.0205 
      9 C9          0.8888  -17.0155  -50.9352 C.ar      23 UNK        -0.0193 
     10 C10         0.8719  -17.9134  -52.0064 C.ar      23 UNK        -0.1150 
     11 C11         1.3257  -19.2245  -51.8447 C.ar      23 UNK        -0.0193 
     12 C12         1.8003  -19.6379  -50.5970 C.ar      23 UNK        -0.1150 
     13 C13         1.8502  -18.7427  -49.5231 C.ar      23 UNK        -0.0193 
     14 C14         1.3948  -17.4315  -49.7007 C.ar      23 UNK        -0.1150 
     15 C15         2.4468  -19.1875  -48.1926 C.3       23 UNK        -0.0205 
     16 S16         1.4129  -18.7872  -46.7458 S.3       23 UNK        -0.2404 
     17 C17        -0.1713  -19.5971  -47.1478 C.3       23 UNK        -0.0398 
     18 CA         -0.1087  -21.1452  -47.1550 C.3       11 UNK         0.1400 
     19 N           0.4493  -21.7591  -45.9393 N.am      11 UNK        -0.5000 
     20 C           0.0345  -21.6363  -44.6705 C.2       10 UNK         0.5000 
     21 O          -0.9295  -20.9466  -44.3355 O.2       10 UNK        -0.5000 
     22 CA          0.7923  -22.4481  -43.6043 C.3       10 UNK         0.1400 
     23 CB          2.1675  -22.9713  -44.0815 C.3       10 UNK        -0.1800 
     24 N           0.9507  -21.6346  -42.4042 N.am      10 UNK        -0.5000 
     25 C           1.2563  -22.0895  -41.1826 C.2       9 UNK         0.5000 
     26 O           1.3146  -23.2860  -40.8917 O.2       9 UNK        -0.5000 
     27 CA          1.6057  -21.0092  -40.1353 C.3       9 UNK         0.1400 
     28 CB          2.2207  -21.5800  -38.8405 C.3       9 UNK        -0.1800 
     29 N           2.4635  -19.9688  -40.7159 N.am      9 UNK        -0.5000 
     30 C           3.6781  -20.1282  -41.2662 C.2       8 UNK         0.5000 
     31 O           4.3326  -21.1700  -41.2126 O.2       8 UNK        -0.5000 
     32 CA          4.2447  -18.9320  -42.0522 C.3       8 UNK         0.1400 
     33 CB          3.9798  -19.1249  -43.5547 C.3       8 UNK        -0.1800 
     34 N           3.6804  -17.6497  -41.6297 N.am      8 UNK        -0.5000 
     35 C           4.0314  -17.0017  -40.5110 C.2       7 UNK         0.5000 
     36 O           4.8952  -17.4027  -39.7298 O.2       7 UNK        -0.5000 
     37 CA          3.2786  -15.6943  -40.2046 C.3       7 UNK         0.1400 
     38 CB          3.8199  -14.5382  -41.0597 C.3       7 UNK        -0.1800 
     39 N           1.8336  -15.8111  -40.4027 N.am      7 UNK        -0.5000 
     40 C           1.0194  -16.5807  -39.6664 C.2       6 UNK         0.5000 
     41 O           1.3980  -17.2780  -38.7253 O.2       6 UNK        -0.5000 
     42 CA         -0.4672  -16.5901  -40.0620 C.3       6 UNK         0.1400 
     43 CB         -1.1986  -15.3680  -39.4857 C.3       6 UNK        -0.1800 
     44 N          -0.6502  -16.6303  -41.5114 N.am      6 UNK        -0.5000 
     45 C          -0.4115  -17.7061  -42.2733 C.2       5 UNK         0.5000 
     46 O          -0.0318  -18.7905  -41.8332 O.2       5 UNK        -0.5000 
     47 CA         -0.5903  -17.5262  -43.7886 C.3       5 UNK         0.1400 
     48 CB         -2.0672  -17.6834  -44.1772 C.3       5 UNK        -0.1800 
     49 N          -0.0891  -16.2406  -44.2787 N.am      5 UNK        -0.5000 
     50 C           1.1891  -15.8433  -44.1918 C.2       4 UNK         0.5000 
     51 O           2.0845  -16.5180  -43.6860 O.2       4 UNK        -0.5000 
     52 CA          1.5170  -14.4300  -44.7000 C.3       4 UNK         0.1400 
     53 CB          1.6406  -14.4185  -46.2301 C.3       4 UNK        -0.1800 
     54 N           0.5396  -13.4247  -44.2835 N.am      4 UNK        -0.5000 
     55 C           0.2042  -13.1230  -43.0230 C.2       3 UNK         0.5000 
     56 O           0.6869  -13.6837  -42.0391 O.2       3 UNK        -0.5000 
     57 CA         -0.8754  -12.0408  -42.8163 C.3       3 UNK         0.1400 
     58 CB         -0.2658  -10.6270  -42.8669 C.3       3 UNK        -0.1800 
     59 N          -2.0368  -12.1694  -43.7094 N.am      3 UNK        -0.5000 
     60 C          -2.0969  -12.0172  -45.0396 C.2       2 UNK         0.5000 
     61 O          -1.1500  -11.6576  -45.7438 O.2       2 UNK        -0.5000 
     62 CA         -3.4412  -12.3742  -45.6998 C.3       2 UNK         0.1400 
     63 CB         -4.1947  -11.1011  -46.1134 C.3       2 UNK        -0.1800 
     64 N          -3.2815  -13.2410  -46.8705 N.am      2 UNK        -0.5000 
     65 C          -2.6609  -14.4296  -46.8818 C.2       1 UNK         0.5000 
     66 O          -2.1077  -14.9297  -45.8980 O.2       1 UNK        -0.5000 
     67 C          -1.4678  -21.7584  -47.5429 C.2       11 UNK         0.5000 
     68 O          -1.6002  -22.2818  -48.6474 O.2       11 UNK        -0.5000 
     69 N          -2.4251  -21.7705  -46.6056 N.am      12 UNK        -0.5000 
     70 CA         -3.7160  -22.4568  -46.7286 C.3       12 UNK         0.1400 
     71 CB         -4.5833  -22.1129  -45.5089 C.3       12 UNK        -0.1800 
     72 C          -3.5682  -23.9867  -46.8715 C.2       12 UNK         0.5000 
     73 O          -4.4290  -24.6374  -47.4633 O.2       12 UNK        -0.5000 
     74 N          -2.4586  -24.5216  -46.3430 N.am      13 UNK        -0.5000 
     75 CA         -2.0346  -25.9116  -46.4862 C.3       13 UNK         0.1400 
     76 CB         -0.9684  -26.2089  -45.4200 C.3       13 UNK        -0.1800 
     77 C          -1.4929  -26.2392  -47.8927 C.2       13 UNK         0.5000 
     78 O          -1.5206  -27.4075  -48.2813 O.2       13 UNK        -0.5000 
     79 N          -1.0049  -25.2262  -48.6270 N.am      14 UNK        -0.5000 
     80 CA         -0.5230  -25.3740  -50.0011 C.3       14 UNK         0.1400 
     81 CB          0.4670  -24.2479  -50.3465 C.3       14 UNK        -0.1800 
     82 C          -1.6978  -25.4036  -50.9910 C.2       14 UNK         0.5000 
     83 O          -1.7270  -26.2666  -51.8693 O.2       14 UNK        -0.5000 
     84 N          -2.6590  -24.4906  -50.8064 N.am      15 UNK        -0.5000 
     85 CA         -3.9014  -24.4143  -51.5652 C.3       15 UNK         0.1400 
     86 CB         -3.6360  -23.8578  -52.9724 C.3       15 UNK        -0.1800 
     87 C          -4.8937  -23.5183  -50.8178 C.2       15 UNK         0.5000 
     88 O          -4.4738  -22.5734  -50.1469 O.2       15 UNK        -0.5000 
     89 N          -6.1931  -23.8017  -50.9755 N.am      16 UNK        -0.5000 
     90 CA         -7.2942  -23.0313  -50.3946 C.3       16 UNK         0.1400 
     91 CB         -8.6271  -23.7222  -50.7230 C.3       16 UNK        -0.1800 
     92 C          -7.2862  -21.5740  -50.8938 C.2       16 UNK         0.5000 
     93 O          -7.3756  -21.3478  -52.1013 O.2       16 UNK        -0.5000 
     94 N          -7.1256  -20.6332  -49.9522 N.am      17 UNK        -0.5000 
     95 CA         -6.9513  -19.1850  -50.1427 C.3       17 UNK         0.1400 
     96 CB         -8.1613  -18.5641  -50.8716 C.3       17 UNK        -0.1800 
     97 C          -5.6090  -18.7729  -50.7929 C.2       17 UNK         0.5000 
     98 O          -5.3933  -17.5768  -50.9912 O.2       17 UNK        -0.5000 
     99 N          -4.7248  -19.7468  -51.0644 N.am      18 UNK        -0.5000 
    100 CA        -3.3909  -19.6208  -51.6564 C.3       18 UNK         0.1400 
    101 CB        -2.3932  -19.1641  -50.5755 C.3       18 UNK        -0.1800 
    102 C         -3.3725  -18.7714  -52.9488 C.2       18 UNK         0.5000 
    103 O         -4.2475  -18.9493  -53.7990 O.2       18 UNK        -0.5000 
    104 N         -2.3835  -17.8762  -53.0856 N.am      19 UNK        -0.5000 
    105 CA        -2.1760  -16.9603  -54.2106 C.3       19 UNK         0.1400 
    106 CB        -3.2444  -15.8433  -54.1898 C.3       19 UNK        -0.1800 
    107 C         -2.0780  -17.7204  -55.5507 C.2       19 UNK         0.5000 
    108 O         -1.1655  -18.5303  -55.7200 O.2       19 UNK        -0.5000 
    109 N         -3.0244  -17.4733  -56.4651 N.am      20 UNK        -0.5000 
    110 CA        -3.1270  -18.1316  -57.7673 C.3       20 UNK         0.1400 
    111 CB        -4.1458  -17.3702  -58.6291 C.3       20 UNK        -0.1800 
    112 C         -3.5022  -19.6250  -57.6851 C.2       20 UNK         0.5000 
    113 O         -3.2033  -20.3664  -58.6228 O.2       20 UNK        -0.5000 
    114 N         -4.1306  -20.0558  -56.5791 N.am      21 UNK        -0.5000 
    115 CA        -4.5455  -21.4451  -56.3630 C.3       21 UNK         0.1400 
    116 CB        -5.5608  -21.5169  -55.2111 C.3       21 UNK        -0.1800 
    117 C         -3.3639  -22.4013  -56.1115 C.2       21 UNK         0.5000 
    118 O         -3.5356  -23.6106  -56.2671 O.2       21 UNK        -0.5000 
    119 N         -2.1916  -21.8569  -55.7511 N.am      22 UNK        -0.5000 
    120 CA        -0.9334  -22.6038  -55.5888 C.3       22 UNK         0.1400 
    121 C         -0.3945  -23.2584  -56.8982 C.2       22 UNK         0.5000 
    122 N         -0.8330  -22.8480  -58.0836 N.am      22 UNK        -0.7600 
    123 O          0.4404  -24.1560  -56.8353 O.2       22 UNK        -0.5000 
    124 C124        0.1823  -21.7344  -54.9567 C.3       23 UNK        -0.0398 
    125 S125       -0.2192  -21.0166  -53.3280 S.3       23 UNK        -0.2404 
    126 C126        1.3643  -20.1662  -53.0377 C.3       23 UNK        -0.0205 
    127 H127       -4.3188  -18.7957  -46.2602 H         1 UNK         0.0600 
    128 H128       -3.0994  -19.0919  -47.4973 H         1 UNK         0.0600 
    129 H129       -4.8081  -19.1392  -47.9204 H         1 UNK         0.0600 
    130 H130       -2.0746  -17.2015  -48.1039 H         1 UNK         0.3000 
    131 H131       -3.4579  -14.7946  -48.8448 H         1 UNK         0.0600 
    132 H132       -1.0390  -13.8752  -48.9495 H         1 UNK         0.0800 
    133 H133       -0.4967  -15.4673  -48.4736 H         1 UNK         0.0800 
    134 H134        0.5325  -15.2890  -52.1657 H         1 UNK         0.0800 
    135 H135        0.9778  -14.8956  -50.5283 H         1 UNK         0.0800 
    136 H136        0.5202  -17.5921  -52.9756 H         1 UNK         0.1150 
    137 H137        2.1629  -20.6489  -50.4740 H         1 UNK         0.1150 
    138 H138        1.4431  -16.7343  -48.8767 H         1 UNK         0.1150 
    139 H139        3.4138  -18.6987  -48.0689 H         1 UNK         0.0800 
    140 H140        2.6491  -20.2591  -48.1947 H         1 UNK         0.0800 
    141 H141       -0.5103  -19.2253  -48.1156 H         1 UNK         0.0800 
    142 H142       -0.9050  -19.2513  -46.4209 H         1 UNK         0.0800 
    143 H143        0.5765  -21.4308  -47.9543 H         1 UNK         0.0600 
    144 H144        1.2521  -22.3503  -46.1008 H         1 UNK         0.3000 
    145 H145        0.1599  -23.3034  -43.3589 H         1 UNK         0.0600 
    146 H146        2.6755  -23.5307  -43.2958 H         1 UNK         0.0600 
    147 H147        2.0673  -23.6517  -44.9277 H         1 UNK         0.0600 
    148 H148        2.8271  -22.1545  -44.3778 H         1 UNK         0.0600 
    149 H149        0.8000  -20.6380  -42.5236 H         1 UNK         0.3000 
    150 H150        0.6670  -20.5236  -39.8655 H         1 UNK         0.0600 
    151 H151        1.5241  -22.2577  -38.3459 H         1 UNK         0.0600 
    152 H152        2.4560  -20.7838  -38.1341 H         1 UNK         0.0600 
    153 H153        3.1365  -22.1388  -39.0341 H         1 UNK         0.0600 
    154 H154        2.0068  -19.0769  -40.8543 H         1 UNK         0.3000 
    155 H155        5.3252  -18.9086  -41.8956 H         1 UNK         0.0600 
    156 H156        2.9117  -19.1791  -43.7716 H         1 UNK         0.0600 
    157 H157        4.4345  -20.0472  -43.9179 H         1 UNK         0.0600 
    158 H158        4.3967  -18.3045  -44.1392 H         1 UNK         0.0600 
    159 H159        2.9963  -17.2276  -42.2558 H         1 UNK         0.3000 
    160 H160        3.4529  -15.4484  -39.1550 H         1 UNK         0.0600 
    161 H161        3.6524  -14.7111  -42.1231 H         1 UNK         0.0600 
    162 H162        4.8930  -14.4114  -40.9118 H         1 UNK         0.0600 
    163 H163        3.3407  -13.5952  -40.7959 H         1 UNK         0.0600 
    164 H164        1.4279  -15.2297  -41.1307 H         1 UNK         0.3000 
    165 H165       -0.9208  -17.4872  -39.6346 H         1 UNK         0.0600 
    166 H166       -2.2641  -15.4028  -39.7136 H         1 UNK         0.0600 
    167 H167       -1.0999  -15.3324  -38.4000 H         1 UNK         0.0600 
    168 H168       -0.8013  -14.4326  -39.8809 H         1 UNK         0.0600 
    169 H169       -0.9048  -15.7655  -41.9651 H         1 UNK         0.3000 
    170 H170       -0.0192  -18.3167  -44.2754 H         1 UNK         0.0600 
    171 H171       -2.4585  -18.6484  -43.8526 H         1 UNK         0.0600 
    172 H172       -2.6878  -16.9057  -43.7306 H         1 UNK         0.0600 
    173 H173       -2.1929  -17.6276  -45.2565 H         1 UNK         0.0600 
    174 H174       -0.7648  -15.6359  -44.7399 H         1 UNK         0.3000 
    175 H175        2.4824  -14.1439  -44.2784 H         1 UNK         0.0600 
    176 H176        0.6804  -14.6151  -46.7039 H         1 UNK         0.0600 
    177 H177        2.0002  -13.4544  -46.5900 H         1 UNK         0.0600 
    178 H178        2.3420  -15.1798  -46.5750 H         1 UNK         0.0600 
    179 H179        0.0708  -12.9051  -45.0202 H         1 UNK         0.3000 
    180 H180       -1.2666  -12.1864  -41.8080 H         1 UNK         0.0600 
    181 H181        0.1857  -10.4078  -43.8347 H         1 UNK         0.0600 
    182 H182        0.5155  -10.5161  -42.1139 H         1 UNK         0.0600 
    183 H183       -1.0197   -9.8654  -42.6675 H         1 UNK         0.0600 
    184 H184       -2.8761  -12.4908  -43.2470 H         1 UNK         0.3000 
    185 H185       -4.0549  -12.9172  -44.9782 H         1 UNK         0.0600 
    186 H186       -5.1780  -11.3374  -46.5208 H         1 UNK         0.0600 
    187 H187       -4.3488  -10.4426  -45.2575 H         1 UNK         0.0600 
    188 H188       -3.6449  -10.5358  -46.8671 H         1 UNK         0.0600 
    189 H189       -3.6850  -12.8964  -47.7291 H         1 UNK         0.3000 
    190 H190       -2.2027  -21.3615  -45.7015 H         1 UNK         0.3000 
    191 H191       -4.2157  -22.0801  -47.6219 H         1 UNK         0.0600 
    192 H192       -4.7553  -21.0397  -45.4344 H         1 UNK         0.0600 
    193 H193       -5.5602  -22.5934  -45.5763 H         1 UNK         0.0600 
    194 H194       -4.1174  -22.4422  -44.5792 H         1 UNK         0.0600 
    195 H195       -1.8267  -23.9056  -45.8562 H         1 UNK         0.3000 
    196 H196       -2.8958  -26.5575  -46.3028 H         1 UNK         0.0600 
    197 H197       -0.6441  -27.2491  -45.4716 H         1 UNK         0.0600 
    198 H198       -1.3570  -26.0411  -44.4154 H         1 UNK         0.0600 
    199 H199       -0.0842  -25.5830  -45.5475 H         1 UNK         0.0600 
    200 H200       -1.0852  -24.2789  -48.2817 H         1 UNK         0.3000 
    201 H201        0.0150  -26.3210  -50.0842 H         1 UNK         0.0600 
    202 H202        1.2718  -24.1879  -49.6140 H         1 UNK         0.0600 
    203 H203       -0.0161  -23.2722  -50.3973 H         1 UNK         0.0600 
    204 H204        0.9255  -24.4263  -51.3197 H         1 UNK         0.0600 
    205 H205       -2.5693  -23.7984  -50.0686 H         1 UNK         0.3000 
    206 H206       -4.3278  -25.4167  -51.6423 H         1 UNK         0.0600 
    207 H207       -3.1679  -22.8736  -52.9349 H         1 UNK         0.0600 
    208 H208       -2.9850  -24.5153  -53.5478 H         1 UNK         0.0600 
    209 H209       -4.5663  -23.7626  -53.5320 H         1 UNK         0.0600 
    210 H210       -6.4572  -24.5705  -51.5739 H         1 UNK         0.3000 
    211 H211       -7.1667  -23.0391  -49.3098 H         1 UNK         0.0600 
    212 H212       -8.7952  -23.7838  -51.7990 H         1 UNK         0.0600 
    213 H213       -9.4660  -23.1751  -50.2906 H         1 UNK         0.0600 
    214 H214       -8.6574  -24.7345  -50.3195 H         1 UNK         0.0600 
    215 H215       -7.0405  -20.9434  -48.9944 H         1 UNK         0.3000 
    216 H216       -6.9328  -18.7596  -49.1383 H         1 UNK         0.0600 
    217 H217       -8.1149  -17.4747  -50.8436 H         1 UNK         0.0600 
    218 H218       -9.1003  -18.8597  -50.4036 H         1 UNK         0.0600 
    219 H219       -8.1994  -18.8576  -51.9209 H         1 UNK         0.0600 
    220 H220       -4.9873  -20.6975  -50.8314 H         1 UNK         0.3000 
    221 H221       -3.1034  -20.6285  -51.9583 H         1 UNK         0.0600 
    222 H222       -2.5794  -18.1367  -50.2677 H         1 UNK         0.0600 
    223 H223       -2.4663  -19.7998  -49.6946 H         1 UNK         0.0600 
    224 H224       -1.3652  -19.2359  -50.9257 H         1 UNK         0.0600 
    225 H225       -1.7066  -17.8069  -52.3392 H         1 UNK         0.3000 
    226 H226       -1.2071  -16.4846  -54.0576 H         1 UNK         0.0600 
    227 H227       -3.2165  -15.3002  -53.2451 H         1 UNK         0.0600 
    228 H228       -3.0696  -15.1130  -54.9808 H         1 UNK         0.0600 
    229 H229       -4.2557  -16.2341  -54.3082 H         1 UNK         0.0600 
    230 H230       -3.7538  -16.8149  -56.2332 H         1 UNK         0.3000 
    231 H231       -2.1520  -18.0675  -58.2550 H         1 UNK         0.0600 
    232 H232       -5.1407  -17.3835  -58.1819 H         1 UNK         0.0600 
    233 H233       -4.2266  -17.8138  -59.6225 H         1 UNK         0.0600 
    234 H234       -3.8506  -16.3294  -58.7631 H         1 UNK         0.0600 
    235 H235       -4.2933  -19.4129  -55.8102 H         1 UNK         0.3000 
    236 H236       -5.0505  -21.7847  -57.2698 H         1 UNK         0.0600 
    237 H237       -6.3633  -20.7904  -55.3378 H         1 UNK         0.0600 
    238 H238       -6.0226  -22.5036  -55.1639 H         1 UNK         0.0600 
    239 H239       -5.0937  -21.3359  -54.2430 H         1 UNK         0.0600 
    240 H240       -2.1296  -20.8533  -55.6464 H         1 UNK         0.3000 
    241 H241       -1.1392  -23.4255  -54.9010 H         1 UNK         0.0600 
    242 H242       -1.5242  -22.1156  -58.1555 H         1 UNK         0.3800 
    243 H243       -0.4771  -23.2825  -58.9203 H         1 UNK         0.3800 
    244 H244        0.4388  -20.9167  -55.6327 H         1 UNK         0.0800 
    245 H245        1.0923  -22.3249  -54.8337 H         1 UNK         0.0800 
    246 H246        1.6355  -19.5975  -53.9287 H         1 UNK         0.0800 
    247 H247        2.1499  -20.9112  -52.9023 H         1 UNK         0.0800 
@<TRIPOS>BOND
     1    1    2 1    
     2    1  127 1    
     3    1  128 1    
     4    1  129 1    
     5    2    3 2    
     6    2    4 am   BACKBONE|DICT|INTERRES
     7    4    5 1    
     8    4  130 1    
     9    5    6 1    
    10    5   65 1    
    11    5  131 1    
    12    6    7 1    
    13    6  132 1    
    14    6  133 1    
    15    7    8 1    
    16    8    9 1    
    17    8  134 1    
    18    8  135 1    
    19    9   10 ar   
    20    9   14 ar   
    21   10   11 ar   
    22   10  136 1    
    23   11   12 ar   
    24   11  126 1    
    25   12   13 ar   
    26   12  137 1    
    27   13   14 ar   
    28   13   15 1    
    29   14  138 1    
    30   15   16 1    
    31   15  139 1    
    32   15  140 1    
    33   16   17 1    
    34   17   18 1    
    35   17  141 1    
    36   17  142 1    
    37   18   19 1    
    38   18   67 1    
    39   18  143 1    
    40   19   20 am   BACKBONE|DICT|INTERRES
    41   19  144 1    
    42   20   21 2    
    43   20   22 1    
    44   22   23 1    
    45   22   24 1    
    46   22  145 1    
    47   23  146 1    
    48   23  147 1    
    49   23  148 1    
    50   24   25 am   BACKBONE|DICT|INTERRES
    51   24  149 1    
    52   25   26 2    
    53   25   27 1    
    54   27   28 1    
    55   27   29 1    
    56   27  150 1    
    57   28  151 1    
    58   28  152 1    
    59   28  153 1    
    60   29   30 am   BACKBONE|DICT|INTERRES
    61   29  154 1    
    62   30   31 2    
    63   30   32 1    
    64   32   33 1    
    65   32   34 1    
    66   32  155 1    
    67   33  156 1    
    68   33  157 1    
    69   33  158 1    
    70   34   35 am   BACKBONE|DICT|INTERRES
    71   34  159 1    
    72   35   36 2    
    73   35   37 1    
    74   37   38 1    
    75   37   39 1    
    76   37  160 1    
    77   38  161 1    
    78   38  162 1    
    79   38  163 1    
    80   39   40 am   BACKBONE|DICT|INTERRES
    81   39  164 1    
    82   40   41 2    
    83   40   42 1    
    84   42   43 1    
    85   42   44 1    
    86   42  165 1    
    87   43  166 1    
    88   43  167 1    
    89   43  168 1    
    90   44   45 am   BACKBONE|DICT|INTERRES
    91   44  169 1    
    92   45   46 2    
    93   45   47 1    
    94   47   48 1    
    95   47   49 1    
    96   47  170 1    
    97   48  171 1    
    98   48  172 1    
    99   48  173 1    
   100   49   50 am   BACKBONE|DICT|INTERRES
   101   49  174 1    
   102   50   51 2    
   103   50   52 1    
   104   52   53 1    
   105   52   54 1    
   106   52  175 1    
   107   53  176 1    
   108   53  177 1    
   109   53  178 1    
   110   54   55 am   BACKBONE|DICT|INTERRES
   111   54  179 1    
   112   55   56 2    
   113   55   57 1    
   114   57   58 1    
   115   57   59 1    
   116   57  180 1    
   117   58  181 1    
   118   58  182 1    
   119   58  183 1    
   120   59   60 am   BACKBONE|DICT|INTERRES
   121   59  184 1    
   122   60   61 2    
   123   60   62 1    
   124   62   63 1    
   125   62   64 1    
   126   62  185 1    
   127   63  186 1    
   128   63  187 1    
   129   63  188 1    
   130   64   65 am   BACKBONE|DICT|INTERRES
   131   64  189 1    
   132   65   66 2    
   133   67   68 2    
   134   67   69 am   BACKBONE|DICT|INTERRES
   135   69   70 1    
   136   69  190 1    
   137   70   71 1    
   138   70   72 1    
   139   70  191 1    
   140   71  192 1    
   141   71  193 1    
   142   71  194 1    
   143   72   73 2    
   144   72   74 am   BACKBONE|DICT|INTERRES
   145   74   75 1    
   146   74  195 1    
   147   75   76 1    
   148   75   77 1    
   149   75  196 1    
   150   76  197 1    
   151   76  198 1    
   152   76  199 1    
   153   77   78 2    
   154   77   79 am   BACKBONE|DICT|INTERRES
   155   79   80 1    
   156   79  200 1    
   157   80   81 1    
   158   80   82 1    
   159   80  201 1    
   160   81  202 1    
   161   81  203 1    
   162   81  204 1    
   163   82   83 2    
   164   82   84 am   BACKBONE|DICT|INTERRES
   165   84   85 1    
   166   84  205 1    
   167   85   86 1    
   168   85   87 1    
   169   85  206 1    
   170   86  207 1    
   171   86  208 1    
   172   86  209 1    
   173   87   88 2    
   174   87   89 am   BACKBONE|DICT|INTERRES
   175   89   90 1    
   176   89  210 1    
   177   90   91 1    
   178   90   92 1    
   179   90  211 1    
   180   91  212 1    
   181   91  213 1    
   182   91  214 1    
   183   92   93 2    
   184   92   94 am   BACKBONE|DICT|INTERRES
   185   94   95 1    
   186   94  215 1    
   187   95   96 1    
   188   95   97 1    
   189   95  216 1    
   190   96  217 1    
   191   96  218 1    
   192   96  219 1    
   193   97   98 2    
   194   97   99 am   BACKBONE|DICT|INTERRES
   195   99  100 1    
   196   99  220 1    
   197  100  101 1    
   198  100  102 1    
   199  100  221 1    
   200  101  222 1    
   201  101  223 1    
   202  101  224 1    
   203  102  103 2    
   204  102  104 am   BACKBONE|DICT|INTERRES
   205  104  105 1    
   206  104  225 1    
   207  105  106 1    
   208  105  107 1    
   209  105  226 1    
   210  106  227 1    
   211  106  228 1    
   212  106  229 1    
   213  107  108 2    
   214  107  109 am   BACKBONE|DICT|INTERRES
   215  109  110 1    
   216  109  230 1    
   217  110  111 1    
   218  110  112 1    
   219  110  231 1    
   220  111  232 1    
   221  111  233 1    
   222  111  234 1    
   223  112  113 2    
   224  112  114 am   BACKBONE|DICT|INTERRES
   225  114  115 1    
   226  114  235 1    
   227  115  116 1    
   228  115  117 1    
   229  115  236 1    
   230  116  237 1    
   231  116  238 1    
   232  116  239 1    
   233  117  118 2    
   234  117  119 am   BACKBONE|DICT|INTERRES
   235  119  120 1    
   236  119  240 1    
   237  120  121 1    
   238  120  124 1    
   239  120  241 1    
   240  121  122 am   BACKBONE|DICT|INTERRES
   241  121  123 2    
   242  122  242 1    
   243  122  243 1    
   244  124  125 1    
   245  124  244 1    
   246  124  245 1    
   247  125  126 1    
   248  126  246 1    
   249  126  247 1    
@<TRIPOS>SUBSTRUCTURE
     1 UNK         1 GROUP             0       ****    0 ROOT    
