@<TRIPOS>MOLECULE
3R540
247   249    1
SMALL
USER_CHARGES


@<TRIPOS>ATOM
      1 CA         -0.5890  -10.2287  -47.1397 C.3       0 UNK        -0.1800 
      2 C          -1.5555  -11.0070  -46.2580 C.2       0 UNK         0.5000 
      3 O          -2.3730  -10.4013  -45.5654 O.2       0 UNK        -0.5000 
      4 N          -1.4551  -12.3427  -46.2843 N.am      1 UNK        -0.5000 
      5 CA         -2.2449  -13.3001  -45.4954 C.3       1 UNK         0.1400 
      6 C6         -3.7284  -13.4021  -45.9402 C.3       23 UNK        -0.0398 
      7 S7         -3.8528  -14.1783  -47.5864 S.3       23 UNK        -0.2404 
      8 C8         -3.9251  -15.9350  -47.1079 C.3       23 UNK        -0.0205 
      9 C9         -3.1920  -16.8151  -48.1062 C.ar      23 UNK        -0.0193 
     10 C10        -3.8853  -17.4301  -49.1516 C.ar      23 UNK        -0.1150 
     11 C11        -3.2166  -18.2699  -50.0474 C.ar      23 UNK        -0.0193 
     12 C12        -1.8400  -18.4694  -49.9076 C.ar      23 UNK        -0.1150 
     13 C13        -1.1334  -17.8508  -48.8730 C.ar      23 UNK        -0.0193 
     14 C14        -1.8184  -17.0340  -47.9689 C.ar      23 UNK        -0.1150 
     15 C15         0.3715  -18.0361  -48.7462 C.3       23 UNK        -0.0205 
     16 S16         0.8288  -19.1473  -47.3781 S.3       23 UNK        -0.2404 
     17 C17         0.6335  -20.8048  -48.1168 C.3       23 UNK        -0.0398 
     18 CA         -0.4104  -21.7265  -47.4358 C.3       11 UNK         0.1400 
     19 N          -0.1971  -21.9062  -45.9928 N.am      11 UNK        -0.5000 
     20 C          -0.3773  -23.0789  -45.3634 C.2       10 UNK         0.5000 
     21 O          -0.6769  -24.1236  -45.9419 O.2       10 UNK        -0.5000 
     22 CA         -0.2128  -23.1069  -43.8304 C.3       10 UNK         0.1400 
     23 CB          1.2602  -23.3240  -43.4524 C.3       10 UNK        -0.1800 
     24 N          -0.7075  -21.9111  -43.1498 N.am      10 UNK        -0.5000 
     25 C          -1.9652  -21.4506  -43.1929 C.2       9 UNK         0.5000 
     26 O          -2.8736  -22.0068  -43.8085 O.2       9 UNK        -0.5000 
     27 CA         -2.2542  -20.1226  -42.4602 C.3       9 UNK         0.1400 
     28 CB         -2.8996  -20.3978  -41.0941 C.3       9 UNK        -0.1800 
     29 N          -1.0890  -19.2490  -42.2720 N.am      9 UNK        -0.5000 
     30 C          -0.2978  -18.7906  -43.2516 C.2       8 UNK         0.5000 
     31 O          -0.4315  -19.1179  -44.4318 O.2       8 UNK        -0.5000 
     32 CA          0.8600  -17.8699  -42.8120 C.3       8 UNK         0.1400 
     33 CB          1.9160  -18.6663  -42.0267 C.3       8 UNK        -0.1800 
     34 N           1.5297  -17.2020  -43.9280 N.am      8 UNK        -0.5000 
     35 C           0.9720  -16.2936  -44.7380 C.2       7 UNK         0.5000 
     36 O          -0.1811  -15.8816  -44.6132 O.2       7 UNK        -0.5000 
     37 CA          1.8980  -15.7088  -45.8162 C.3       7 UNK         0.1400 
     38 CB          1.2388  -14.6003  -46.6566 C.3       7 UNK        -0.1800 
     39 N           3.0742  -15.1484  -45.1621 N.am      7 UNK        -0.5000 
     40 C           4.3476  -15.3816  -45.4995 C.2       6 UNK         0.5000 
     41 O           4.6846  -16.1570  -46.3958 O.2       6 UNK        -0.5000 
     42 CA          5.4186  -14.6210  -44.6876 C.3       6 UNK         0.1400 
     43 CB          6.7738  -14.5136  -45.4178 C.3       6 UNK        -0.1800 
     44 N           4.9586  -13.3053  -44.2278 N.am      6 UNK        -0.5000 
     45 C           4.6042  -12.2491  -44.9802 C.2       5 UNK         0.5000 
     46 O           4.6947  -12.2243  -46.2081 O.2       5 UNK        -0.5000 
     47 CA          4.0292  -11.0173  -44.2476 C.3       5 UNK         0.1400 
     48 CB          2.6597  -10.6183  -44.8289 C.3       5 UNK        -0.1800 
     49 N           3.8752  -11.2538  -42.8109 N.am      5 UNK        -0.5000 
     50 C           4.7790  -10.9420  -41.8714 C.2       4 UNK         0.5000 
     51 O           5.8271  -10.3399  -42.1051 O.2       4 UNK        -0.5000 
     52 CA          4.4755  -11.4010  -40.4291 C.3       4 UNK         0.1400 
     53 CB          3.8706  -10.2460  -39.6166 C.3       4 UNK        -0.1800 
     54 N           3.5710  -12.5525  -40.3592 N.am      4 UNK        -0.5000 
     55 C           3.8583  -13.7901  -40.7886 C.2       3 UNK         0.5000 
     56 O           4.9502  -14.1150  -41.2536 O.2       3 UNK        -0.5000 
     57 CA          2.7034  -14.8114  -40.7740 C.3       3 UNK         0.1400 
     58 CB          2.6771  -15.5933  -39.4533 C.3       3 UNK        -0.1800 
     59 N           1.3920  -14.1951  -41.0051 N.am      3 UNK        -0.5000 
     60 C           1.0481  -13.5771  -42.1413 C.2       2 UNK         0.5000 
     61 O           1.8032  -13.4737  -43.1133 O.2       2 UNK        -0.5000 
     62 CA         -0.3355  -12.9212  -42.1864 C.3       2 UNK         0.1400 
     63 CB         -0.2618  -11.4628  -41.7057 C.3       2 UNK        -0.1800 
     64 N          -0.7921  -12.9578  -43.5666 N.am      2 UNK        -0.5000 
     65 C          -2.0567  -13.1027  -43.9737 C.2       1 UNK         0.5000 
     66 O          -3.0255  -13.0941  -43.2115 O.2       1 UNK        -0.5000 
     67 C          -1.8602  -21.3221  -47.7618 C.2       11 UNK         0.5000 
     68 O          -2.2953  -21.5358  -48.8922 O.2       11 UNK        -0.5000 
     69 N          -2.5956  -20.7803  -46.7806 N.am      12 UNK        -0.5000 
     70 CA         -4.0148  -20.4560  -46.9183 C.3       12 UNK         0.1400 
     71 CB         -4.4410  -19.5010  -45.7937 C.3       12 UNK        -0.1800 
     72 C          -4.8929  -21.7201  -46.9317 C.2       12 UNK         0.5000 
     73 O          -5.8310  -21.7960  -47.7267 O.2       12 UNK        -0.5000 
     74 N          -4.5574  -22.6906  -46.0673 N.am      13 UNK        -0.5000 
     75 CA         -5.2121  -23.9904  -45.9077 C.3       13 UNK         0.1400 
     76 CB         -4.4597  -24.8000  -44.8396 C.3       13 UNK        -0.1800 
     77 C          -5.2976  -24.7695  -47.2329 C.2       13 UNK         0.5000 
     78 O          -4.2724  -25.2304  -47.7404 O.2       13 UNK        -0.5000 
     79 N          -6.5140  -24.8357  -47.7959 N.am      14 UNK        -0.5000 
     80 CA         -6.8643  -25.4235  -49.0971 C.3       14 UNK         0.1400 
     81 CB         -6.7336  -26.9602  -49.0401 C.3       14 UNK        -0.1800 
     82 C          -6.0832  -24.8153  -50.2844 C.2       14 UNK         0.5000 
     83 O          -5.8829  -25.4926  -51.2936 O.2       14 UNK        -0.5000 
     84 N          -5.6042  -23.5719  -50.1231 N.am      15 UNK        -0.5000 
     85 CA         -4.6643  -22.8708  -51.0020 C.3       15 UNK         0.1400 
     86 CB         -5.3627  -22.4295  -52.3043 C.3       15 UNK        -0.1800 
     87 C          -3.3646  -23.6702  -51.2486 C.2       15 UNK         0.5000 
     88 O          -2.8885  -23.7342  -52.3831 O.2       15 UNK        -0.5000 
     89 N          -2.8476  -24.3054  -50.1848 N.am      16 UNK        -0.5000 
     90 CA         -1.6887  -25.2033  -50.1633 C.3       16 UNK         0.1400 
     91 CB         -0.4036  -24.4590  -50.5882 C.3       16 UNK        -0.1800 
     92 C          -1.9419  -26.4826  -50.9873 C.2       16 UNK         0.5000 
     93 O          -1.0541  -26.9394  -51.7064 O.2       16 UNK        -0.5000 
     94 N          -3.1736  -27.0089  -50.9008 N.am      17 UNK        -0.5000 
     95 CA         -3.7368  -28.0742  -51.7410 C.3       17 UNK         0.1400 
     96 CB         -3.0370  -29.4238  -51.4782 C.3       17 UNK        -0.1800 
     97 C          -3.7466  -27.6627  -53.2295 C.2       17 UNK         0.5000 
     98 O          -3.2690  -28.4014  -54.0917 O.2       17 UNK        -0.5000 
     99 N          -4.2547  -26.4469  -53.4731 N.am      18 UNK        -0.5000 
    100 CA        -4.3381  -25.7088  -54.7382 C.3       18 UNK         0.1400 
    101 CB        -5.1732  -26.4832  -55.7773 C.3       18 UNK        -0.1800 
    102 C         -2.9904  -25.2363  -55.3277 C.2       18 UNK         0.5000 
    103 O         -3.0064  -24.5359  -56.3413 O.2       18 UNK        -0.5000 
    104 N         -1.8545  -25.5777  -54.7015 N.am      19 UNK        -0.5000 
    105 CA        -0.5088  -25.2555  -55.1846 C.3       19 UNK         0.1400 
    106 CB         0.5306  -26.0655  -54.3971 C.3       19 UNK        -0.1800 
    107 C         -0.1617  -23.7548  -55.1443 C.2       19 UNK         0.5000 
    108 O          0.6893  -23.3209  -55.9221 O.2       19 UNK        -0.5000 
    109 N         -0.8200  -22.9831  -54.2664 N.am      20 UNK        -0.5000 
    110 CA        -0.6617  -21.5282  -54.1837 C.3       20 UNK         0.1400 
    111 CB        -1.1345  -21.0390  -52.8082 C.3       20 UNK        -0.1800 
    112 C         -1.4101  -20.7782  -55.3042 C.2       20 UNK         0.5000 
    113 O         -1.1094  -19.6087  -55.5446 O.2       20 UNK        -0.5000 
    114 N         -2.3612  -21.4599  -55.9636 N.am      21 UNK        -0.5000 
    115 CA        -3.1777  -20.9894  -57.0875 C.3       21 UNK         0.1400 
    116 CB        -2.3008  -20.7567  -58.3358 C.3       21 UNK        -0.1800 
    117 C         -4.0779  -19.7805  -56.7468 C.2       21 UNK         0.5000 
    118 O         -4.3425  -18.9466  -57.6151 O.2       21 UNK        -0.5000 
    119 N         -4.5525  -19.7162  -55.4947 N.am      22 UNK        -0.5000 
    120 CA        -5.4863  -18.6831  -55.0080 C.3       22 UNK         0.1400 
    121 C         -6.9394  -18.8106  -55.5587 C.2       22 UNK         0.5000 
    122 N         -7.3324  -19.9254  -56.1637 N.am      22 UNK        -0.7600 
    123 O         -7.7254  -17.8749  -55.4377 O.2       22 UNK        -0.5000 
    124 C124       -5.5101  -18.5968  -53.4605 C.3       23 UNK        -0.0398 
    125 S125       -3.9078  -18.1185  -52.7296 S.3       23 UNK        -0.2404 
    126 C126       -3.9920  -18.9920  -51.1365 C.3       23 UNK        -0.0205 
    127 H127       -1.1403   -9.6378  -47.8710 H         1 UNK         0.0600 
    128 H128        0.0918  -10.8887  -47.6781 H         1 UNK         0.0600 
    129 H129        0.0088   -9.5500  -46.5311 H         1 UNK         0.0600 
    130 H130       -0.7796  -12.7612  -46.9065 H         1 UNK         0.3000 
    131 H131       -1.7953  -14.2713  -45.6965 H         1 UNK         0.0600 
    132 H132       -4.1958  -12.4173  -45.9697 H         1 UNK         0.0800 
    133 H133       -4.3199  -13.9950  -45.2405 H         1 UNK         0.0800 
    134 H134       -4.9685  -16.2417  -47.0202 H         1 UNK         0.0800 
    135 H135       -3.4825  -16.0795  -46.1210 H         1 UNK         0.0800 
    136 H136       -4.9494  -17.2705  -49.2557 H         1 UNK         0.1150 
    137 H137       -1.3213  -19.1178  -50.5971 H         1 UNK         0.1150 
    138 H138       -1.2825  -16.5702  -47.1536 H         1 UNK         0.1150 
    139 H139        0.8011  -18.4005  -49.6806 H         1 UNK         0.0800 
    140 H140        0.8299  -17.0626  -48.5700 H         1 UNK         0.0800 
    141 H141        1.6096  -21.2886  -48.0681 H         1 UNK         0.0800 
    142 H142        0.4154  -20.7119  -49.1822 H         1 UNK         0.0800 
    143 H143       -0.2814  -22.6977  -47.9156 H         1 UNK         0.0600 
    144 H144        0.0204  -21.0710  -45.4604 H         1 UNK         0.3000 
    145 H145       -0.7895  -23.9556  -43.4566 H         1 UNK         0.0600 
    146 H146        1.3779  -23.4482  -42.3758 H         1 UNK         0.0600 
    147 H147        1.6572  -24.2226  -43.9269 H         1 UNK         0.0600 
    148 H148        1.8834  -22.4850  -43.7647 H         1 UNK         0.0600 
    149 H149       -0.0294  -21.3775  -42.6276 H         1 UNK         0.3000 
    150 H150       -2.9714  -19.5693  -43.0679 H         1 UNK         0.0600 
    151 H151       -3.7887  -21.0211  -41.1998 H         1 UNK         0.0600 
    152 H152       -3.2109  -19.4721  -40.6098 H         1 UNK         0.0600 
    153 H153       -2.2135  -20.9157  -40.4228 H         1 UNK         0.0600 
    154 H154       -0.9055  -18.9569  -41.3230 H         1 UNK         0.3000 
    155 H155        0.4463  -17.0968  -42.1611 H         1 UNK         0.0600 
    156 H156        1.4880  -19.1260  -41.1352 H         1 UNK         0.0600 
    157 H157        2.7304  -18.0234  -41.6928 H         1 UNK         0.0600 
    158 H158        2.3478  -19.4644  -42.6324 H         1 UNK         0.0600 
    159 H159        2.4773  -17.4899  -44.1195 H         1 UNK         0.3000 
    160 H160        2.1744  -16.5305  -46.4789 H         1 UNK         0.0600 
    161 H161        0.9892  -13.7363  -46.0415 H         1 UNK         0.0600 
    162 H162        0.3257  -14.9497  -47.1365 H         1 UNK         0.0600 
    163 H163        1.9096  -14.2602  -47.4457 H         1 UNK         0.0600 
    164 H164        2.8738  -14.5105  -44.3967 H         1 UNK         0.3000 
    165 H165        5.5824  -15.2126  -43.7859 H         1 UNK         0.0600 
    166 H166        6.6807  -14.0021  -46.3761 H         1 UNK         0.0600 
    167 H167        7.5033  -13.9711  -44.8165 H         1 UNK         0.0600 
    168 H168        7.1897  -15.5020  -45.6160 H         1 UNK         0.0600 
    169 H169        4.8543  -13.2233  -43.2242 H         1 UNK         0.3000 
    170 H170        4.7201  -10.1887  -44.4148 H         1 UNK         0.0600 
    171 H171        2.7455  -10.3440  -45.8810 H         1 UNK         0.0600 
    172 H172        1.9366  -11.4311  -44.7641 H         1 UNK         0.0600 
    173 H173        2.2436   -9.7579  -44.3049 H         1 UNK         0.0600 
    174 H174        3.0615  -11.7926  -42.5451 H         1 UNK         0.3000 
    175 H175        5.4236  -11.6867  -39.9686 H         1 UNK         0.0600 
    176 H176        2.9081   -9.9302  -40.0212 H         1 UNK         0.0600 
    177 H177        3.7207  -10.5317  -38.5752 H         1 UNK         0.0600 
    178 H178        4.5299   -9.3770  -39.6216 H         1 UNK         0.0600 
    179 H179        2.6470  -12.3776  -39.9930 H         1 UNK         0.3000 
    180 H180        2.8864  -15.5192  -41.5852 H         1 UNK         0.0600 
    181 H181        2.4706  -14.9423  -38.6029 H         1 UNK         0.0600 
    182 H182        3.6356  -16.0806  -39.2694 H         1 UNK         0.0600 
    183 H183        1.9164  -16.3740  -39.4728 H         1 UNK         0.0600 
    184 H184        0.7320  -14.2339  -40.2413 H         1 UNK         0.3000 
    185 H185       -1.0170  -13.4908  -41.5512 H         1 UNK         0.0600 
    186 H186        0.0831  -11.4057  -40.6726 H         1 UNK         0.0600 
    187 H187        0.4227  -10.8719  -42.3161 H         1 UNK         0.0600 
    188 H188       -1.2411  -10.9856  -41.7480 H         1 UNK         0.0600 
    189 H189       -0.0444  -13.0301  -44.2434 H         1 UNK         0.3000 
    190 H190       -2.1692  -20.6287  -45.8782 H         1 UNK         0.3000 
    191 H191       -4.1558  -19.9415  -47.8698 H         1 UNK         0.0600 
    192 H192       -4.4674  -20.0014  -44.8262 H         1 UNK         0.0600 
    193 H193       -3.7627  -18.6514  -45.7156 H         1 UNK         0.0600 
    194 H194       -5.4398  -19.1063  -45.9823 H         1 UNK         0.0600 
    195 H195       -3.7924  -22.5063  -45.4244 H         1 UNK         0.3000 
    196 H196       -6.2236  -23.8072  -45.5405 H         1 UNK         0.0600 
    197 H197       -4.4902  -24.2996  -43.8716 H         1 UNK         0.0600 
    198 H198       -3.4119  -24.9428  -45.1080 H         1 UNK         0.0600 
    199 H199       -4.9047  -25.7872  -44.7094 H         1 UNK         0.0600 
    200 H200       -7.2776  -24.3774  -47.3176 H         1 UNK         0.3000 
    201 H201       -7.9138  -25.1844  -49.2728 H         1 UNK         0.0600 
    202 H202       -7.1108  -27.4223  -49.9532 H         1 UNK         0.0600 
    203 H203       -7.3078  -27.3730  -48.2108 H         1 UNK         0.0600 
    204 H204       -5.6970  -27.2754  -48.9179 H         1 UNK         0.0600 
    205 H205       -5.8170  -23.0914  -49.2533 H         1 UNK         0.3000 
    206 H206       -4.3701  -21.9729  -50.4611 H         1 UNK         0.0600 
    207 H207       -6.2316  -21.8081  -52.0892 H         1 UNK         0.0600 
    208 H208       -5.7029  -23.2825  -52.8901 H         1 UNK         0.0600 
    209 H209       -4.6909  -21.8451  -52.9332 H         1 UNK         0.0600 
    210 H210       -3.3434  -24.2351  -49.3026 H         1 UNK         0.3000 
    211 H211       -1.5654  -25.5172  -49.1257 H         1 UNK         0.0600 
    212 H212       -0.2935  -23.5162  -50.0557 H         1 UNK         0.0600 
    213 H213        0.4812  -25.0606  -50.3784 H         1 UNK         0.0600 
    214 H214       -0.3970  -24.2342  -51.6543 H         1 UNK         0.0600 
    215 H215       -3.8355  -26.5346  -50.3024 H         1 UNK         0.3000 
    216 H216       -4.7812  -28.1827  -51.4446 H         1 UNK         0.0600 
    217 H217       -3.5356  -30.2300  -52.0171 H         1 UNK         0.0600 
    218 H218       -1.9951  -29.4148  -51.7990 H         1 UNK         0.0600 
    219 H219       -3.0595  -29.6787  -50.4188 H         1 UNK         0.0600 
    220 H220       -4.6455  -25.9521  -52.6747 H         1 UNK         0.3000 
    221 H221       -4.8851  -24.7963  -54.5016 H         1 UNK         0.0600 
    222 H222       -4.6645  -27.3852  -56.1179 H         1 UNK         0.0600 
    223 H223       -6.1399  -26.7757  -55.3676 H         1 UNK         0.0600 
    224 H224       -5.3679  -25.8698  -56.6578 H         1 UNK         0.0600 
    225 H225       -1.9139  -26.1204  -53.8505 H         1 UNK         0.3000 
    226 H226       -0.4551  -25.5714  -56.2285 H         1 UNK         0.0600 
    227 H227        0.2925  -27.1294  -54.3997 H         1 UNK         0.0600 
    228 H228        1.5233  -25.9524  -54.8342 H         1 UNK         0.0600 
    229 H229        0.5947  -25.7364  -53.3601 H         1 UNK         0.0600 
    230 H230       -1.5150  -23.4030  -53.6520 H         1 UNK         0.3000 
    231 H231        0.3992  -21.2869  -54.2773 H         1 UNK         0.0600 
    232 H232       -0.9423  -19.9718  -52.6960 H         1 UNK         0.0600 
    233 H233       -0.6189  -21.5543  -51.9976 H         1 UNK         0.0600 
    234 H234       -2.2047  -21.1916  -52.6799 H         1 UNK         0.0600 
    235 H235       -2.5023  -22.4297  -55.7091 H         1 UNK         0.3000 
    236 H236       -3.8593  -21.8086  -57.3208 H         1 UNK         0.0600 
    237 H237       -1.6928  -21.6338  -58.5579 H         1 UNK         0.0600 
    238 H238       -2.9145  -20.5587  -59.2153 H         1 UNK         0.0600 
    239 H239       -1.6299  -19.9069  -58.2073 H         1 UNK         0.0600 
    240 H240       -4.2716  -20.4228  -54.8329 H         1 UNK         0.3000 
    241 H241       -5.1202  -17.7228  -55.3764 H         1 UNK         0.0600 
    242 H242       -8.2738  -19.9902  -56.5184 H         1 UNK         0.3800 
    243 H243       -6.7025  -20.7030  -56.2729 H         1 UNK         0.3800 
    244 H244       -6.2398  -17.8563  -53.1273 H         1 UNK         0.0800 
    245 H245       -5.8362  -19.5498  -53.0431 H         1 UNK         0.0800 
    246 H246       -3.5920  -19.9962  -51.2615 H         1 UNK         0.0800 
    247 H247       -5.0313  -19.1108  -50.8260 H         1 UNK         0.0800 
@<TRIPOS>BOND
     1    1    2 1    
     2    1  127 1    
     3    1  128 1    
     4    1  129 1    
     5    2    3 2    
     6    2    4 am   BACKBONE|DICT|INTERRES
     7    4    5 1    
     8    4  130 1    
     9    5    6 1    
    10    5   65 1    
    11    5  131 1    
    12    6    7 1    
    13    6  132 1    
    14    6  133 1    
    15    7    8 1    
    16    8    9 1    
    17    8  134 1    
    18    8  135 1    
    19    9   10 ar   
    20    9   14 ar   
    21   10   11 ar   
    22   10  136 1    
    23   11   12 ar   
    24   11  126 1    
    25   12   13 ar   
    26   12  137 1    
    27   13   14 ar   
    28   13   15 1    
    29   14  138 1    
    30   15   16 1    
    31   15  139 1    
    32   15  140 1    
    33   16   17 1    
    34   17   18 1    
    35   17  141 1    
    36   17  142 1    
    37   18   19 1    
    38   18   67 1    
    39   18  143 1    
    40   19   20 am   BACKBONE|DICT|INTERRES
    41   19  144 1    
    42   20   21 2    
    43   20   22 1    
    44   22   23 1    
    45   22   24 1    
    46   22  145 1    
    47   23  146 1    
    48   23  147 1    
    49   23  148 1    
    50   24   25 am   BACKBONE|DICT|INTERRES
    51   24  149 1    
    52   25   26 2    
    53   25   27 1    
    54   27   28 1    
    55   27   29 1    
    56   27  150 1    
    57   28  151 1    
    58   28  152 1    
    59   28  153 1    
    60   29   30 am   BACKBONE|DICT|INTERRES
    61   29  154 1    
    62   30   31 2    
    63   30   32 1    
    64   32   33 1    
    65   32   34 1    
    66   32  155 1    
    67   33  156 1    
    68   33  157 1    
    69   33  158 1    
    70   34   35 am   BACKBONE|DICT|INTERRES
    71   34  159 1    
    72   35   36 2    
    73   35   37 1    
    74   37   38 1    
    75   37   39 1    
    76   37  160 1    
    77   38  161 1    
    78   38  162 1    
    79   38  163 1    
    80   39   40 am   BACKBONE|DICT|INTERRES
    81   39  164 1    
    82   40   41 2    
    83   40   42 1    
    84   42   43 1    
    85   42   44 1    
    86   42  165 1    
    87   43  166 1    
    88   43  167 1    
    89   43  168 1    
    90   44   45 am   BACKBONE|DICT|INTERRES
    91   44  169 1    
    92   45   46 2    
    93   45   47 1    
    94   47   48 1    
    95   47   49 1    
    96   47  170 1    
    97   48  171 1    
    98   48  172 1    
    99   48  173 1    
   100   49   50 am   BACKBONE|DICT|INTERRES
   101   49  174 1    
   102   50   51 2    
   103   50   52 1    
   104   52   53 1    
   105   52   54 1    
   106   52  175 1    
   107   53  176 1    
   108   53  177 1    
   109   53  178 1    
   110   54   55 am   BACKBONE|DICT|INTERRES
   111   54  179 1    
   112   55   56 2    
   113   55   57 1    
   114   57   58 1    
   115   57   59 1    
   116   57  180 1    
   117   58  181 1    
   118   58  182 1    
   119   58  183 1    
   120   59   60 am   BACKBONE|DICT|INTERRES
   121   59  184 1    
   122   60   61 2    
   123   60   62 1    
   124   62   63 1    
   125   62   64 1    
   126   62  185 1    
   127   63  186 1    
   128   63  187 1    
   129   63  188 1    
   130   64   65 am   BACKBONE|DICT|INTERRES
   131   64  189 1    
   132   65   66 2    
   133   67   68 2    
   134   67   69 am   BACKBONE|DICT|INTERRES
   135   69   70 1    
   136   69  190 1    
   137   70   71 1    
   138   70   72 1    
   139   70  191 1    
   140   71  192 1    
   141   71  193 1    
   142   71  194 1    
   143   72   73 2    
   144   72   74 am   BACKBONE|DICT|INTERRES
   145   74   75 1    
   146   74  195 1    
   147   75   76 1    
   148   75   77 1    
   149   75  196 1    
   150   76  197 1    
   151   76  198 1    
   152   76  199 1    
   153   77   78 2    
   154   77   79 am   BACKBONE|DICT|INTERRES
   155   79   80 1    
   156   79  200 1    
   157   80   81 1    
   158   80   82 1    
   159   80  201 1    
   160   81  202 1    
   161   81  203 1    
   162   81  204 1    
   163   82   83 2    
   164   82   84 am   BACKBONE|DICT|INTERRES
   165   84   85 1    
   166   84  205 1    
   167   85   86 1    
   168   85   87 1    
   169   85  206 1    
   170   86  207 1    
   171   86  208 1    
   172   86  209 1    
   173   87   88 2    
   174   87   89 am   BACKBONE|DICT|INTERRES
   175   89   90 1    
   176   89  210 1    
   177   90   91 1    
   178   90   92 1    
   179   90  211 1    
   180   91  212 1    
   181   91  213 1    
   182   91  214 1    
   183   92   93 2    
   184   92   94 am   BACKBONE|DICT|INTERRES
   185   94   95 1    
   186   94  215 1    
   187   95   96 1    
   188   95   97 1    
   189   95  216 1    
   190   96  217 1    
   191   96  218 1    
   192   96  219 1    
   193   97   98 2    
   194   97   99 am   BACKBONE|DICT|INTERRES
   195   99  100 1    
   196   99  220 1    
   197  100  101 1    
   198  100  102 1    
   199  100  221 1    
   200  101  222 1    
   201  101  223 1    
   202  101  224 1    
   203  102  103 2    
   204  102  104 am   BACKBONE|DICT|INTERRES
   205  104  105 1    
   206  104  225 1    
   207  105  106 1    
   208  105  107 1    
   209  105  226 1    
   210  106  227 1    
   211  106  228 1    
   212  106  229 1    
   213  107  108 2    
   214  107  109 am   BACKBONE|DICT|INTERRES
   215  109  110 1    
   216  109  230 1    
   217  110  111 1    
   218  110  112 1    
   219  110  231 1    
   220  111  232 1    
   221  111  233 1    
   222  111  234 1    
   223  112  113 2    
   224  112  114 am   BACKBONE|DICT|INTERRES
   225  114  115 1    
   226  114  235 1    
   227  115  116 1    
   228  115  117 1    
   229  115  236 1    
   230  116  237 1    
   231  116  238 1    
   232  116  239 1    
   233  117  118 2    
   234  117  119 am   BACKBONE|DICT|INTERRES
   235  119  120 1    
   236  119  240 1    
   237  120  121 1    
   238  120  124 1    
   239  120  241 1    
   240  121  122 am   BACKBONE|DICT|INTERRES
   241  121  123 2    
   242  122  242 1    
   243  122  243 1    
   244  124  125 1    
   245  124  244 1    
   246  124  245 1    
   247  125  126 1    
   248  126  246 1    
   249  126  247 1    
@<TRIPOS>SUBSTRUCTURE
     1 UNK         1 GROUP             0       ****    0 ROOT    
