@<TRIPOS>MOLECULE
3R540
247   249    1
SMALL
USER_CHARGES


@<TRIPOS>ATOM
      1 CA         -2.7981  -15.0665  -40.4832 C.3       0 UNK        -0.1800 
      2 C          -1.7367  -14.0354  -40.8412 C.2       0 UNK         0.5000 
      3 O          -1.0743  -13.5018  -39.9508 O.2       0 UNK        -0.5000 
      4 N          -1.5838  -13.7460  -42.1385 N.am      1 UNK        -0.5000 
      5 CA         -0.5677  -12.8464  -42.6900 C.3       1 UNK         0.1400 
      6 C6         -0.8986  -12.4157  -44.1441 C.3       23 UNK        -0.0398 
      7 S7         -1.2803  -13.7933  -45.2892 S.3       23 UNK        -0.2404 
      8 C8         -3.0685  -13.5312  -45.5132 C.3       23 UNK        -0.0205 
      9 C9         -3.6856  -14.5890  -46.4124 C.ar      23 UNK        -0.0193 
     10 C10        -3.8781  -14.3352  -47.7737 C.ar      23 UNK        -0.1150 
     11 C11        -4.4423  -15.3029  -48.6121 C.ar      23 UNK        -0.0193 
     12 C12        -4.8255  -16.5328  -48.0593 C.ar      23 UNK        -0.1150 
     13 C13        -4.6413  -16.7993  -46.6991 C.ar      23 UNK        -0.0193 
     14 C14        -4.0713  -15.8215  -45.8806 C.ar      23 UNK        -0.1150 
     15 C15        -5.0551  -18.1431  -46.1151 C.3       23 UNK        -0.0205 
     16 S16        -4.1635  -19.5135  -46.9110 S.3       23 UNK        -0.2404 
     17 C17        -4.2406  -20.7981  -45.6233 C.3       23 UNK        -0.0398 
     18 CA         -3.5481  -22.0975  -46.0893 C.3       11 UNK         0.1400 
     19 N          -2.1317  -21.9077  -46.4454 N.am      11 UNK        -0.5000 
     20 C          -1.3357  -22.8395  -46.9929 C.2       10 UNK         0.5000 
     21 O          -1.7196  -23.9750  -47.2731 O.2       10 UNK        -0.5000 
     22 CA          0.1290  -22.4612  -47.2549 C.3       10 UNK         0.1400 
     23 CB          0.2832  -21.8425  -48.6522 C.3       10 UNK        -0.1800 
     24 N           0.6305  -21.5392  -46.2376 N.am      10 UNK        -0.5000 
     25 C           1.0829  -21.9203  -45.0341 C.2       9 UNK         0.5000 
     26 O           1.2002  -23.0972  -44.6930 O.2       9 UNK        -0.5000 
     27 CA          1.4430  -20.8064  -44.0305 C.3       9 UNK         0.1400 
     28 CB          2.9239  -20.4211  -44.1614 C.3       9 UNK        -0.1800 
     29 N           0.6203  -19.6066  -44.1860 N.am      9 UNK        -0.5000 
     30 C          -0.6932  -19.5445  -43.9218 C.2       8 UNK         0.5000 
     31 O          -1.3404  -20.4836  -43.4568 O.2       8 UNK        -0.5000 
     32 CA         -1.4194  -18.2334  -44.2896 C.3       8 UNK         0.1400 
     33 CB         -1.4832  -17.2936  -43.0788 C.3       8 UNK        -0.1800 
     34 N          -0.8316  -17.5138  -45.4227 N.am      8 UNK        -0.5000 
     35 C          -0.6239  -18.0219  -46.6469 C.2       7 UNK         0.5000 
     36 O          -0.9006  -19.1790  -46.9575 O.2       7 UNK        -0.5000 
     37 CA          0.0759  -17.1182  -47.6768 C.3       7 UNK         0.1400 
     38 CB         -0.9477  -16.4562  -48.6072 C.3       7 UNK        -0.1800 
     39 N           0.9136  -16.0824  -47.0702 N.am      7 UNK        -0.5000 
     40 C           2.0251  -16.3091  -46.3556 C.2       6 UNK         0.5000 
     41 O           2.4424  -17.4390  -46.0964 O.2       6 UNK        -0.5000 
     42 CA          2.7696  -15.0713  -45.8103 C.3       6 UNK         0.1400 
     43 CB          4.2956  -15.2845  -45.7328 C.3       6 UNK        -0.1800 
     44 N           2.4463  -13.8148  -46.5031 N.am      6 UNK        -0.5000 
     45 C           2.7044  -13.5104  -47.7862 C.2       5 UNK         0.5000 
     46 O           3.2674  -14.2625  -48.5808 O.2       5 UNK        -0.5000 
     47 CA          2.2719  -12.1137  -48.2432 C.3       5 UNK         0.1400 
     48 CB          0.7383  -12.0037  -48.3447 C.3       5 UNK        -0.1800 
     49 N           2.8069  -11.1124  -47.3243 N.am      5 UNK        -0.5000 
     50 C           3.0274   -9.8276  -47.6243 C.2       4 UNK         0.5000 
     51 O           2.7572   -9.3236  -48.7152 O.2       4 UNK        -0.5000 
     52 CA          3.6534   -8.9512  -46.5217 C.3       4 UNK         0.1400 
     53 CB          2.5735   -8.0894  -45.8492 C.3       4 UNK        -0.1800 
     54 N           4.3496   -9.7176  -45.4855 N.am      4 UNK        -0.5000 
     55 C           5.5389  -10.3151  -45.6178 C.2       3 UNK         0.5000 
     56 O           6.1868  -10.3117  -46.6646 O.2       3 UNK        -0.5000 
     57 CA          6.1019  -11.0460  -44.3796 C.3       3 UNK         0.1400 
     58 CB          6.7121  -10.0454  -43.3795 C.3       3 UNK        -0.1800 
     59 N           5.1656  -11.9641  -43.7096 N.am      3 UNK        -0.5000 
     60 C           4.0202  -11.6859  -43.0726 C.2       2 UNK         0.5000 
     61 O           3.5397  -10.5538  -42.9662 O.2       2 UNK        -0.5000 
     62 CA          3.2720  -12.8765  -42.4603 C.3       2 UNK         0.1400 
     63 CB          3.7289  -13.1395  -41.0162 C.3       2 UNK        -0.1800 
     64 N           1.8485  -12.5638  -42.4834 N.am      2 UNK        -0.5000 
     65 C           0.8507  -13.4462  -42.5824 C.2       1 UNK         0.5000 
     66 O           1.0174  -14.6672  -42.6277 O.2       1 UNK        -0.5000 
     67 C          -3.7618  -23.2363  -45.0708 C.2       11 UNK         0.5000 
     68 O          -4.7685  -23.9399  -45.1555 O.2       11 UNK        -0.5000 
     69 N          -2.7749  -23.4534  -44.1899 N.am      12 UNK        -0.5000 
     70 CA         -2.6958  -24.5881  -43.2658 C.3       12 UNK         0.1400 
     71 CB         -1.5090  -24.3635  -42.3168 C.3       12 UNK        -0.1800 
     72 C          -2.5767  -25.9636  -43.9626 C.2       12 UNK         0.5000 
     73 O          -2.9094  -26.9778  -43.3491 O.2       12 UNK        -0.5000 
     74 N          -2.1294  -25.9755  -45.2254 N.am      13 UNK        -0.5000 
     75 CA         -2.0101  -27.1461  -46.0942 C.3       13 UNK         0.1400 
     76 CB         -0.5659  -27.2188  -46.6238 C.3       13 UNK        -0.1800 
     77 C          -3.0453  -27.0822  -47.2370 C.2       13 UNK         0.5000 
     78 O          -2.7543  -27.5108  -48.3555 O.2       13 UNK        -0.5000 
     79 N          -4.2302  -26.5202  -46.9480 N.am      14 UNK        -0.5000 
     80 CA         -5.3674  -26.3347  -47.8590 C.3       14 UNK         0.1400 
     81 CB         -5.9748  -27.6957  -48.2594 C.3       14 UNK        -0.1800 
     82 C          -5.0145  -25.4532  -49.0747 C.2       14 UNK         0.5000 
     83 O          -5.3605  -25.7858  -50.2089 O.2       14 UNK        -0.5000 
     84 N          -4.2870  -24.3603  -48.8058 N.am      15 UNK        -0.5000 
     85 CA         -3.7232  -23.4099  -49.7716 C.3       15 UNK         0.1400 
     86 CB         -4.8362  -22.6463  -50.5131 C.3       15 UNK        -0.1800 
     87 C          -2.7090  -24.0929  -50.7072 C.2       15 UNK         0.5000 
     88 O          -2.7560  -23.8941  -51.9206 O.2       15 UNK        -0.5000 
     89 N          -1.8416  -24.9258  -50.1111 N.am      16 UNK        -0.5000 
     90 CA         -0.8872  -25.8318  -50.7602 C.3       16 UNK         0.1400 
     91 CB          0.2637  -25.0340  -51.4076 C.3       16 UNK        -0.1800 
     92 C          -1.5862  -26.7881  -51.7498 C.2       16 UNK         0.5000 
     93 O          -1.1786  -26.8877  -52.9069 O.2       16 UNK        -0.5000 
     94 N          -2.6724  -27.4245  -51.2865 N.am      17 UNK        -0.5000 
     95 CA         -3.6155  -28.2348  -52.0690 C.3       17 UNK         0.1400 
     96 CB         -2.9663  -29.5701  -52.4868 C.3       17 UNK        -0.1800 
     97 C          -4.2146  -27.4492  -53.2594 C.2       17 UNK         0.5000 
     98 O          -4.2294  -27.9368  -54.3908 O.2       17 UNK        -0.5000 
     99 N          -4.6619  -26.2212  -52.9648 N.am      18 UNK        -0.5000 
    100 CA        -5.2240  -25.2044  -53.8600 C.3       18 UNK         0.1400 
    101 CB        -6.5227  -25.7097  -54.5204 C.3       18 UNK        -0.1800 
    102 C         -4.2428  -24.6029  -54.8921 C.2       18 UNK         0.5000 
    103 O         -4.6771  -23.8070  -55.7266 O.2       18 UNK        -0.5000 
    104 N         -2.9473  -24.9436  -54.8271 N.am      19 UNK        -0.5000 
    105 CA        -1.9169  -24.4165  -55.7271 C.3       19 UNK         0.1400 
    106 CB        -0.6874  -25.3357  -55.6944 C.3       19 UNK        -0.1800 
    107 C         -1.5044  -22.9672  -55.4028 C.2       19 UNK         0.5000 
    108 O         -1.0236  -22.2668  -56.2944 O.2       19 UNK        -0.5000 
    109 N         -1.6938  -22.5436  -54.1475 N.am      20 UNK        -0.5000 
    110 CA        -1.3396  -21.2252  -53.6246 C.3       20 UNK         0.1400 
    111 CB        -0.2671  -21.3942  -52.5331 C.3       20 UNK        -0.1800 
    112 C         -2.5921  -20.4945  -53.1068 C.2       20 UNK         0.5000 
    113 O         -2.5192  -19.7740  -52.1098 O.2       20 UNK        -0.5000 
    114 N         -3.7293  -20.6822  -53.7915 N.am      21 UNK        -0.5000 
    115 CA        -5.0353  -20.0911  -53.4798 C.3       21 UNK         0.1400 
    116 CB        -6.1296  -20.9398  -54.1512 C.3       21 UNK        -0.1800 
    117 C         -5.1253  -18.5911  -53.8423 C.2       21 UNK         0.5000 
    118 O         -5.9958  -18.1876  -54.6153 O.2       21 UNK        -0.5000 
    119 N         -4.2107  -17.7978  -53.2731 N.am      22 UNK        -0.5000 
    120 CA        -4.1008  -16.3311  -53.3814 C.3       22 UNK         0.1400 
    121 C         -3.7242  -15.7940  -54.7971 C.2       22 UNK         0.5000 
    122 N         -3.2638  -16.6263  -55.7230 N.am      22 UNK        -0.7600 
    123 O         -3.8155  -14.5967  -55.0551 O.2       22 UNK        -0.5000 
    124 C124       -5.3127  -15.5737  -52.7630 C.3       23 UNK        -0.0398 
    125 S125       -5.6864  -16.0826  -51.0489 S.3       23 UNK        -0.2404 
    126 C126       -4.5633  -14.9922  -50.1061 C.3       23 UNK        -0.0205 
    127 H127       -3.4730  -14.6651  -39.7271 H         1 UNK         0.0600 
    128 H128       -2.3274  -15.9635  -40.0808 H         1 UNK         0.0600 
    129 H129       -3.3942  -15.3532  -41.3499 H         1 UNK         0.0600 
    130 H130       -2.1291  -14.2419  -42.8267 H         1 UNK         0.3000 
    131 H131       -0.5769  -11.9422  -42.0770 H         1 UNK         0.0600 
    132 H132       -0.0827  -11.8303  -44.5715 H         1 UNK         0.0800 
    133 H133       -1.7471  -11.7308  -44.1203 H         1 UNK         0.0800 
    134 H134       -3.2371  -12.5388  -45.9346 H         1 UNK         0.0800 
    135 H135       -3.5663  -13.5408  -44.5424 H         1 UNK         0.0800 
    136 H136       -3.5678  -13.3855  -48.1868 H         1 UNK         0.1150 
    137 H137       -5.2489  -17.3073  -48.6814 H         1 UNK         0.1150 
    138 H138       -3.9233  -16.0185  -44.8288 H         1 UNK         0.1150 
    139 H139       -4.8723  -18.1631  -45.0398 H         1 UNK         0.0800 
    140 H140       -6.1281  -18.2838  -46.2510 H         1 UNK         0.0800 
    141 H141       -5.2921  -20.9831  -45.3952 H         1 UNK         0.0800 
    142 H142       -3.7842  -20.4245  -44.7064 H         1 UNK         0.0800 
    143 H143       -4.0602  -22.4062  -46.9994 H         1 UNK         0.0600 
    144 H144       -1.7615  -20.9702  -46.3310 H         1 UNK         0.3000 
    145 H145        0.7198  -23.3794  -47.2299 H         1 UNK         0.0600 
    146 H146       -0.3154  -20.9396  -48.7725 H         1 UNK         0.0600 
    147 H147        1.3224  -21.5874  -48.8596 H         1 UNK         0.0600 
    148 H148       -0.0385  -22.5455  -49.4199 H         1 UNK         0.0600 
    149 H149        0.4881  -20.5526  -46.4215 H         1 UNK         0.3000 
    150 H150        1.2797  -21.2008  -43.0254 H         1 UNK         0.0600 
    151 H151        3.5679  -21.2890  -44.0136 H         1 UNK         0.0600 
    152 H152        3.2058  -19.6764  -43.4169 H         1 UNK         0.0600 
    153 H153        3.1469  -20.0105  -45.1471 H         1 UNK         0.0600 
    154 H154        1.0711  -18.7986  -44.5951 H         1 UNK         0.3000 
    155 H155       -2.4400  -18.4922  -44.5699 H         1 UNK         0.0600 
    156 H156       -1.9591  -17.7820  -42.2275 H         1 UNK         0.0600 
    157 H157       -2.0629  -16.4005  -43.3068 H         1 UNK         0.0600 
    158 H158       -0.4887  -16.9765  -42.7631 H         1 UNK         0.0600 
    159 H159       -0.5676  -16.5530  -45.2598 H         1 UNK         0.3000 
    160 H160        0.7197  -17.7598  -48.2820 H         1 UNK         0.0600 
    161 H161       -0.4574  -15.9397  -49.4324 H         1 UNK         0.0600 
    162 H162       -1.5514  -15.7287  -48.0682 H         1 UNK         0.0600 
    163 H163       -1.6267  -17.1934  -49.0390 H         1 UNK         0.0600 
    164 H164        0.6251  -15.1267  -47.2155 H         1 UNK         0.3000 
    165 H165        2.4084  -14.9516  -44.7913 H         1 UNK         0.0600 
    166 H166        4.7194  -15.5324  -46.7062 H         1 UNK         0.0600 
    167 H167        4.8032  -14.3937  -45.3654 H         1 UNK         0.0600 
    168 H168        4.5420  -16.1019  -45.0541 H         1 UNK         0.0600 
    169 H169        1.9175  -13.1496  -45.9587 H         1 UNK         0.3000 
    170 H170        2.6999  -11.9495  -49.2348 H         1 UNK         0.0600 
    171 H171        0.2598  -12.0718  -47.3676 H         1 UNK         0.0600 
    172 H172        0.4409  -11.0554  -48.7923 H         1 UNK         0.0600 
    173 H173        0.3279  -12.7980  -48.9696 H         1 UNK         0.0600 
    174 H174        3.1310  -11.4476  -46.4294 H         1 UNK         0.3000 
    175 H175        4.3746   -8.2858  -47.0008 H         1 UNK         0.0600 
    176 H176        1.8317   -8.7032  -45.3364 H         1 UNK         0.0600 
    177 H177        3.0108   -7.4104  -45.1169 H         1 UNK         0.0600 
    178 H178        2.0455   -7.4787  -46.5827 H         1 UNK         0.0600 
    179 H179        3.8963   -9.7872  -44.5766 H         1 UNK         0.3000 
    180 H180        6.9169  -11.6758  -44.7404 H         1 UNK         0.0600 
    181 H181        5.9632   -9.3680  -42.9684 H         1 UNK         0.0600 
    182 H182        7.4753   -9.4320  -43.8600 H         1 UNK         0.0600 
    183 H183        7.1887  -10.5625  -42.5467 H         1 UNK         0.0600 
    184 H184        5.4554  -12.9317  -43.7355 H         1 UNK         0.3000 
    185 H185        3.4674  -13.7621  -43.0668 H         1 UNK         0.0600 
    186 H186        3.2010  -13.9902  -40.5848 H         1 UNK         0.0600 
    187 H187        4.7953  -13.3649  -40.9772 H         1 UNK         0.0600 
    188 H188        3.5506  -12.2752  -40.3752 H         1 UNK         0.0600 
    189 H189        1.6550  -11.5694  -42.4845 H         1 UNK         0.3000 
    190 H190       -1.9947  -22.8096  -44.1807 H         1 UNK         0.3000 
    191 H191       -3.6128  -24.6005  -42.6733 H         1 UNK         0.0600 
    192 H192       -0.5627  -24.3344  -42.8586 H         1 UNK         0.0600 
    193 H193       -1.6113  -23.4253  -41.7709 H         1 UNK         0.0600 
    194 H194       -1.4406  -25.1635  -41.5784 H         1 UNK         0.0600 
    195 H195       -1.9144  -25.0924  -45.6763 H         1 UNK         0.3000 
    196 H196       -2.2127  -28.0611  -45.5347 H         1 UNK         0.0600 
    197 H197        0.1513  -27.2577  -45.8039 H         1 UNK         0.0600 
    198 H198       -0.3192  -26.3548  -47.2419 H         1 UNK         0.0600 
    199 H199       -0.4124  -28.1126  -47.2297 H         1 UNK         0.0600 
    200 H200       -4.3594  -26.1516  -46.0148 H         1 UNK         0.3000 
    201 H201       -6.1256  -25.7874  -47.2972 H         1 UNK         0.0600 
    202 H202       -6.8887  -27.5598  -48.8390 H         1 UNK         0.0600 
    203 H203       -6.2342  -28.2850  -47.3800 H         1 UNK         0.0600 
    204 H204       -5.2886  -28.2857  -48.8676 H         1 UNK         0.0600 
    205 H205       -3.9773  -24.2426  -47.8518 H         1 UNK         0.3000 
    206 H206       -3.1575  -22.6680  -49.2100 H         1 UNK         0.0600 
    207 H207       -5.4943  -22.1324  -49.8126 H         1 UNK         0.0600 
    208 H208       -5.4487  -23.3015  -51.1306 H         1 UNK         0.0600 
    209 H209       -4.4042  -21.8899  -51.1647 H         1 UNK         0.0600 
    210 H210       -1.8922  -24.9975  -49.1013 H         1 UNK         0.3000 
    211 H211       -0.4614  -26.4557  -49.9732 H         1 UNK         0.0600 
    212 H212        0.7653  -24.3996  -50.6780 H         1 UNK         0.0600 
    213 H213        1.0170  -25.7046  -51.8224 H         1 UNK         0.0600 
    214 H214       -0.0894  -24.4000  -52.2209 H         1 UNK         0.0600 
    215 H215       -2.9014  -27.3067  -50.3030 H         1 UNK         0.3000 
    216 H216       -4.4483  -28.4652  -51.4031 H         1 UNK         0.0600 
    217 H217       -3.6927  -30.2209  -52.9748 H         1 UNK         0.0600 
    218 H218       -2.1412  -29.4202  -53.1837 H         1 UNK         0.0600 
    219 H219       -2.5801  -30.1072  -51.6205 H         1 UNK         0.0600 
    220 H220       -4.6357  -25.9476  -51.9856 H         1 UNK         0.3000 
    221 H221       -5.4978  -24.3742  -53.2096 H         1 UNK         0.0600 
    222 H222       -6.3287  -26.5021  -55.2435 H         1 UNK         0.0600 
    223 H223       -7.2190  -26.0958  -53.7758 H         1 UNK         0.0600 
    224 H224       -7.0323  -24.9041  -55.0503 H         1 UNK         0.0600 
    225 H225       -2.6399  -25.5768  -54.0990 H         1 UNK         0.3000 
    226 H226       -2.3141  -24.4278  -56.7443 H         1 UNK         0.0600 
    227 H227       -0.9611  -26.3739  -55.8837 H         1 UNK         0.0600 
    228 H228        0.0357  -25.0441  -56.4569 H         1 UNK         0.0600 
    229 H229       -0.1782  -25.2909  -54.7313 H         1 UNK         0.0600 
    230 H230       -2.1234  -23.1756  -53.4723 H         1 UNK         0.3000 
    231 H231       -0.9206  -20.5985  -54.4138 H         1 UNK         0.0600 
    232 H232        0.0758  -20.4276  -52.1622 H         1 UNK         0.0600 
    233 H233        0.6061  -21.9223  -52.9162 H         1 UNK         0.0600 
    234 H234       -0.6512  -21.9556  -51.6818 H         1 UNK         0.0600 
    235 H235       -3.6964  -21.2843  -54.6020 H         1 UNK         0.3000 
    236 H236       -5.1957  -20.1487  -52.4022 H         1 UNK         0.0600 
    237 H237       -6.0959  -21.9716  -53.8017 H         1 UNK         0.0600 
    238 H238       -7.1237  -20.5547  -53.9208 H         1 UNK         0.0600 
    239 H239       -6.0217  -20.9505  -55.2365 H         1 UNK         0.0600 
    240 H240       -3.5241  -18.2492  -52.6750 H         1 UNK         0.3000 
    241 H241       -3.2324  -16.0792  -52.7724 H         1 UNK         0.0600 
    242 H242       -3.1853  -17.6116  -55.5309 H         1 UNK         0.3800 
    243 H243       -3.0126  -16.2689  -56.6314 H         1 UNK         0.3800 
    244 H244       -5.1411  -14.4961  -52.7702 H         1 UNK         0.0800 
    245 H245       -6.2060  -15.7380  -53.3671 H         1 UNK         0.0800 
    246 H246       -3.5648  -15.0537  -50.5404 H         1 UNK         0.0800 
    247 H247       -4.8986  -13.9620  -50.2354 H         1 UNK         0.0800 
@<TRIPOS>BOND
     1    1    2 1    
     2    1  127 1    
     3    1  128 1    
     4    1  129 1    
     5    2    3 2    
     6    2    4 am   BACKBONE|DICT|INTERRES
     7    4    5 1    
     8    4  130 1    
     9    5    6 1    
    10    5   65 1    
    11    5  131 1    
    12    6    7 1    
    13    6  132 1    
    14    6  133 1    
    15    7    8 1    
    16    8    9 1    
    17    8  134 1    
    18    8  135 1    
    19    9   10 ar   
    20    9   14 ar   
    21   10   11 ar   
    22   10  136 1    
    23   11   12 ar   
    24   11  126 1    
    25   12   13 ar   
    26   12  137 1    
    27   13   14 ar   
    28   13   15 1    
    29   14  138 1    
    30   15   16 1    
    31   15  139 1    
    32   15  140 1    
    33   16   17 1    
    34   17   18 1    
    35   17  141 1    
    36   17  142 1    
    37   18   19 1    
    38   18   67 1    
    39   18  143 1    
    40   19   20 am   BACKBONE|DICT|INTERRES
    41   19  144 1    
    42   20   21 2    
    43   20   22 1    
    44   22   23 1    
    45   22   24 1    
    46   22  145 1    
    47   23  146 1    
    48   23  147 1    
    49   23  148 1    
    50   24   25 am   BACKBONE|DICT|INTERRES
    51   24  149 1    
    52   25   26 2    
    53   25   27 1    
    54   27   28 1    
    55   27   29 1    
    56   27  150 1    
    57   28  151 1    
    58   28  152 1    
    59   28  153 1    
    60   29   30 am   BACKBONE|DICT|INTERRES
    61   29  154 1    
    62   30   31 2    
    63   30   32 1    
    64   32   33 1    
    65   32   34 1    
    66   32  155 1    
    67   33  156 1    
    68   33  157 1    
    69   33  158 1    
    70   34   35 am   BACKBONE|DICT|INTERRES
    71   34  159 1    
    72   35   36 2    
    73   35   37 1    
    74   37   38 1    
    75   37   39 1    
    76   37  160 1    
    77   38  161 1    
    78   38  162 1    
    79   38  163 1    
    80   39   40 am   BACKBONE|DICT|INTERRES
    81   39  164 1    
    82   40   41 2    
    83   40   42 1    
    84   42   43 1    
    85   42   44 1    
    86   42  165 1    
    87   43  166 1    
    88   43  167 1    
    89   43  168 1    
    90   44   45 am   BACKBONE|DICT|INTERRES
    91   44  169 1    
    92   45   46 2    
    93   45   47 1    
    94   47   48 1    
    95   47   49 1    
    96   47  170 1    
    97   48  171 1    
    98   48  172 1    
    99   48  173 1    
   100   49   50 am   BACKBONE|DICT|INTERRES
   101   49  174 1    
   102   50   51 2    
   103   50   52 1    
   104   52   53 1    
   105   52   54 1    
   106   52  175 1    
   107   53  176 1    
   108   53  177 1    
   109   53  178 1    
   110   54   55 am   BACKBONE|DICT|INTERRES
   111   54  179 1    
   112   55   56 2    
   113   55   57 1    
   114   57   58 1    
   115   57   59 1    
   116   57  180 1    
   117   58  181 1    
   118   58  182 1    
   119   58  183 1    
   120   59   60 am   BACKBONE|DICT|INTERRES
   121   59  184 1    
   122   60   61 2    
   123   60   62 1    
   124   62   63 1    
   125   62   64 1    
   126   62  185 1    
   127   63  186 1    
   128   63  187 1    
   129   63  188 1    
   130   64   65 am   BACKBONE|DICT|INTERRES
   131   64  189 1    
   132   65   66 2    
   133   67   68 2    
   134   67   69 am   BACKBONE|DICT|INTERRES
   135   69   70 1    
   136   69  190 1    
   137   70   71 1    
   138   70   72 1    
   139   70  191 1    
   140   71  192 1    
   141   71  193 1    
   142   71  194 1    
   143   72   73 2    
   144   72   74 am   BACKBONE|DICT|INTERRES
   145   74   75 1    
   146   74  195 1    
   147   75   76 1    
   148   75   77 1    
   149   75  196 1    
   150   76  197 1    
   151   76  198 1    
   152   76  199 1    
   153   77   78 2    
   154   77   79 am   BACKBONE|DICT|INTERRES
   155   79   80 1    
   156   79  200 1    
   157   80   81 1    
   158   80   82 1    
   159   80  201 1    
   160   81  202 1    
   161   81  203 1    
   162   81  204 1    
   163   82   83 2    
   164   82   84 am   BACKBONE|DICT|INTERRES
   165   84   85 1    
   166   84  205 1    
   167   85   86 1    
   168   85   87 1    
   169   85  206 1    
   170   86  207 1    
   171   86  208 1    
   172   86  209 1    
   173   87   88 2    
   174   87   89 am   BACKBONE|DICT|INTERRES
   175   89   90 1    
   176   89  210 1    
   177   90   91 1    
   178   90   92 1    
   179   90  211 1    
   180   91  212 1    
   181   91  213 1    
   182   91  214 1    
   183   92   93 2    
   184   92   94 am   BACKBONE|DICT|INTERRES
   185   94   95 1    
   186   94  215 1    
   187   95   96 1    
   188   95   97 1    
   189   95  216 1    
   190   96  217 1    
   191   96  218 1    
   192   96  219 1    
   193   97   98 2    
   194   97   99 am   BACKBONE|DICT|INTERRES
   195   99  100 1    
   196   99  220 1    
   197  100  101 1    
   198  100  102 1    
   199  100  221 1    
   200  101  222 1    
   201  101  223 1    
   202  101  224 1    
   203  102  103 2    
   204  102  104 am   BACKBONE|DICT|INTERRES
   205  104  105 1    
   206  104  225 1    
   207  105  106 1    
   208  105  107 1    
   209  105  226 1    
   210  106  227 1    
   211  106  228 1    
   212  106  229 1    
   213  107  108 2    
   214  107  109 am   BACKBONE|DICT|INTERRES
   215  109  110 1    
   216  109  230 1    
   217  110  111 1    
   218  110  112 1    
   219  110  231 1    
   220  111  232 1    
   221  111  233 1    
   222  111  234 1    
   223  112  113 2    
   224  112  114 am   BACKBONE|DICT|INTERRES
   225  114  115 1    
   226  114  235 1    
   227  115  116 1    
   228  115  117 1    
   229  115  236 1    
   230  116  237 1    
   231  116  238 1    
   232  116  239 1    
   233  117  118 2    
   234  117  119 am   BACKBONE|DICT|INTERRES
   235  119  120 1    
   236  119  240 1    
   237  120  121 1    
   238  120  124 1    
   239  120  241 1    
   240  121  122 am   BACKBONE|DICT|INTERRES
   241  121  123 2    
   242  122  242 1    
   243  122  243 1    
   244  124  125 1    
   245  124  244 1    
   246  124  245 1    
   247  125  126 1    
   248  126  246 1    
   249  126  247 1    
@<TRIPOS>SUBSTRUCTURE
     1 UNK         1 GROUP             0       ****    0 ROOT    
