@<TRIPOS>MOLECULE
3R540
247   249    1
SMALL
USER_CHARGES


@<TRIPOS>ATOM
      1 CA          2.7801  -15.6833  -48.0906 C.3       0 UNK        -0.1800 
      2 C           1.6397  -14.8089  -47.5899 C.2       0 UNK         0.5000 
      3 O           1.6046  -13.6228  -47.9115 O.2       0 UNK        -0.5000 
      4 N           0.7420  -15.3931  -46.7825 N.am      1 UNK        -0.5000 
      5 CA         -0.4547  -14.8129  -46.1470 C.3       1 UNK         0.1400 
      6 C6         -1.7058  -14.7358  -47.0690 C.3       23 UNK        -0.0398 
      7 S7         -1.5846  -13.6096  -48.5034 S.3       23 UNK        -0.2404 
      8 C8         -2.7240  -14.3884  -49.7033 C.3       23 UNK        -0.0205 
      9 C9         -2.3763  -15.8180  -50.1245 C.ar      23 UNK        -0.0193 
     10 C10        -3.4066  -16.6626  -50.5480 C.ar      23 UNK        -0.1150 
     11 C11        -3.1435  -17.9808  -50.9296 C.ar      23 UNK        -0.0193 
     12 C12        -1.8310  -18.4596  -50.8903 C.ar      23 UNK        -0.1150 
     13 C13        -0.7892  -17.6303  -50.4665 C.ar      23 UNK        -0.0193 
     14 C14        -1.0652  -16.3093  -50.1029 C.ar      23 UNK        -0.1150 
     15 C15         0.6365  -18.1516  -50.3885 C.3       23 UNK        -0.0205 
     16 S16         0.9980  -18.8762  -48.7537 S.3       23 UNK        -0.2404 
     17 C17         0.8342  -20.6685  -49.0684 C.3       23 UNK        -0.0398 
     18 CA         -0.1715  -21.4165  -48.1614 C.3       11 UNK         0.1400 
     19 N           0.1633  -21.3682  -46.7341 N.am      11 UNK        -0.5000 
     20 C          -0.3098  -22.2549  -45.8436 C.2       10 UNK         0.5000 
     21 O          -1.0390  -23.1982  -46.1500 O.2       10 UNK        -0.5000 
     22 CA          0.0375  -22.0287  -44.3601 C.3       10 UNK         0.1400 
     23 CB          1.4103  -22.6313  -44.0299 C.3       10 UNK        -0.1800 
     24 N           0.0112  -20.6203  -43.9614 N.am      10 UNK        -0.5000 
     25 C          -1.0568  -19.8144  -44.0681 C.2       9 UNK         0.5000 
     26 O          -2.1477  -20.2014  -44.4873 O.2       9 UNK        -0.5000 
     27 CA         -0.8950  -18.3322  -43.6703 C.3       9 UNK         0.1400 
     28 CB         -1.7901  -17.9894  -42.4709 C.3       9 UNK        -0.1800 
     29 N           0.4874  -17.9496  -43.3698 N.am      9 UNK        -0.5000 
     30 C           1.4519  -17.8049  -44.2913 C.2       8 UNK         0.5000 
     31 O           1.2399  -17.8995  -45.4992 O.2       8 UNK        -0.5000 
     32 CA          2.8894  -17.5250  -43.8055 C.3       8 UNK         0.1400 
     33 CB          3.2700  -16.0608  -44.0648 C.3       8 UNK        -0.1800 
     34 N           3.1064  -17.8154  -42.3892 N.am      8 UNK        -0.5000 
     35 C           3.0368  -19.0245  -41.8152 C.2       7 UNK         0.5000 
     36 O           2.8240  -20.0636  -42.4396 O.2       7 UNK        -0.5000 
     37 CA          3.1695  -19.0631  -40.2794 C.3       7 UNK         0.1400 
     38 CB          4.6103  -19.4043  -39.8726 C.3       7 UNK        -0.1800 
     39 N           2.7772  -17.8052  -39.6347 N.am      7 UNK        -0.5000 
     40 C           1.5549  -17.2588  -39.6707 C.2       6 UNK         0.5000 
     41 O           0.5972  -17.7856  -40.2354 O.2       6 UNK        -0.5000 
     42 CA          1.3846  -15.8664  -39.0382 C.3       6 UNK         0.1400 
     43 CB          1.2550  -15.9488  -37.5061 C.3       6 UNK        -0.1800 
     44 N           2.4108  -14.9006  -39.4500 N.am      6 UNK        -0.5000 
     45 C           3.7176  -14.8605  -39.1479 C.2       5 UNK         0.5000 
     46 O           4.2964  -15.7064  -38.4654 O.2       5 UNK        -0.5000 
     47 CA          4.5129  -13.6754  -39.7211 C.3       5 UNK         0.1400 
     48 CB          5.0242  -14.0053  -41.1318 C.3       5 UNK        -0.1800 
     49 N           3.6987  -12.4601  -39.7691 N.am      5 UNK        -0.5000 
     50 C           3.5050  -11.6415  -38.7246 C.2       4 UNK         0.5000 
     51 O           4.0701  -11.7729  -37.6382 O.2       4 UNK        -0.5000 
     52 CA          2.5031  -10.4863  -38.9198 C.3       4 UNK         0.1400 
     53 CB          3.2177   -9.2407  -39.4657 C.3       4 UNK        -0.1800 
     54 N           1.3991  -10.8357  -39.8150 N.am      4 UNK        -0.5000 
     55 C           0.4244  -11.7097  -39.5240 C.2       3 UNK         0.5000 
     56 O           0.3071  -12.2658  -38.4323 O.2       3 UNK        -0.5000 
     57 CA         -0.5708  -12.0432  -40.6540 C.3       3 UNK         0.1400 
     58 CB         -1.8373  -11.1836  -40.5270 C.3       3 UNK        -0.1800 
     59 N          -0.0153  -11.8824  -42.0024 N.am      3 UNK        -0.5000 
     60 C           1.0084  -12.5889  -42.4968 C.2       2 UNK         0.5000 
     61 O           1.6139  -13.4509  -41.8557 O.2       2 UNK        -0.5000 
     62 CA          1.4368  -12.2693  -43.9383 C.3       2 UNK         0.1400 
     63 CB          2.9588  -12.0753  -44.0389 C.3       2 UNK        -0.1800 
     64 N           1.0322  -13.3445  -44.8371 N.am      2 UNK        -0.5000 
     65 C          -0.2140  -13.5493  -45.2839 C.2       1 UNK         0.5000 
     66 O          -1.1571  -12.8083  -45.0006 O.2       1 UNK        -0.5000 
     67 C          -1.6322  -21.0083  -48.4323 C.2       11 UNK         0.5000 
     68 O          -2.2390  -21.5526  -49.3537 O.2       11 UNK        -0.5000 
     69 N          -2.1899  -20.1053  -47.6124 N.am      12 UNK        -0.5000 
     70 CA         -3.5966  -19.7101  -47.6751 C.3       12 UNK         0.1400 
     71 CB         -3.8367  -18.4309  -46.8612 C.3       12 UNK        -0.1800 
     72 C          -4.5273  -20.8523  -47.2412 C.2       12 UNK         0.5000 
     73 O          -5.5097  -21.1269  -47.9304 O.2       12 UNK        -0.5000 
     74 N          -4.1583  -21.5423  -46.1530 N.am      13 UNK        -0.5000 
     75 CA         -4.8340  -22.7416  -45.6528 C.3       13 UNK         0.1400 
     76 CB         -4.2164  -23.1443  -44.3053 C.3       13 UNK        -0.1800 
     77 C          -4.7921  -23.9184  -46.6491 C.2       13 UNK         0.5000 
     78 O          -5.7758  -24.6488  -46.7699 O.2       13 UNK        -0.5000 
     79 N          -3.6696  -24.0579  -47.3674 N.am      14 UNK        -0.5000 
     80 CA         -3.4593  -25.0582  -48.4164 C.3       14 UNK         0.1400 
     81 CB         -1.9475  -25.2884  -48.5761 C.3       14 UNK        -0.1800 
     82 C          -4.0863  -24.6832  -49.7764 C.2       14 UNK         0.5000 
     83 O          -4.0084  -25.4902  -50.7030 O.2       14 UNK        -0.5000 
     84 N          -4.6471  -23.4696  -49.8983 N.am      15 UNK        -0.5000 
     85 CA         -5.2124  -22.8691  -51.1137 C.3       15 UNK         0.1400 
     86 CB         -6.4963  -23.6043  -51.5483 C.3       15 UNK        -0.1800 
     87 C          -4.1788  -22.7430  -52.2549 C.2       15 UNK         0.5000 
     88 O          -4.4865  -23.0337  -53.4136 O.2       15 UNK        -0.5000 
     89 N          -2.9541  -22.3376  -51.8876 N.am      16 UNK        -0.5000 
     90 CA         -1.7487  -22.2578  -52.7185 C.3       16 UNK         0.1400 
     91 CB         -1.9036  -21.1962  -53.8220 C.3       16 UNK        -0.1800 
     92 C          -1.3306  -23.6376  -53.2614 C.2       16 UNK         0.5000 
     93 O          -0.9456  -23.7595  -54.4258 O.2       16 UNK        -0.5000 
     94 N          -1.4848  -24.6644  -52.4100 N.am      17 UNK        -0.5000 
     95 CA         -1.2422  -26.0923  -52.6586 C.3       17 UNK         0.1400 
     96 CB          0.2677  -26.3494  -52.8413 C.3       17 UNK        -0.1800 
     97 C          -2.0797  -26.6760  -53.8188 C.2       17 UNK         0.5000 
     98 O          -1.7035  -27.7028  -54.3856 O.2       17 UNK        -0.5000 
     99 N          -3.1727  -25.9835  -54.1776 N.am      18 UNK        -0.5000 
    100 CA        -4.0070  -26.1761  -55.3670 C.3       18 UNK         0.1400 
    101 CB        -4.7371  -27.5338  -55.3188 C.3       18 UNK        -0.1800 
    102 C         -3.2570  -25.9497  -56.7023 C.2       18 UNK         0.5000 
    103 O         -3.7727  -26.3349  -57.7524 O.2       18 UNK        -0.5000 
    104 N         -2.0702  -25.3228  -56.6565 N.am      19 UNK        -0.5000 
    105 CA        -1.2502  -25.0120  -57.8259 C.3       19 UNK         0.1400 
    106 CB         0.2276  -24.9000  -57.4161 C.3       19 UNK        -0.1800 
    107 C         -1.7531  -23.7277  -58.4987 C.2       19 UNK         0.5000 
    108 O         -2.1107  -23.7585  -59.6769 O.2       19 UNK        -0.5000 
    109 N         -1.8203  -22.6351  -57.7228 N.am      20 UNK        -0.5000 
    110 CA        -2.4761  -21.3912  -58.1402 C.3       20 UNK         0.1400 
    111 CB        -1.8487  -20.1924  -57.4133 C.3       20 UNK        -0.1800 
    112 C         -3.9991  -21.4479  -57.9075 C.2       20 UNK         0.5000 
    113 O         -4.7338  -20.7449  -58.6010 O.2       20 UNK        -0.5000 
    114 N         -4.4306  -22.3051  -56.9660 N.am      21 UNK        -0.5000 
    115 CA        -5.8130  -22.6436  -56.6183 C.3       21 UNK         0.1400 
    116 CB        -6.4766  -23.4302  -57.7674 C.3       21 UNK        -0.1800 
    117 C         -6.6331  -21.4176  -56.1763 C.2       21 UNK         0.5000 
    118 O         -7.4959  -20.9454  -56.9203 O.2       21 UNK        -0.5000 
    119 N         -6.3320  -20.9196  -54.9703 N.am      22 UNK        -0.5000 
    120 CA        -7.0701  -19.8272  -54.3124 C.3       22 UNK         0.1400 
    121 C         -8.5788  -20.1526  -54.1069 C.2       22 UNK         0.5000 
    122 N         -9.4642  -19.1885  -54.3190 N.am      22 UNK        -0.7600 
    123 O         -8.9459  -21.2563  -53.7097 O.2       22 UNK        -0.5000 
    124 C124       -6.4460  -19.4449  -52.9493 C.3       23 UNK        -0.0398 
    125 S125       -4.7496  -18.7876  -53.0608 S.3       23 UNK        -0.2404 
    126 C126       -4.2935  -18.9013  -51.3051 C.3       23 UNK        -0.0205 
    127 H127        2.7623  -16.6735  -47.6350 H         1 UNK         0.0600 
    128 H128        3.7390  -15.2219  -47.8549 H         1 UNK         0.0600 
    129 H129        2.7145  -15.8026  -49.1716 H         1 UNK         0.0600 
    130 H130        0.8890  -16.3740  -46.5530 H         1 UNK         0.3000 
    131 H131       -0.7123  -15.5589  -45.3948 H         1 UNK         0.0600 
    132 H132       -2.5897  -14.4575  -46.4929 H         1 UNK         0.0800 
    133 H133       -1.9119  -15.7391  -47.4367 H         1 UNK         0.0800 
    134 H134       -3.7277  -14.3639  -49.2760 H         1 UNK         0.0800 
    135 H135       -2.7560  -13.7674  -50.5992 H         1 UNK         0.0800 
    136 H136       -4.4241  -16.2977  -50.5680 H         1 UNK         0.1150 
    137 H137       -1.6243  -19.4842  -51.1628 H         1 UNK         0.1150 
    138 H138       -0.2536  -15.6719  -49.7845 H         1 UNK         0.1150 
    139 H139        0.8257  -18.8681  -51.1885 H         1 UNK         0.0800 
    140 H140        1.3330  -17.3305  -50.5619 H         1 UNK         0.0800 
    141 H141        1.8234  -21.1098  -48.9402 H         1 UNK         0.0800 
    142 H142        0.5794  -20.8417  -50.1147 H         1 UNK         0.0800 
    143 H143       -0.1017  -22.4647  -48.4595 H         1 UNK         0.0600 
    144 H144        0.7348  -20.5952  -46.4214 H         1 UNK         0.3000 
    145 H145       -0.7146  -22.5513  -43.7656 H         1 UNK         0.0600 
    146 H146        1.6155  -22.5794  -42.9605 H         1 UNK         0.0600 
    147 H147        1.4571  -23.6823  -44.3180 H         1 UNK         0.0600 
    148 H148        2.2147  -22.1099  -44.5503 H         1 UNK         0.0600 
    149 H149        0.8712  -20.2431  -43.5837 H         1 UNK         0.3000 
    150 H150       -1.2371  -17.7397  -44.5206 H         1 UNK         0.0600 
    151 H151       -2.8415  -18.1576  -42.7079 H         1 UNK         0.0600 
    152 H152       -1.6851  -16.9431  -42.1832 H         1 UNK         0.0600 
    153 H153       -1.5498  -18.6037  -41.6026 H         1 UNK         0.0600 
    154 H154        0.7231  -17.8661  -42.3875 H         1 UNK         0.3000 
    155 H155        3.5577  -18.1638  -44.3864 H         1 UNK         0.0600 
    156 H156        4.3038  -15.8652  -43.7798 H         1 UNK         0.0600 
    157 H157        3.1782  -15.8115  -45.1212 H         1 UNK         0.0600 
    158 H158        2.6313  -15.3797  -43.5025 H         1 UNK         0.0600 
    159 H159        3.2735  -17.0222  -41.7887 H         1 UNK         0.3000 
    160 H160        2.5089  -19.8506  -39.9116 H         1 UNK         0.0600 
    161 H161        5.3117  -18.6328  -40.1930 H         1 UNK         0.0600 
    162 H162        4.9303  -20.3469  -40.3188 H         1 UNK         0.0600 
    163 H163        4.6998  -19.5104  -38.7913 H         1 UNK         0.0600 
    164 H164        3.5051  -17.2809  -39.1559 H         1 UNK         0.3000 
    165 H165        0.4443  -15.4647  -39.4196 H         1 UNK         0.0600 
    166 H166        2.1468  -16.3670  -37.0390 H         1 UNK         0.0600 
    167 H167        1.0807  -14.9628  -37.0749 H         1 UNK         0.0600 
    168 H168        0.4133  -16.5816  -37.2225 H         1 UNK         0.0600 
    169 H169        2.0805  -14.2051  -40.1121 H         1 UNK         0.3000 
    170 H170        5.3793  -13.5058  -39.0781 H         1 UNK         0.0600 
    171 H171        5.6711  -14.8834  -41.1166 H         1 UNK         0.0600 
    172 H172        4.2053  -14.2151  -41.8188 H         1 UNK         0.0600 
    173 H173        5.6049  -13.1802  -41.5445 H         1 UNK         0.0600 
    174 H174        3.1645  -12.3079  -40.6129 H         1 UNK         0.3000 
    175 H175        2.0851  -10.2396  -37.9414 H         1 UNK         0.0600 
    176 H176        3.6421   -9.4196  -40.4545 H         1 UNK         0.0600 
    177 H177        2.5340   -8.3949  -39.5410 H         1 UNK         0.0600 
    178 H178        4.0339   -8.9395  -38.8077 H         1 UNK         0.0600 
    179 H179        1.4030  -10.4118  -40.7308 H         1 UNK         0.3000 
    180 H180       -0.8558  -13.0908  -40.5360 H         1 UNK         0.0600 
    181 H181       -1.6196  -10.1235  -40.6633 H         1 UNK         0.0600 
    182 H182       -2.2931  -11.3014  -39.5429 H         1 UNK         0.0600 
    183 H183       -2.5853  -11.4714  -41.2661 H         1 UNK         0.0600 
    184 H184       -0.4800  -11.2152  -42.6022 H         1 UNK         0.3000 
    185 H185        0.9590  -11.3402  -44.2565 H         1 UNK         0.0600 
    186 H186        3.3005  -11.2956  -43.3570 H         1 UNK         0.0600 
    187 H187        3.5044  -12.9870  -43.7952 H         1 UNK         0.0600 
    188 H188        3.2488  -11.7755  -45.0461 H         1 UNK         0.0600 
    189 H189        1.7491  -13.9970  -45.1134 H         1 UNK         0.3000 
    190 H190       -1.6411  -19.7325  -46.8525 H         1 UNK         0.3000 
    191 H191       -3.8323  -19.4826  -48.7117 H         1 UNK         0.0600 
    192 H192       -3.6387  -18.5706  -45.7995 H         1 UNK         0.0600 
    193 H193       -3.2047  -17.6205  -47.2198 H         1 UNK         0.0600 
    194 H194       -4.8714  -18.1004  -46.9582 H         1 UNK         0.0600 
    195 H195       -3.3525  -21.2164  -45.6258 H         1 UNK         0.3000 
    196 H196       -5.8823  -22.4864  -45.4854 H         1 UNK         0.0600 
    197 H197       -4.2959  -22.3360  -43.5779 H         1 UNK         0.0600 
    198 H198       -3.1612  -23.3995  -44.4058 H         1 UNK         0.0600 
    199 H199       -4.7261  -24.0124  -43.8857 H         1 UNK         0.0600 
    200 H200       -2.8809  -23.4589  -47.1504 H         1 UNK         0.3000 
    201 H201       -3.9130  -25.9992  -48.0990 H         1 UNK         0.0600 
    202 H202       -1.7429  -26.0909  -49.2854 H         1 UNK         0.0600 
    203 H203       -1.4896  -25.5738  -47.6287 H         1 UNK         0.0600 
    204 H204       -1.4415  -24.3929  -48.9364 H         1 UNK         0.0600 
    205 H205       -4.6480  -22.8707  -49.0822 H         1 UNK         0.3000 
    206 H206       -5.4934  -21.8538  -50.8360 H         1 UNK         0.0600 
    207 H207       -7.2126  -23.6629  -50.7288 H         1 UNK         0.0600 
    208 H208       -6.2885  -24.6200  -51.8864 H         1 UNK         0.0600 
    209 H209       -6.9869  -23.0810  -52.3702 H         1 UNK         0.0600 
    210 H210       -2.8039  -22.1126  -50.9032 H         1 UNK         0.3000 
    211 H211       -0.9412  -21.9337  -52.0609 H         1 UNK         0.0600 
    212 H212       -2.1422  -20.2206  -53.4018 H         1 UNK         0.0600 
    213 H213       -0.9777  -21.0836  -54.3870 H         1 UNK         0.0600 
    214 H214       -2.6930  -21.4591  -54.5251 H         1 UNK         0.0600 
    215 H215       -1.8884  -24.4556  -51.5085 H         1 UNK         0.3000 
    216 H216       -1.5645  -26.6202  -51.7604 H         1 UNK         0.0600 
    217 H217        0.4831  -27.4177  -52.8815 H         1 UNK         0.0600 
    218 H218        0.6441  -25.9051  -53.7634 H         1 UNK         0.0600 
    219 H219        0.8410  -25.9367  -52.0113 H         1 UNK         0.0600 
    220 H220       -3.3957  -25.1608  -53.6316 H         1 UNK         0.3000 
    221 H221       -4.7690  -25.3987  -55.3178 H         1 UNK         0.0600 
    222 H222       -4.0503  -28.3702  -55.4495 H         1 UNK         0.0600 
    223 H223       -5.2553  -27.6690  -54.3694 H         1 UNK         0.0600 
    224 H224       -5.4866  -27.6029  -56.1079 H         1 UNK         0.0600 
    225 H225       -1.7155  -24.9993  -55.7619 H         1 UNK         0.3000 
    226 H226       -1.3326  -25.8288  -58.5463 H         1 UNK         0.0600 
    227 H227        0.5779  -25.8251  -56.9581 H         1 UNK         0.0600 
    228 H228        0.8573  -24.7083  -58.2856 H         1 UNK         0.0600 
    229 H229        0.3990  -24.0921  -56.7045 H         1 UNK         0.0600 
    230 H230       -1.4807  -22.6879  -56.7721 H         1 UNK         0.3000 
    231 H231       -2.3107  -21.2447  -59.2099 H         1 UNK         0.0600 
    232 H232       -2.2143  -19.2554  -57.8351 H         1 UNK         0.0600 
    233 H233       -0.7630  -20.1904  -57.5112 H         1 UNK         0.0600 
    234 H234       -2.0943  -20.1806  -56.3541 H         1 UNK         0.0600 
    235 H235       -3.7249  -22.7986  -56.4412 H         1 UNK         0.3000 
    236 H236       -5.7677  -23.3115  -55.7582 H         1 UNK         0.0600 
    237 H237       -5.9115  -24.3318  -58.0043 H         1 UNK         0.0600 
    238 H238       -7.4854  -23.7413  -57.4936 H         1 UNK         0.0600 
    239 H239       -6.5536  -22.8360  -58.6784 H         1 UNK         0.0600 
    240 H240       -5.6115  -21.3743  -54.4244 H         1 UNK         0.3000 
    241 H241       -7.0011  -18.9593  -54.9711 H         1 UNK         0.0600 
    242 H242      -10.4430  -19.3831  -54.1737 H         1 UNK         0.3800 
    243 H243       -9.1862  -18.2735  -54.6396 H         1 UNK         0.3800 
    244 H244       -6.4553  -20.3068  -52.2821 H         1 UNK         0.0800 
    245 H245       -7.0494  -18.6777  -52.4597 H         1 UNK         0.0800 
    246 H246       -5.1591  -18.6578  -50.6866 H         1 UNK         0.0800 
    247 H247       -4.0337  -19.9319  -51.0696 H         1 UNK         0.0800 
@<TRIPOS>BOND
     1    1    2 1    
     2    1  127 1    
     3    1  128 1    
     4    1  129 1    
     5    2    3 2    
     6    2    4 am   BACKBONE|DICT|INTERRES
     7    4    5 1    
     8    4  130 1    
     9    5    6 1    
    10    5   65 1    
    11    5  131 1    
    12    6    7 1    
    13    6  132 1    
    14    6  133 1    
    15    7    8 1    
    16    8    9 1    
    17    8  134 1    
    18    8  135 1    
    19    9   10 ar   
    20    9   14 ar   
    21   10   11 ar   
    22   10  136 1    
    23   11   12 ar   
    24   11  126 1    
    25   12   13 ar   
    26   12  137 1    
    27   13   14 ar   
    28   13   15 1    
    29   14  138 1    
    30   15   16 1    
    31   15  139 1    
    32   15  140 1    
    33   16   17 1    
    34   17   18 1    
    35   17  141 1    
    36   17  142 1    
    37   18   19 1    
    38   18   67 1    
    39   18  143 1    
    40   19   20 am   BACKBONE|DICT|INTERRES
    41   19  144 1    
    42   20   21 2    
    43   20   22 1    
    44   22   23 1    
    45   22   24 1    
    46   22  145 1    
    47   23  146 1    
    48   23  147 1    
    49   23  148 1    
    50   24   25 am   BACKBONE|DICT|INTERRES
    51   24  149 1    
    52   25   26 2    
    53   25   27 1    
    54   27   28 1    
    55   27   29 1    
    56   27  150 1    
    57   28  151 1    
    58   28  152 1    
    59   28  153 1    
    60   29   30 am   BACKBONE|DICT|INTERRES
    61   29  154 1    
    62   30   31 2    
    63   30   32 1    
    64   32   33 1    
    65   32   34 1    
    66   32  155 1    
    67   33  156 1    
    68   33  157 1    
    69   33  158 1    
    70   34   35 am   BACKBONE|DICT|INTERRES
    71   34  159 1    
    72   35   36 2    
    73   35   37 1    
    74   37   38 1    
    75   37   39 1    
    76   37  160 1    
    77   38  161 1    
    78   38  162 1    
    79   38  163 1    
    80   39   40 am   BACKBONE|DICT|INTERRES
    81   39  164 1    
    82   40   41 2    
    83   40   42 1    
    84   42   43 1    
    85   42   44 1    
    86   42  165 1    
    87   43  166 1    
    88   43  167 1    
    89   43  168 1    
    90   44   45 am   BACKBONE|DICT|INTERRES
    91   44  169 1    
    92   45   46 2    
    93   45   47 1    
    94   47   48 1    
    95   47   49 1    
    96   47  170 1    
    97   48  171 1    
    98   48  172 1    
    99   48  173 1    
   100   49   50 am   BACKBONE|DICT|INTERRES
   101   49  174 1    
   102   50   51 2    
   103   50   52 1    
   104   52   53 1    
   105   52   54 1    
   106   52  175 1    
   107   53  176 1    
   108   53  177 1    
   109   53  178 1    
   110   54   55 am   BACKBONE|DICT|INTERRES
   111   54  179 1    
   112   55   56 2    
   113   55   57 1    
   114   57   58 1    
   115   57   59 1    
   116   57  180 1    
   117   58  181 1    
   118   58  182 1    
   119   58  183 1    
   120   59   60 am   BACKBONE|DICT|INTERRES
   121   59  184 1    
   122   60   61 2    
   123   60   62 1    
   124   62   63 1    
   125   62   64 1    
   126   62  185 1    
   127   63  186 1    
   128   63  187 1    
   129   63  188 1    
   130   64   65 am   BACKBONE|DICT|INTERRES
   131   64  189 1    
   132   65   66 2    
   133   67   68 2    
   134   67   69 am   BACKBONE|DICT|INTERRES
   135   69   70 1    
   136   69  190 1    
   137   70   71 1    
   138   70   72 1    
   139   70  191 1    
   140   71  192 1    
   141   71  193 1    
   142   71  194 1    
   143   72   73 2    
   144   72   74 am   BACKBONE|DICT|INTERRES
   145   74   75 1    
   146   74  195 1    
   147   75   76 1    
   148   75   77 1    
   149   75  196 1    
   150   76  197 1    
   151   76  198 1    
   152   76  199 1    
   153   77   78 2    
   154   77   79 am   BACKBONE|DICT|INTERRES
   155   79   80 1    
   156   79  200 1    
   157   80   81 1    
   158   80   82 1    
   159   80  201 1    
   160   81  202 1    
   161   81  203 1    
   162   81  204 1    
   163   82   83 2    
   164   82   84 am   BACKBONE|DICT|INTERRES
   165   84   85 1    
   166   84  205 1    
   167   85   86 1    
   168   85   87 1    
   169   85  206 1    
   170   86  207 1    
   171   86  208 1    
   172   86  209 1    
   173   87   88 2    
   174   87   89 am   BACKBONE|DICT|INTERRES
   175   89   90 1    
   176   89  210 1    
   177   90   91 1    
   178   90   92 1    
   179   90  211 1    
   180   91  212 1    
   181   91  213 1    
   182   91  214 1    
   183   92   93 2    
   184   92   94 am   BACKBONE|DICT|INTERRES
   185   94   95 1    
   186   94  215 1    
   187   95   96 1    
   188   95   97 1    
   189   95  216 1    
   190   96  217 1    
   191   96  218 1    
   192   96  219 1    
   193   97   98 2    
   194   97   99 am   BACKBONE|DICT|INTERRES
   195   99  100 1    
   196   99  220 1    
   197  100  101 1    
   198  100  102 1    
   199  100  221 1    
   200  101  222 1    
   201  101  223 1    
   202  101  224 1    
   203  102  103 2    
   204  102  104 am   BACKBONE|DICT|INTERRES
   205  104  105 1    
   206  104  225 1    
   207  105  106 1    
   208  105  107 1    
   209  105  226 1    
   210  106  227 1    
   211  106  228 1    
   212  106  229 1    
   213  107  108 2    
   214  107  109 am   BACKBONE|DICT|INTERRES
   215  109  110 1    
   216  109  230 1    
   217  110  111 1    
   218  110  112 1    
   219  110  231 1    
   220  111  232 1    
   221  111  233 1    
   222  111  234 1    
   223  112  113 2    
   224  112  114 am   BACKBONE|DICT|INTERRES
   225  114  115 1    
   226  114  235 1    
   227  115  116 1    
   228  115  117 1    
   229  115  236 1    
   230  116  237 1    
   231  116  238 1    
   232  116  239 1    
   233  117  118 2    
   234  117  119 am   BACKBONE|DICT|INTERRES
   235  119  120 1    
   236  119  240 1    
   237  120  121 1    
   238  120  124 1    
   239  120  241 1    
   240  121  122 am   BACKBONE|DICT|INTERRES
   241  121  123 2    
   242  122  242 1    
   243  122  243 1    
   244  124  125 1    
   245  124  244 1    
   246  124  245 1    
   247  125  126 1    
   248  126  246 1    
   249  126  247 1    
@<TRIPOS>SUBSTRUCTURE
     1 UNK         1 GROUP             0       ****    0 ROOT    
