@<TRIPOS>MOLECULE
3R540
247   249    1
SMALL
USER_CHARGES


@<TRIPOS>ATOM
      1 CA          5.0240  -14.2160  -51.0257 C.3       0 UNK        -0.1800 
      2 C           4.5203  -14.2148  -49.5898 C.2       0 UNK         0.5000 
      3 O           4.6317  -15.2275  -48.9006 O.2       0 UNK        -0.5000 
      4 N           3.9741  -13.0794  -49.1349 N.am      1 UNK        -0.5000 
      5 CA          3.3219  -12.9260  -47.8266 C.3       1 UNK         0.1400 
      6 C6          2.3287  -11.7342  -47.7849 C.3       23 UNK        -0.0398 
      7 S7          1.2075  -11.5874  -49.2217 S.3       23 UNK        -0.2404 
      8 C8          0.0719  -12.9970  -49.0101 C.3       23 UNK        -0.0205 
      9 C9          0.5977  -14.2548  -49.6872 C.ar      23 UNK        -0.0193 
     10 C10         0.7429  -14.2941  -51.0751 C.ar      23 UNK        -0.1150 
     11 C11         1.2597  -15.4283  -51.7050 C.ar      23 UNK        -0.0193 
     12 C12         1.6054  -16.5453  -50.9385 C.ar      23 UNK        -0.1150 
     13 C13         1.4462  -16.5304  -49.5450 C.ar      23 UNK        -0.0193 
     14 C14         0.9474  -15.3770  -48.9343 C.ar      23 UNK        -0.1150 
     15 C15         1.8513  -17.6939  -48.6397 C.3       23 UNK        -0.0205 
     16 S16         2.1623  -19.2881  -49.4679 S.3       23 UNK        -0.2404 
     17 C17         0.4771  -19.9157  -49.7637 C.3       23 UNK        -0.0398 
     18 CA          0.0737  -20.9506  -48.6865 C.3       11 UNK         0.1400 
     19 N          -0.3808  -20.3201  -47.4444 N.am      11 UNK        -0.5000 
     20 C          -0.5411  -20.9667  -46.2813 C.2       10 UNK         0.5000 
     21 O          -0.2857  -22.1599  -46.1172 O.2       10 UNK        -0.5000 
     22 CA         -1.1453  -20.1481  -45.1274 C.3       10 UNK         0.1400 
     23 CB         -0.0761  -19.2527  -44.4800 C.3       10 UNK        -0.1800 
     24 N          -2.2792  -19.3378  -45.5818 N.am      10 UNK        -0.5000 
     25 C          -3.4558  -19.8619  -45.9645 C.2       9 UNK         0.5000 
     26 O          -3.7059  -21.0644  -45.9168 O.2       9 UNK        -0.5000 
     27 CA         -4.5214  -18.9161  -46.5496 C.3       9 UNK         0.1400 
     28 CB         -5.5651  -18.5345  -45.4920 C.3       9 UNK        -0.1800 
     29 N          -3.9579  -17.7124  -47.1599 N.am      9 UNK        -0.5000 
     30 C          -3.1897  -17.7219  -48.2596 C.2       8 UNK         0.5000 
     31 O          -2.9401  -18.7451  -48.8950 O.2       8 UNK        -0.5000 
     32 CA         -2.5451  -16.3903  -48.6914 C.3       8 UNK         0.1400 
     33 CB         -3.3400  -15.7397  -49.8307 C.3       8 UNK        -0.1800 
     34 N          -2.3809  -15.4233  -47.6006 N.am      8 UNK        -0.5000 
     35 C          -1.6400  -15.6344  -46.5045 C.2       7 UNK         0.5000 
     36 O          -1.0383  -16.6899  -46.2971 O.2       7 UNK        -0.5000 
     37 CA         -1.5513  -14.5035  -45.4588 C.3       7 UNK         0.1400 
     38 CB         -2.5200  -13.3252  -45.7052 C.3       7 UNK        -0.1800 
     39 N          -1.7011  -15.0326  -44.1010 N.am      7 UNK        -0.5000 
     40 C          -2.7545  -15.7080  -43.6148 C.2       6 UNK         0.5000 
     41 O          -3.7959  -15.8779  -44.2495 O.2       6 UNK        -0.5000 
     42 CA         -2.6229  -16.3176  -42.2035 C.3       6 UNK         0.1400 
     43 CB         -3.1971  -17.7449  -42.1474 C.3       6 UNK        -0.1800 
     44 N          -1.2293  -16.3537  -41.7519 N.am      6 UNK        -0.5000 
     45 C          -0.7034  -15.5618  -40.8096 C.2       5 UNK         0.5000 
     46 O          -1.3503  -14.7330  -40.1684 O.2       5 UNK        -0.5000 
     47 CA          0.8102  -15.7038  -40.5482 C.3       5 UNK         0.1400 
     48 CB          1.0628  -16.6916  -39.3990 C.3       5 UNK        -0.1800 
     49 N           1.6103  -16.1128  -41.7100 N.am      5 UNK        -0.5000 
     50 C           1.6940  -15.4486  -42.8701 C.2       4 UNK         0.5000 
     51 O           1.0176  -14.4543  -43.1376 O.2       4 UNK        -0.5000 
     52 CA          2.7431  -15.9554  -43.8736 C.3       4 UNK         0.1400 
     53 CB          2.2882  -15.7798  -45.3316 C.3       4 UNK        -0.1800 
     54 N           3.9850  -15.2157  -43.6656 N.am      4 UNK        -0.5000 
     55 C           4.9135  -15.5341  -42.7524 C.2       3 UNK         0.5000 
     56 O           4.8286  -16.5313  -42.0329 O.2       3 UNK        -0.5000 
     57 CA          6.1157  -14.5763  -42.5816 C.3       3 UNK         0.1400 
     58 CB          7.4227  -15.3218  -42.2373 C.3       3 UNK        -0.1800 
     59 N           6.3166  -13.6457  -43.6997 N.am      3 UNK        -0.5000 
     60 C           6.6598  -13.9427  -44.9611 C.2       2 UNK         0.5000 
     61 O           6.8936  -15.0806  -45.3723 O.2       2 UNK        -0.5000 
     62 CA          6.7083  -12.7517  -45.9390 C.3       2 UNK         0.1400 
     63 CB          8.0517  -12.6950  -46.6842 C.3       2 UNK        -0.1800 
     64 N           5.6215  -12.7997  -46.9179 N.am      2 UNK        -0.5000 
     65 C           4.3103  -12.8434  -46.6399 C.2       1 UNK         0.5000 
     66 O           3.8631  -12.8055  -45.4923 O.2       1 UNK        -0.5000 
     67 C          -0.9717  -21.9466  -49.2193 C.2       11 UNK         0.5000 
     68 O          -0.6011  -23.0501  -49.6191 O.2       11 UNK        -0.5000 
     69 N          -2.2573  -21.5754  -49.1618 N.am      12 UNK        -0.5000 
     70 CA         -3.3655  -22.4353  -49.5696 C.3       12 UNK         0.1400 
     71 CB         -4.6658  -21.6309  -49.5745 C.3       12 UNK        -0.1800 
     72 C          -3.5208  -23.6851  -48.6872 C.2       12 UNK         0.5000 
     73 O          -3.8698  -24.7438  -49.2101 O.2       12 UNK        -0.5000 
     74 N          -3.2652  -23.5487  -47.3790 N.am      13 UNK        -0.5000 
     75 CA         -3.2456  -24.6534  -46.4214 C.3       13 UNK         0.1400 
     76 CB         -3.2516  -24.1070  -44.9864 C.3       13 UNK        -0.1800 
     77 C          -2.0456  -25.5876  -46.6450 C.2       13 UNK         0.5000 
     78 O          -2.2210  -26.8051  -46.6156 O.2       13 UNK        -0.5000 
     79 N          -0.8636  -25.0119  -46.9134 N.am      14 UNK        -0.5000 
     80 CA          0.3602  -25.7460  -47.2511 C.3       14 UNK         0.1400 
     81 CB          1.5491  -24.7745  -47.2960 C.3       14 UNK        -0.1800 
     82 C           0.2413  -26.5305  -48.5727 C.2       14 UNK         0.5000 
     83 O           0.7324  -27.6562  -48.6607 O.2       14 UNK        -0.5000 
     84 N          -0.4487  -25.9399  -49.5576 N.am      15 UNK        -0.5000 
     85 CA         -0.8050  -26.5651  -50.8330 C.3       15 UNK         0.1400 
     86 CB         -1.2048  -25.4598  -51.8242 C.3       15 UNK        -0.1800 
     87 C          -1.9385  -27.6068  -50.7165 C.2       15 UNK         0.5000 
     88 O          -2.1620  -28.3530  -51.6703 O.2       15 UNK        -0.5000 
     89 N          -2.6450  -27.6202  -49.5748 N.am      16 UNK        -0.5000 
     90 CA         -3.8309  -28.4247  -49.2562 C.3       16 UNK         0.1400 
     91 CB         -3.4852  -29.9275  -49.2126 C.3       16 UNK        -0.1800 
     92 C          -5.0417  -28.1059  -50.1613 C.2       16 UNK         0.5000 
     93 O          -5.8838  -28.9738  -50.3992 O.2       16 UNK        -0.5000 
     94 N          -5.1049  -26.8602  -50.6458 N.am      17 UNK        -0.5000 
     95 CA         -6.1611  -26.3405  -51.5094 C.3       17 UNK         0.1400 
     96 CB         -5.5327  -25.3875  -52.5396 C.3       17 UNK        -0.1800 
     97 C          -7.2377  -25.6055  -50.6964 C.2       17 UNK         0.5000 
     98 O          -8.4199  -25.7182  -51.0195 O.2       17 UNK        -0.5000 
     99 N          -6.8020  -24.8506  -49.6733 N.am      18 UNK        -0.5000 
    100 CA        -7.6078  -24.0200  -48.7628 C.3       18 UNK         0.1400 
    101 CB        -8.4961  -24.9088  -47.8691 C.3       18 UNK        -0.1800 
    102 C         -8.4112  -22.8898  -49.4556 C.2       18 UNK         0.5000 
    103 O         -9.3512  -22.3542  -48.8677 O.2       18 UNK        -0.5000 
    104 N         -8.0185  -22.5324  -50.6860 N.am      19 UNK        -0.5000 
    105 CA        -8.6900  -21.5620  -51.5544 C.3       19 UNK         0.1400 
    106 CB        -8.3375  -21.9101  -53.0106 C.3       19 UNK        -0.1800 
    107 C         -8.3386  -20.0884  -51.2582 C.2       19 UNK         0.5000 
    108 O         -8.9359  -19.2033  -51.8714 O.2       19 UNK        -0.5000 
    109 N         -7.3715  -19.8521  -50.3576 N.am      20 UNK        -0.5000 
    110 CA        -6.7737  -18.5543  -50.0149 C.3       20 UNK         0.1400 
    111 CB        -7.7929  -17.6320  -49.3153 C.3       20 UNK        -0.1800 
    112 C         -6.0805  -17.9031  -51.2297 C.2       20 UNK         0.5000 
    113 O         -6.3940  -16.7725  -51.6058 O.2       20 UNK        -0.5000 
    114 N         -5.1516  -18.6571  -51.8246 N.am      21 UNK        -0.5000 
    115 CA        -4.3280  -18.2776  -52.9647 C.3       21 UNK         0.1400 
    116 CB        -4.9689  -18.8284  -54.2500 C.3       21 UNK        -0.1800 
    117 C         -2.9149  -18.8449  -52.7575 C.2       21 UNK         0.5000 
    118 O         -2.7204  -19.7134  -51.9047 O.2       21 UNK        -0.5000 
    119 N         -1.9581  -18.3527  -53.5509 N.am      22 UNK        -0.5000 
    120 CA        -0.5240  -18.6857  -53.4646 C.3       22 UNK         0.1400 
    121 C         -0.1486  -20.1718  -53.7543 C.2       22 UNK         0.5000 
    122 N         -1.0306  -20.9902  -54.3141 N.am      22 UNK        -0.7600 
    123 O          0.9710  -20.5863  -53.4693 O.2       22 UNK        -0.5000 
    124 C124        0.3355  -17.7508  -54.3545 C.3       23 UNK        -0.0398 
    125 S125        0.0039  -15.9697  -54.1141 S.3       23 UNK        -0.2404 
    126 C126        1.4814  -15.4158  -53.2085 C.3       23 UNK        -0.0205 
    127 H127        4.8609  -13.2547  -51.5135 H         1 UNK         0.0600 
    128 H128        4.5025  -14.9808  -51.6015 H         1 UNK         0.0600 
    129 H129        6.0913  -14.4358  -51.0505 H         1 UNK         0.0600 
    130 H130        3.9036  -12.2808  -49.7495 H         1 UNK         0.3000 
    131 H131        2.7422  -13.8308  -47.6510 H         1 UNK         0.0600 
    132 H132        1.7190  -11.7816  -46.8807 H         1 UNK         0.0800 
    133 H133        2.8792  -10.7937  -47.7221 H         1 UNK         0.0800 
    134 H134       -0.1116  -13.1648  -47.9489 H         1 UNK         0.0800 
    135 H135       -0.8920  -12.7409  -49.4519 H         1 UNK         0.0800 
    136 H136        0.4784  -13.4265  -51.6635 H         1 UNK         0.1150 
    137 H137        2.0181  -17.4105  -51.4356 H         1 UNK         0.1150 
    138 H138        0.8499  -15.3500  -47.8598 H         1 UNK         0.1150 
    139 H139        2.7691  -17.4054  -48.1259 H         1 UNK         0.0800 
    140 H140        1.0988  -17.8377  -47.8631 H         1 UNK         0.0800 
    141 H141        0.4929  -20.3751  -50.7532 H         1 UNK         0.0800 
    142 H142       -0.2405  -19.0954  -49.8243 H         1 UNK         0.0800 
    143 H143        0.9551  -21.5487  -48.4436 H         1 UNK         0.0600 
    144 H144       -0.6578  -19.3513  -47.4989 H         1 UNK         0.3000 
    145 H145       -1.5072  -20.8459  -44.3692 H         1 UNK         0.0600 
    146 H146       -0.4956  -18.6383  -43.6853 H         1 UNK         0.0600 
    147 H147        0.7173  -19.8573  -44.0391 H         1 UNK         0.0600 
    148 H148        0.3911  -18.5885  -45.2065 H         1 UNK         0.0600 
    149 H149       -2.1107  -18.3453  -45.7048 H         1 UNK         0.3000 
    150 H150       -5.0417  -19.4696  -47.3305 H         1 UNK         0.0600 
    151 H151       -6.0754  -19.4217  -45.1151 H         1 UNK         0.0600 
    152 H152       -6.3263  -17.8728  -45.9055 H         1 UNK         0.0600 
    153 H153       -5.1117  -18.0364  -44.6372 H         1 UNK         0.0600 
    154 H154       -4.0834  -16.8448  -46.6559 H         1 UNK         0.3000 
    155 H155       -1.5523  -16.6332  -49.0732 H         1 UNK         0.0600 
    156 H156       -4.3528  -15.4789  -49.5210 H         1 UNK         0.0600 
    157 H157       -3.4179  -16.4153  -50.6824 H         1 UNK         0.0600 
    158 H158       -2.8494  -14.8332  -50.1860 H         1 UNK         0.0600 
    159 H159       -2.8716  -14.5463  -47.6952 H         1 UNK         0.3000 
    160 H160       -0.5346  -14.1139  -45.5221 H         1 UNK         0.0600 
    161 H161       -3.5630  -13.6432  -45.7161 H         1 UNK         0.0600 
    162 H162       -2.3116  -12.8299  -46.6540 H         1 UNK         0.0600 
    163 H163       -2.4158  -12.5701  -44.9259 H         1 UNK         0.0600 
    164 H164       -0.8773  -14.9339  -43.5167 H         1 UNK         0.3000 
    165 H165       -3.2225  -15.6933  -41.5383 H         1 UNK         0.0600 
    166 H166       -3.0675  -18.1830  -41.1577 H         1 UNK         0.0600 
    167 H167       -4.2667  -17.7450  -42.3590 H         1 UNK         0.0600 
    168 H168       -2.7200  -18.4050  -42.8711 H         1 UNK         0.0600 
    169 H169       -0.6152  -16.9965  -42.2296 H         1 UNK         0.3000 
    170 H170        1.1739  -14.7224  -40.2370 H         1 UNK         0.0600 
    171 H171        0.5069  -16.4041  -38.5055 H         1 UNK         0.0600 
    172 H172        0.7562  -17.7041  -39.6649 H         1 UNK         0.0600 
    173 H173        2.1182  -16.7200  -39.1271 H         1 UNK         0.0600 
    174 H174        2.2382  -16.8912  -41.5625 H         1 UNK         0.3000 
    175 H175        2.9141  -17.0213  -43.7076 H         1 UNK         0.0600 
    176 H176        1.9892  -14.7545  -45.5476 H         1 UNK         0.0600 
    177 H177        3.0813  -16.0506  -46.0288 H         1 UNK         0.0600 
    178 H178        1.4351  -16.4209  -45.5457 H         1 UNK         0.0600 
    179 H179        4.0868  -14.3546  -44.1935 H         1 UNK         0.3000 
    180 H180        5.8671  -13.9517  -41.7225 H         1 UNK         0.0600 
    181 H181        8.2527  -14.6265  -42.1116 H         1 UNK         0.0600 
    182 H182        7.6982  -16.0382  -43.0114 H         1 UNK         0.0600 
    183 H183        7.3232  -15.8761  -41.3034 H         1 UNK         0.0600 
    184 H184        6.1066  -12.6797  -43.4881 H         1 UNK         0.3000 
    185 H185        6.6007  -11.8246  -45.3722 H         1 UNK         0.0600 
    186 H186        8.8855  -12.6570  -45.9820 H         1 UNK         0.0600 
    187 H187        8.1976  -13.5692  -47.3202 H         1 UNK         0.0600 
    188 H188        8.1171  -11.8075  -47.3138 H         1 UNK         0.0600 
    189 H189        5.8930  -12.8679  -47.8874 H         1 UNK         0.3000 
    190 H190       -2.4853  -20.6201  -48.9006 H         1 UNK         0.3000 
    191 H191       -3.1652  -22.7636  -50.5918 H         1 UNK         0.0600 
    192 H192       -4.5297  -20.6776  -50.0789 H         1 UNK         0.0600 
    193 H193       -5.4364  -22.1795  -50.1099 H         1 UNK         0.0600 
    194 H194       -5.0275  -21.4345  -48.5653 H         1 UNK         0.0600 
    195 H195       -3.0746  -22.6248  -47.0052 H         1 UNK         0.3000 
    196 H196       -4.1557  -25.2409  -46.5614 H         1 UNK         0.0600 
    197 H197       -3.2211  -24.9182  -44.2580 H         1 UNK         0.0600 
    198 H198       -4.1551  -23.5297  -44.7904 H         1 UNK         0.0600 
    199 H199       -2.3940  -23.4608  -44.7965 H         1 UNK         0.0600 
    200 H200       -0.7905  -24.0004  -46.8762 H         1 UNK         0.3000 
    201 H201        0.5439  -26.4688  -46.4535 H         1 UNK         0.0600 
    202 H202        1.6771  -24.2638  -46.3414 H         1 UNK         0.0600 
    203 H203        1.4208  -24.0146  -48.0667 H         1 UNK         0.0600 
    204 H204        2.4782  -25.3044  -47.5090 H         1 UNK         0.0600 
    205 H205       -0.7372  -24.9731  -49.4329 H         1 UNK         0.3000 
    206 H206        0.0751  -27.0780  -51.2258 H         1 UNK         0.0600 
    207 H207       -0.3973  -24.7400  -51.9602 H         1 UNK         0.0600 
    208 H208       -1.4376  -25.8758  -52.8051 H         1 UNK         0.0600 
    209 H209       -2.0848  -24.9140  -51.4823 H         1 UNK         0.0600 
    210 H210       -2.3683  -26.9700  -48.8509 H         1 UNK         0.3000 
    211 H211       -4.1289  -28.1295  -48.2494 H         1 UNK         0.0600 
    212 H212       -3.2495  -30.3196  -50.2021 H         1 UNK         0.0600 
    213 H213       -4.3206  -30.5096  -48.8219 H         1 UNK         0.0600 
    214 H214       -2.6296  -30.1151  -48.5638 H         1 UNK         0.0600 
    215 H215       -4.4036  -26.1962  -50.3317 H         1 UNK         0.3000 
    216 H216       -6.6410  -27.1591  -52.0501 H         1 UNK         0.0600 
    217 H217       -4.8044  -25.9091  -53.1609 H         1 UNK         0.0600 
    218 H218       -5.0215  -24.5508  -52.0613 H         1 UNK         0.0600 
    219 H219       -6.2915  -24.9744  -53.2056 H         1 UNK         0.0600 
    220 H220       -5.8040  -24.8551  -49.4884 H         1 UNK         0.3000 
    221 H221       -6.8938  -23.5160  -48.1098 H         1 UNK         0.0600 
    222 H222       -9.2806  -25.4032  -48.4426 H         1 UNK         0.0600 
    223 H223       -7.9074  -25.6798  -47.3720 H         1 UNK         0.0600 
    224 H224       -8.9824  -24.3219  -47.0890 H         1 UNK         0.0600 
    225 H225       -7.2541  -23.0433  -51.1002 H         1 UNK         0.3000 
    226 H226       -9.7696  -21.6691  -51.4300 H         1 UNK         0.0600 
    227 H227       -8.6266  -22.9331  -53.2529 H         1 UNK         0.0600 
    228 H228       -8.8586  -21.2545  -53.7096 H         1 UNK         0.0600 
    229 H229       -7.2682  -21.8084  -53.2013 H         1 UNK         0.0600 
    230 H230       -6.9679  -20.6573  -49.9052 H         1 UNK         0.3000 
    231 H231       -5.9832  -18.7587  -49.2946 H         1 UNK         0.0600 
    232 H232       -7.3121  -16.7161  -48.9695 H         1 UNK         0.0600 
    233 H233       -8.2288  -18.1186  -48.4428 H         1 UNK         0.0600 
    234 H234       -8.6069  -17.3419  -49.9798 H         1 UNK         0.0600 
    235 H235       -4.8780  -19.5366  -51.4079 H         1 UNK         0.3000 
    236 H236       -4.2515  -17.1900  -53.0279 H         1 UNK         0.0600 
    237 H237       -5.9755  -18.4324  -54.3869 H         1 UNK         0.0600 
    238 H238       -4.3897  -18.5516  -55.1315 H         1 UNK         0.0600 
    239 H239       -5.0397  -19.9167  -54.2287 H         1 UNK         0.0600 
    240 H240       -2.1977  -17.6465  -54.2314 H         1 UNK         0.3000 
    241 H241       -0.2322  -18.5041  -52.4287 H         1 UNK         0.0600 
    242 H242       -0.7729  -21.9472  -54.4945 H         1 UNK         0.3800 
    243 H243       -1.9578  -20.6684  -54.5379 H         1 UNK         0.3800 
    244 H244        1.3967  -17.9465  -54.1937 H         1 UNK         0.0800 
    245 H245        0.1525  -17.9719  -55.4075 H         1 UNK         0.0800 
    246 H246        2.3523  -16.0167  -53.4733 H         1 UNK         0.0800 
    247 H247        1.7189  -14.4005  -53.5297 H         1 UNK         0.0800 
@<TRIPOS>BOND
     1    1    2 1    
     2    1  127 1    
     3    1  128 1    
     4    1  129 1    
     5    2    3 2    
     6    2    4 am   BACKBONE|DICT|INTERRES
     7    4    5 1    
     8    4  130 1    
     9    5    6 1    
    10    5   65 1    
    11    5  131 1    
    12    6    7 1    
    13    6  132 1    
    14    6  133 1    
    15    7    8 1    
    16    8    9 1    
    17    8  134 1    
    18    8  135 1    
    19    9   10 ar   
    20    9   14 ar   
    21   10   11 ar   
    22   10  136 1    
    23   11   12 ar   
    24   11  126 1    
    25   12   13 ar   
    26   12  137 1    
    27   13   14 ar   
    28   13   15 1    
    29   14  138 1    
    30   15   16 1    
    31   15  139 1    
    32   15  140 1    
    33   16   17 1    
    34   17   18 1    
    35   17  141 1    
    36   17  142 1    
    37   18   19 1    
    38   18   67 1    
    39   18  143 1    
    40   19   20 am   BACKBONE|DICT|INTERRES
    41   19  144 1    
    42   20   21 2    
    43   20   22 1    
    44   22   23 1    
    45   22   24 1    
    46   22  145 1    
    47   23  146 1    
    48   23  147 1    
    49   23  148 1    
    50   24   25 am   BACKBONE|DICT|INTERRES
    51   24  149 1    
    52   25   26 2    
    53   25   27 1    
    54   27   28 1    
    55   27   29 1    
    56   27  150 1    
    57   28  151 1    
    58   28  152 1    
    59   28  153 1    
    60   29   30 am   BACKBONE|DICT|INTERRES
    61   29  154 1    
    62   30   31 2    
    63   30   32 1    
    64   32   33 1    
    65   32   34 1    
    66   32  155 1    
    67   33  156 1    
    68   33  157 1    
    69   33  158 1    
    70   34   35 am   BACKBONE|DICT|INTERRES
    71   34  159 1    
    72   35   36 2    
    73   35   37 1    
    74   37   38 1    
    75   37   39 1    
    76   37  160 1    
    77   38  161 1    
    78   38  162 1    
    79   38  163 1    
    80   39   40 am   BACKBONE|DICT|INTERRES
    81   39  164 1    
    82   40   41 2    
    83   40   42 1    
    84   42   43 1    
    85   42   44 1    
    86   42  165 1    
    87   43  166 1    
    88   43  167 1    
    89   43  168 1    
    90   44   45 am   BACKBONE|DICT|INTERRES
    91   44  169 1    
    92   45   46 2    
    93   45   47 1    
    94   47   48 1    
    95   47   49 1    
    96   47  170 1    
    97   48  171 1    
    98   48  172 1    
    99   48  173 1    
   100   49   50 am   BACKBONE|DICT|INTERRES
   101   49  174 1    
   102   50   51 2    
   103   50   52 1    
   104   52   53 1    
   105   52   54 1    
   106   52  175 1    
   107   53  176 1    
   108   53  177 1    
   109   53  178 1    
   110   54   55 am   BACKBONE|DICT|INTERRES
   111   54  179 1    
   112   55   56 2    
   113   55   57 1    
   114   57   58 1    
   115   57   59 1    
   116   57  180 1    
   117   58  181 1    
   118   58  182 1    
   119   58  183 1    
   120   59   60 am   BACKBONE|DICT|INTERRES
   121   59  184 1    
   122   60   61 2    
   123   60   62 1    
   124   62   63 1    
   125   62   64 1    
   126   62  185 1    
   127   63  186 1    
   128   63  187 1    
   129   63  188 1    
   130   64   65 am   BACKBONE|DICT|INTERRES
   131   64  189 1    
   132   65   66 2    
   133   67   68 2    
   134   67   69 am   BACKBONE|DICT|INTERRES
   135   69   70 1    
   136   69  190 1    
   137   70   71 1    
   138   70   72 1    
   139   70  191 1    
   140   71  192 1    
   141   71  193 1    
   142   71  194 1    
   143   72   73 2    
   144   72   74 am   BACKBONE|DICT|INTERRES
   145   74   75 1    
   146   74  195 1    
   147   75   76 1    
   148   75   77 1    
   149   75  196 1    
   150   76  197 1    
   151   76  198 1    
   152   76  199 1    
   153   77   78 2    
   154   77   79 am   BACKBONE|DICT|INTERRES
   155   79   80 1    
   156   79  200 1    
   157   80   81 1    
   158   80   82 1    
   159   80  201 1    
   160   81  202 1    
   161   81  203 1    
   162   81  204 1    
   163   82   83 2    
   164   82   84 am   BACKBONE|DICT|INTERRES
   165   84   85 1    
   166   84  205 1    
   167   85   86 1    
   168   85   87 1    
   169   85  206 1    
   170   86  207 1    
   171   86  208 1    
   172   86  209 1    
   173   87   88 2    
   174   87   89 am   BACKBONE|DICT|INTERRES
   175   89   90 1    
   176   89  210 1    
   177   90   91 1    
   178   90   92 1    
   179   90  211 1    
   180   91  212 1    
   181   91  213 1    
   182   91  214 1    
   183   92   93 2    
   184   92   94 am   BACKBONE|DICT|INTERRES
   185   94   95 1    
   186   94  215 1    
   187   95   96 1    
   188   95   97 1    
   189   95  216 1    
   190   96  217 1    
   191   96  218 1    
   192   96  219 1    
   193   97   98 2    
   194   97   99 am   BACKBONE|DICT|INTERRES
   195   99  100 1    
   196   99  220 1    
   197  100  101 1    
   198  100  102 1    
   199  100  221 1    
   200  101  222 1    
   201  101  223 1    
   202  101  224 1    
   203  102  103 2    
   204  102  104 am   BACKBONE|DICT|INTERRES
   205  104  105 1    
   206  104  225 1    
   207  105  106 1    
   208  105  107 1    
   209  105  226 1    
   210  106  227 1    
   211  106  228 1    
   212  106  229 1    
   213  107  108 2    
   214  107  109 am   BACKBONE|DICT|INTERRES
   215  109  110 1    
   216  109  230 1    
   217  110  111 1    
   218  110  112 1    
   219  110  231 1    
   220  111  232 1    
   221  111  233 1    
   222  111  234 1    
   223  112  113 2    
   224  112  114 am   BACKBONE|DICT|INTERRES
   225  114  115 1    
   226  114  235 1    
   227  115  116 1    
   228  115  117 1    
   229  115  236 1    
   230  116  237 1    
   231  116  238 1    
   232  116  239 1    
   233  117  118 2    
   234  117  119 am   BACKBONE|DICT|INTERRES
   235  119  120 1    
   236  119  240 1    
   237  120  121 1    
   238  120  124 1    
   239  120  241 1    
   240  121  122 am   BACKBONE|DICT|INTERRES
   241  121  123 2    
   242  122  242 1    
   243  122  243 1    
   244  124  125 1    
   245  124  244 1    
   246  124  245 1    
   247  125  126 1    
   248  126  246 1    
   249  126  247 1    
@<TRIPOS>SUBSTRUCTURE
     1 UNK         1 GROUP             0       ****    0 ROOT    
