@<TRIPOS>MOLECULE
3R540
247   249    1
SMALL
USER_CHARGES


@<TRIPOS>ATOM
      1 CA         -1.1935  -13.0438  -53.4890 C.3       0 UNK        -0.1800 
      2 C          -0.7064  -13.1312  -52.0491 C.2       0 UNK         0.5000 
      3 O           0.4678  -13.4219  -51.8210 O.2       0 UNK        -0.5000 
      4 N          -1.6086  -12.8958  -51.0882 N.am      1 UNK        -0.5000 
      5 CA         -1.3320  -12.8888  -49.6484 C.3       1 UNK         0.1400 
      6 C6         -2.5347  -13.4618  -48.8464 C.3       23 UNK        -0.0398 
      7 S7         -2.0302  -14.1948  -47.2484 S.3       23 UNK        -0.2404 
      8 C8         -2.2849  -15.9768  -47.5243 C.3       23 UNK        -0.0205 
      9 C9         -1.1406  -16.6148  -48.2998 C.ar      23 UNK        -0.0193 
     10 C10        -1.1012  -16.5309  -49.6943 C.ar      23 UNK        -0.1150 
     11 C11        -0.0582  -17.1179  -50.4139 C.ar      23 UNK        -0.0193 
     12 C12         0.9499  -17.8001  -49.7296 C.ar      23 UNK        -0.1150 
     13 C13         0.9019  -17.9308  -48.3397 C.ar      23 UNK        -0.0193 
     14 C14        -0.1390  -17.3242  -47.6278 C.ar      23 UNK        -0.1150 
     15 C15         1.9602  -18.7564  -47.6186 C.3       23 UNK        -0.0205 
     16 S16         1.8873  -20.5212  -48.0871 S.3       23 UNK        -0.2404 
     17 C17         0.1679  -20.9062  -47.6265 C.3       23 UNK        -0.0398 
     18 CA         -0.1685  -22.4143  -47.5782 C.3       11 UNK         0.1400 
     19 N           0.7275  -23.1770  -46.7020 N.am      11 UNK        -0.5000 
     20 C           0.7385  -24.5160  -46.6136 C.2       10 UNK         0.5000 
     21 O          -0.0166  -25.2482  -47.2525 O.2       10 UNK        -0.5000 
     22 CA          1.7170  -25.1513  -45.6090 C.3       10 UNK         0.1400 
     23 CB          3.0786  -25.3985  -46.2744 C.3       10 UNK        -0.1800 
     24 N           1.9141  -24.3689  -44.3887 N.am      10 UNK        -0.5000 
     25 C           0.9535  -23.9555  -43.5504 C.2       9 UNK         0.5000 
     26 O          -0.2459  -24.1837  -43.7149 O.2       9 UNK        -0.5000 
     27 CA          1.3962  -23.1014  -42.3460 C.3       9 UNK         0.1400 
     28 CB          2.9078  -23.1886  -42.0396 C.3       9 UNK        -0.1800 
     29 N           1.0051  -21.6953  -42.4810 N.am      9 UNK        -0.5000 
     30 C           1.2292  -20.8768  -43.5223 C.2       8 UNK         0.5000 
     31 O           1.7045  -21.2337  -44.6008 O.2       8 UNK        -0.5000 
     32 CA          0.8857  -19.3906  -43.3073 C.3       8 UNK         0.1400 
     33 CB         -0.5763  -19.1208  -43.6962 C.3       8 UNK        -0.1800 
     34 N           1.1142  -18.9197  -41.9357 N.am      8 UNK        -0.5000 
     35 C           2.2897  -18.9465  -41.2865 C.2       7 UNK         0.5000 
     36 O           3.3362  -19.3768  -41.7747 O.2       7 UNK        -0.5000 
     37 CA          2.2736  -18.3845  -39.8485 C.3       7 UNK         0.1400 
     38 CB          3.6640  -18.3731  -39.1780 C.3       7 UNK        -0.1800 
     39 N           1.6449  -17.0609  -39.7827 N.am      7 UNK        -0.5000 
     40 C           2.0466  -15.9497  -40.4161 C.2       6 UNK         0.5000 
     41 O           3.0673  -15.8659  -41.1019 O.2       6 UNK        -0.5000 
     42 CA          1.1190  -14.7304  -40.2898 C.3       6 UNK         0.1400 
     43 CB          1.8876  -13.4719  -39.8550 C.3       6 UNK        -0.1800 
     44 N           0.4633  -14.4846  -41.5706 N.am      6 UNK        -0.5000 
     45 C          -0.5311  -15.2356  -42.0680 C.2       5 UNK         0.5000 
     46 O          -1.0498  -16.1707  -41.4562 O.2       5 UNK        -0.5000 
     47 CA         -1.0306  -14.8909  -43.4850 C.3       5 UNK         0.1400 
     48 CB         -2.1961  -13.8929  -43.4036 C.3       5 UNK        -0.1800 
     49 N           0.0160  -14.3350  -44.3413 N.am      5 UNK        -0.5000 
     50 C           1.1096  -14.9908  -44.7563 C.2       4 UNK         0.5000 
     51 O           1.3075  -16.1865  -44.5449 O.2       4 UNK        -0.5000 
     52 CA          2.1695  -14.1749  -45.5260 C.3       4 UNK         0.1400 
     53 CB          2.1311  -14.5253  -47.0218 C.3       4 UNK        -0.1800 
     54 N           2.0381  -12.7211  -45.3855 N.am      4 UNK        -0.5000 
     55 C           2.1363  -12.0071  -44.2564 C.2       3 UNK         0.5000 
     56 O           2.3509  -12.5094  -43.1540 O.2       3 UNK        -0.5000 
     57 CA          1.8822  -10.4876  -44.3581 C.3       3 UNK         0.1400 
     58 CB          3.1654   -9.7275  -44.7446 C.3       3 UNK        -0.1800 
     59 N           0.7453  -10.1285  -45.2237 N.am      3 UNK        -0.5000 
     60 C           0.6289  -10.2631  -46.5525 C.2       2 UNK         0.5000 
     61 O           1.5392  -10.6615  -47.2815 O.2       2 UNK        -0.5000 
     62 CA         -0.7623   -9.9735  -47.1408 C.3       2 UNK         0.1400 
     63 CB         -0.8116   -8.6298  -47.8938 C.3       2 UNK        -0.1800 
     64 N          -1.2207  -11.1128  -47.9454 N.am      2 UNK        -0.5000 
     65 C          -0.8624  -11.4840  -49.1849 C.2       1 UNK         0.5000 
     66 O          -0.1920  -10.7826  -49.9463 O.2       1 UNK        -0.5000 
     67 C          -1.6485  -22.5856  -47.1796 C.2       11 UNK         0.5000 
     68 O          -2.5148  -22.6245  -48.0548 O.2       11 UNK        -0.5000 
     69 N          -1.9036  -22.6854  -45.8684 N.am      12 UNK        -0.5000 
     70 CA         -3.2288  -22.9068  -45.3015 C.3       12 UNK         0.1400 
     71 CB         -3.2826  -22.3116  -43.8861 C.3       12 UNK        -0.1800 
     72 C          -3.5834  -24.4017  -45.2872 C.2       12 UNK         0.5000 
     73 O          -4.7037  -24.7571  -45.6504 O.2       12 UNK        -0.5000 
     74 N          -2.6218  -25.2510  -44.8961 N.am      13 UNK        -0.5000 
     75 CA         -2.7833  -26.7019  -44.7699 C.3       13 UNK         0.1400 
     76 CB         -1.5374  -27.3012  -44.1021 C.3       13 UNK        -0.1800 
     77 C          -3.0760  -27.4086  -46.1060 C.2       13 UNK         0.5000 
     78 O          -3.9196  -28.3049  -46.1432 O.2       13 UNK        -0.5000 
     79 N          -2.4044  -26.9755  -47.1821 N.am      14 UNK        -0.5000 
     80 CA         -2.6428  -27.4551  -48.5467 C.3       14 UNK         0.1400 
     81 CB         -1.3650  -27.2491  -49.3765 C.3       14 UNK        -0.1800 
     82 C          -3.8367  -26.7552  -49.2279 C.2       14 UNK         0.5000 
     83 O          -4.2187  -27.1591  -50.3264 O.2       14 UNK        -0.5000 
     84 N          -4.3709  -25.7001  -48.5915 N.am      15 UNK        -0.5000 
     85 CA         -5.4122  -24.7844  -49.0738 C.3       15 UNK         0.1400 
     86 CB         -6.7516  -25.5193  -49.2822 C.3       15 UNK        -0.1800 
     87 C          -4.9877  -23.9649  -50.3109 C.2       15 UNK         0.5000 
     88 O          -5.8430  -23.4150  -51.0058 O.2       15 UNK        -0.5000 
     89 N          -3.6730  -23.8605  -50.5485 N.am      16 UNK        -0.5000 
     90 CA         -3.0678  -23.1309  -51.6602 C.3       16 UNK         0.1400 
     91 CB         -1.5608  -23.4208  -51.6986 C.3       16 UNK        -0.1800 
     92 C          -3.3326  -21.6185  -51.5955 C.2       16 UNK         0.5000 
     93 O          -3.5042  -20.9971  -52.6435 O.2       16 UNK        -0.5000 
     94 N          -3.4024  -21.0710  -50.3737 N.am      17 UNK        -0.5000 
     95 CA         -3.7811  -19.6846  -50.0992 C.3       17 UNK         0.1400 
     96 CB         -3.5516  -19.3820  -48.6102 C.3       17 UNK        -0.1800 
     97 C          -5.2402  -19.3756  -50.4827 C.2       17 UNK         0.5000 
     98 O          -5.5184  -18.2915  -50.9947 O.2       17 UNK        -0.5000 
     99 N          -6.1411  -20.3354  -50.2310 N.am      18 UNK        -0.5000 
    100 CA        -7.5686  -20.2318  -50.5344 C.3       18 UNK         0.1400 
    101 CB        -8.3481  -21.2376  -49.6727 C.3       18 UNK        -0.1800 
    102 C         -7.8544  -20.4528  -52.0291 C.2       18 UNK         0.5000 
    103 O         -8.6671  -19.7319  -52.6088 O.2       18 UNK        -0.5000 
    104 N         -7.1669  -21.4346  -52.6273 N.am      19 UNK        -0.5000 
    105 CA        -7.2634  -21.7803  -54.0463 C.3       19 UNK         0.1400 
    106 CB        -6.6583  -23.1789  -54.2486 C.3       19 UNK        -0.1800 
    107 C         -6.5708  -20.7668  -54.9789 C.2       19 UNK         0.5000 
    108 O         -6.8468  -20.7742  -56.1789 O.2       19 UNK        -0.5000 
    109 N         -5.6616  -19.9522  -54.4210 N.am      20 UNK        -0.5000 
    110 CA        -4.7295  -19.0471  -55.1056 C.3       20 UNK         0.1400 
    111 CB        -5.4763  -17.9373  -55.8736 C.3       20 UNK        -0.1800 
    112 C         -3.7017  -19.8066  -55.9746 C.2       20 UNK         0.5000 
    113 O         -3.1971  -19.2697  -56.9619 O.2       20 UNK        -0.5000 
    114 N         -3.3968  -21.0461  -55.5690 N.am      21 UNK        -0.5000 
    115 CA        -2.4044  -21.9305  -56.1800 C.3       21 UNK         0.1400 
    116 CB        -2.8253  -23.3860  -55.9223 C.3       21 UNK        -0.1800 
    117 C         -0.9844  -21.6713  -55.6393 C.2       21 UNK         0.5000 
    118 O         -0.0191  -22.2040  -56.1872 O.2       21 UNK        -0.5000 
    119 N         -0.8854  -20.8670  -54.5741 N.am      22 UNK        -0.5000 
    120 CA         0.3526  -20.4401  -53.9085 C.3       22 UNK         0.1400 
    121 C          1.3097  -19.5461  -54.7553 C.2       22 UNK         0.5000 
    122 N          0.8851  -18.9941  -55.8858 N.am      22 UNK        -0.7600 
    123 O          2.4633  -19.3577  -54.3795 O.2       22 UNK        -0.5000 
    124 C124        0.0327  -19.7928  -52.5377 C.3       23 UNK        -0.0398 
    125 S125       -1.0667  -18.3347  -52.6728 S.3       23 UNK        -0.2404 
    126 C126       -0.0395  -17.0316  -51.9309 C.3       23 UNK        -0.0205 
    127 H127       -2.2529  -12.7923  -53.5455 H         1 UNK         0.0600 
    128 H128       -1.0439  -13.9983  -53.9938 H         1 UNK         0.0600 
    129 H129       -0.6335  -12.2800  -54.0285 H         1 UNK         0.0600 
    130 H130       -2.5446  -12.6246  -51.3533 H         1 UNK         0.3000 
    131 H131       -0.4837  -13.5542  -49.4727 H         1 UNK         0.0600 
    132 H132       -3.2997  -12.7028  -48.6736 H         1 UNK         0.0800 
    133 H133       -3.0413  -14.2314  -49.4284 H         1 UNK         0.0800 
    134 H134       -3.2307  -16.1389  -48.0422 H         1 UNK         0.0800 
    135 H135       -2.3880  -16.4630  -46.5530 H         1 UNK         0.0800 
    136 H136       -1.8850  -16.0151  -50.2285 H         1 UNK         0.1150 
    137 H137        1.7587  -18.2616  -50.2775 H         1 UNK         0.1150 
    138 H138       -0.1759  -17.4133  -46.5510 H         1 UNK         0.1150 
    139 H139        1.8505  -18.6682  -46.5363 H         1 UNK         0.0800 
    140 H140        2.9484  -18.3633  -47.8605 H         1 UNK         0.0800 
    141 H141       -0.4733  -20.4112  -48.3566 H         1 UNK         0.0800 
    142 H142       -0.0367  -20.4378  -46.6637 H         1 UNK         0.0800 
    143 H143       -0.0545  -22.8170  -48.5863 H         1 UNK         0.0600 
    144 H144        1.3445  -22.6328  -46.1071 H         1 UNK         0.3000 
    145 H145        1.3064  -26.1174  -45.3143 H         1 UNK         0.0600 
    146 H146        2.9686  -26.0007  -47.1774 H         1 UNK         0.0600 
    147 H147        3.7529  -25.9361  -45.6075 H         1 UNK         0.0600 
    148 H148        3.5620  -24.4632  -46.5601 H         1 UNK         0.0600 
    149 H149        2.8633  -24.0915  -44.1868 H         1 UNK         0.3000 
    150 H150        0.8597  -23.4957  -41.4818 H         1 UNK         0.0600 
    151 H151        3.5150  -22.7429  -42.8285 H         1 UNK         0.0600 
    152 H152        3.2279  -24.2234  -41.9103 H         1 UNK         0.0600 
    153 H153        3.1446  -22.6634  -41.1141 H         1 UNK         0.0600 
    154 H154        0.5718  -21.2894  -41.6646 H         1 UNK         0.3000 
    155 H155        1.5324  -18.8095  -43.9671 H         1 UNK         0.0600 
    156 H156       -0.8002  -18.0563  -43.6564 H         1 UNK         0.0600 
    157 H157       -1.2716  -19.6347  -43.0317 H         1 UNK         0.0600 
    158 H158       -0.7861  -19.4540  -44.7121 H         1 UNK         0.0600 
    159 H159        0.3211  -18.4996  -41.4715 H         1 UNK         0.3000 
    160 H160        1.6398  -19.0559  -39.2672 H         1 UNK         0.0600 
    161 H161        4.3777  -17.7576  -39.7261 H         1 UNK         0.0600 
    162 H162        4.0778  -19.3808  -39.1245 H         1 UNK         0.0600 
    163 H163        3.6066  -17.9921  -38.1584 H         1 UNK         0.0600 
    164 H164        0.7727  -17.0226  -39.2729 H         1 UNK         0.3000 
    165 H165        0.3550  -14.9313  -39.5356 H         1 UNK         0.0600 
    166 H166        1.2214  -12.6137  -39.7663 H         1 UNK         0.0600 
    167 H167        2.3581  -13.6220  -38.8827 H         1 UNK         0.0600 
    168 H168        2.6756  -13.2116  -40.5624 H         1 UNK         0.0600 
    169 H169        0.8952  -13.7865  -42.1645 H         1 UNK         0.3000 
    170 H170       -1.3961  -15.8078  -43.9500 H         1 UNK         0.0600 
    171 H171       -2.6207  -13.6940  -44.3868 H         1 UNK         0.0600 
    172 H172       -1.8821  -12.9406  -42.9746 H         1 UNK         0.0600 
    173 H173       -3.0009  -14.2842  -42.7799 H         1 UNK         0.0600 
    174 H174       -0.0678  -13.3604  -44.5848 H         1 UNK         0.3000 
    175 H175        3.1461  -14.4579  -45.1288 H         1 UNK         0.0600 
    176 H176        2.3037  -15.5905  -47.1772 H         1 UNK         0.0600 
    177 H177        1.1661  -14.2808  -47.4679 H         1 UNK         0.0600 
    178 H178        2.9023  -13.9895  -47.5753 H         1 UNK         0.0600 
    179 H179        1.8759  -12.1958  -46.2407 H         1 UNK         0.3000 
    180 H180        1.6016  -10.1550  -43.3574 H         1 UNK         0.0600 
    181 H181        3.5509  -10.0366  -45.7163 H         1 UNK         0.0600 
    182 H182        3.9545   -9.9062  -44.0134 H         1 UNK         0.0600 
    183 H183        2.9913   -8.6521  -44.7787 H         1 UNK         0.0600 
    184 H184       -0.0693   -9.8063  -44.7191 H         1 UNK         0.3000 
    185 H185       -1.4729   -9.9038  -46.3156 H         1 UNK         0.0600 
    186 H186       -0.6586   -7.7987  -47.2047 H         1 UNK         0.0600 
    187 H187       -0.0369   -8.5568  -48.6574 H         1 UNK         0.0600 
    188 H188       -1.7777   -8.4802  -48.3759 H         1 UNK         0.0600 
    189 H189       -1.7570  -11.7929  -47.4221 H         1 UNK         0.3000 
    190 H190       -1.1252  -22.7199  -45.2235 H         1 UNK         0.3000 
    191 H191       -3.9728  -22.3891  -45.9113 H         1 UNK         0.0600 
    192 H192       -3.0959  -21.2380  -43.9057 H         1 UNK         0.0600 
    193 H193       -4.2651  -22.4621  -43.4372 H         1 UNK         0.0600 
    194 H194       -2.5456  -22.7672  -43.2239 H         1 UNK         0.0600 
    195 H195       -1.7344  -24.8672  -44.5790 H         1 UNK         0.3000 
    196 H196       -3.6358  -26.8787  -44.1109 H         1 UNK         0.0600 
    197 H197       -1.6625  -28.3713  -43.9324 H         1 UNK         0.0600 
    198 H198       -1.3449  -26.8380  -43.1342 H         1 UNK         0.0600 
    199 H199       -0.6505  -27.1696  -44.7203 H         1 UNK         0.0600 
    200 H200       -1.6888  -26.2614  -47.0734 H         1 UNK         0.3000 
    201 H201       -2.8588  -28.5251  -48.5186 H         1 UNK         0.0600 
    202 H202       -1.4700  -27.6834  -50.3715 H         1 UNK         0.0600 
    203 H203       -0.5051  -27.7244  -48.9041 H         1 UNK         0.0600 
    204 H204       -1.1345  -26.1909  -49.5057 H         1 UNK         0.0600 
    205 H205       -4.0094  -25.4817  -47.6723 H         1 UNK         0.3000 
    206 H206       -5.5601  -24.0560  -48.2755 H         1 UNK         0.0600 
    207 H207       -7.0310  -26.0871  -48.3947 H         1 UNK         0.0600 
    208 H208       -7.5586  -24.8133  -49.4811 H         1 UNK         0.0600 
    209 H209       -6.7100  -26.2097  -50.1249 H         1 UNK         0.0600 
    210 H210       -3.0411  -24.2794  -49.8824 H         1 UNK         0.3000 
    211 H211       -3.5152  -23.5068  -52.5815 H         1 UNK         0.0600 
    212 H212       -1.0571  -23.0538  -50.8040 H         1 UNK         0.0600 
    213 H213       -1.0931  -22.9437  -52.5600 H         1 UNK         0.0600 
    214 H214       -1.3669  -24.4906  -51.7784 H         1 UNK         0.0600 
    215 H215       -3.2176  -21.6640  -49.5689 H         1 UNK         0.3000 
    216 H216       -3.1376  -19.0275  -50.6861 H         1 UNK         0.0600 
    217 H217       -3.9319  -18.3950  -48.3475 H         1 UNK         0.0600 
    218 H218       -2.4917  -19.3914  -48.3648 H         1 UNK         0.0600 
    219 H219       -4.0532  -20.1063  -47.9673 H         1 UNK         0.0600 
    220 H220       -5.8190  -21.2147  -49.8549 H         1 UNK         0.3000 
    221 H221       -7.9100  -19.2281  -50.2720 H         1 UNK         0.0600 
    222 H222       -8.0545  -22.2665  -49.8825 H         1 UNK         0.0600 
    223 H223       -8.1881  -21.0535  -48.6103 H         1 UNK         0.0600 
    224 H224       -9.4201  -21.1594  -49.8580 H         1 UNK         0.0600 
    225 H225       -6.5693  -22.0283  -52.0570 H         1 UNK         0.3000 
    226 H226       -8.3189  -21.8180  -54.3233 H         1 UNK         0.0600 
    227 H227       -6.7397  -23.4965  -55.2889 H         1 UNK         0.0600 
    228 H228       -5.6016  -23.2013  -53.9799 H         1 UNK         0.0600 
    229 H229       -7.1727  -23.9230  -53.6402 H         1 UNK         0.0600 
    230 H230       -5.4892  -20.0674  -53.4308 H         1 UNK         0.3000 
    231 H231       -4.1518  -18.5650  -54.3153 H         1 UNK         0.0600 
    232 H232       -6.0067  -18.3277  -56.7423 H         1 UNK         0.0600 
    233 H233       -4.7810  -17.1777  -56.2326 H         1 UNK         0.0600 
    234 H234       -6.2018  -17.4354  -55.2334 H         1 UNK         0.0600 
    235 H235       -3.8013  -21.3552  -54.6935 H         1 UNK         0.3000 
    236 H236       -2.3866  -21.7622  -57.2587 H         1 UNK         0.0600 
    237 H237       -2.8212  -23.6247  -54.8590 H         1 UNK         0.0600 
    238 H238       -3.8267  -23.5814  -56.3068 H         1 UNK         0.0600 
    239 H239       -2.1465  -24.0821  -56.4166 H         1 UNK         0.0600 
    240 H240       -1.7375  -20.4842  -54.1868 H         1 UNK         0.3000 
    241 H241        0.9182  -21.3514  -53.7057 H         1 UNK         0.0600 
    242 H242       -0.0614  -19.1354  -56.2006 H         1 UNK         0.3800 
    243 H243        1.5146  -18.4223  -56.4264 H         1 UNK         0.3800 
    244 H244        0.9566  -19.5309  -52.0226 H         1 UNK         0.0800 
    245 H245       -0.4595  -20.5192  -51.8910 H         1 UNK         0.0800 
    246 H246        0.9803  -17.0901  -52.3146 H         1 UNK         0.0800 
    247 H247       -0.4275  -16.0637  -52.2467 H         1 UNK         0.0800 
@<TRIPOS>BOND
     1    1    2 1    
     2    1  127 1    
     3    1  128 1    
     4    1  129 1    
     5    2    3 2    
     6    2    4 am   BACKBONE|DICT|INTERRES
     7    4    5 1    
     8    4  130 1    
     9    5    6 1    
    10    5   65 1    
    11    5  131 1    
    12    6    7 1    
    13    6  132 1    
    14    6  133 1    
    15    7    8 1    
    16    8    9 1    
    17    8  134 1    
    18    8  135 1    
    19    9   10 ar   
    20    9   14 ar   
    21   10   11 ar   
    22   10  136 1    
    23   11   12 ar   
    24   11  126 1    
    25   12   13 ar   
    26   12  137 1    
    27   13   14 ar   
    28   13   15 1    
    29   14  138 1    
    30   15   16 1    
    31   15  139 1    
    32   15  140 1    
    33   16   17 1    
    34   17   18 1    
    35   17  141 1    
    36   17  142 1    
    37   18   19 1    
    38   18   67 1    
    39   18  143 1    
    40   19   20 am   BACKBONE|DICT|INTERRES
    41   19  144 1    
    42   20   21 2    
    43   20   22 1    
    44   22   23 1    
    45   22   24 1    
    46   22  145 1    
    47   23  146 1    
    48   23  147 1    
    49   23  148 1    
    50   24   25 am   BACKBONE|DICT|INTERRES
    51   24  149 1    
    52   25   26 2    
    53   25   27 1    
    54   27   28 1    
    55   27   29 1    
    56   27  150 1    
    57   28  151 1    
    58   28  152 1    
    59   28  153 1    
    60   29   30 am   BACKBONE|DICT|INTERRES
    61   29  154 1    
    62   30   31 2    
    63   30   32 1    
    64   32   33 1    
    65   32   34 1    
    66   32  155 1    
    67   33  156 1    
    68   33  157 1    
    69   33  158 1    
    70   34   35 am   BACKBONE|DICT|INTERRES
    71   34  159 1    
    72   35   36 2    
    73   35   37 1    
    74   37   38 1    
    75   37   39 1    
    76   37  160 1    
    77   38  161 1    
    78   38  162 1    
    79   38  163 1    
    80   39   40 am   BACKBONE|DICT|INTERRES
    81   39  164 1    
    82   40   41 2    
    83   40   42 1    
    84   42   43 1    
    85   42   44 1    
    86   42  165 1    
    87   43  166 1    
    88   43  167 1    
    89   43  168 1    
    90   44   45 am   BACKBONE|DICT|INTERRES
    91   44  169 1    
    92   45   46 2    
    93   45   47 1    
    94   47   48 1    
    95   47   49 1    
    96   47  170 1    
    97   48  171 1    
    98   48  172 1    
    99   48  173 1    
   100   49   50 am   BACKBONE|DICT|INTERRES
   101   49  174 1    
   102   50   51 2    
   103   50   52 1    
   104   52   53 1    
   105   52   54 1    
   106   52  175 1    
   107   53  176 1    
   108   53  177 1    
   109   53  178 1    
   110   54   55 am   BACKBONE|DICT|INTERRES
   111   54  179 1    
   112   55   56 2    
   113   55   57 1    
   114   57   58 1    
   115   57   59 1    
   116   57  180 1    
   117   58  181 1    
   118   58  182 1    
   119   58  183 1    
   120   59   60 am   BACKBONE|DICT|INTERRES
   121   59  184 1    
   122   60   61 2    
   123   60   62 1    
   124   62   63 1    
   125   62   64 1    
   126   62  185 1    
   127   63  186 1    
   128   63  187 1    
   129   63  188 1    
   130   64   65 am   BACKBONE|DICT|INTERRES
   131   64  189 1    
   132   65   66 2    
   133   67   68 2    
   134   67   69 am   BACKBONE|DICT|INTERRES
   135   69   70 1    
   136   69  190 1    
   137   70   71 1    
   138   70   72 1    
   139   70  191 1    
   140   71  192 1    
   141   71  193 1    
   142   71  194 1    
   143   72   73 2    
   144   72   74 am   BACKBONE|DICT|INTERRES
   145   74   75 1    
   146   74  195 1    
   147   75   76 1    
   148   75   77 1    
   149   75  196 1    
   150   76  197 1    
   151   76  198 1    
   152   76  199 1    
   153   77   78 2    
   154   77   79 am   BACKBONE|DICT|INTERRES
   155   79   80 1    
   156   79  200 1    
   157   80   81 1    
   158   80   82 1    
   159   80  201 1    
   160   81  202 1    
   161   81  203 1    
   162   81  204 1    
   163   82   83 2    
   164   82   84 am   BACKBONE|DICT|INTERRES
   165   84   85 1    
   166   84  205 1    
   167   85   86 1    
   168   85   87 1    
   169   85  206 1    
   170   86  207 1    
   171   86  208 1    
   172   86  209 1    
   173   87   88 2    
   174   87   89 am   BACKBONE|DICT|INTERRES
   175   89   90 1    
   176   89  210 1    
   177   90   91 1    
   178   90   92 1    
   179   90  211 1    
   180   91  212 1    
   181   91  213 1    
   182   91  214 1    
   183   92   93 2    
   184   92   94 am   BACKBONE|DICT|INTERRES
   185   94   95 1    
   186   94  215 1    
   187   95   96 1    
   188   95   97 1    
   189   95  216 1    
   190   96  217 1    
   191   96  218 1    
   192   96  219 1    
   193   97   98 2    
   194   97   99 am   BACKBONE|DICT|INTERRES
   195   99  100 1    
   196   99  220 1    
   197  100  101 1    
   198  100  102 1    
   199  100  221 1    
   200  101  222 1    
   201  101  223 1    
   202  101  224 1    
   203  102  103 2    
   204  102  104 am   BACKBONE|DICT|INTERRES
   205  104  105 1    
   206  104  225 1    
   207  105  106 1    
   208  105  107 1    
   209  105  226 1    
   210  106  227 1    
   211  106  228 1    
   212  106  229 1    
   213  107  108 2    
   214  107  109 am   BACKBONE|DICT|INTERRES
   215  109  110 1    
   216  109  230 1    
   217  110  111 1    
   218  110  112 1    
   219  110  231 1    
   220  111  232 1    
   221  111  233 1    
   222  111  234 1    
   223  112  113 2    
   224  112  114 am   BACKBONE|DICT|INTERRES
   225  114  115 1    
   226  114  235 1    
   227  115  116 1    
   228  115  117 1    
   229  115  236 1    
   230  116  237 1    
   231  116  238 1    
   232  116  239 1    
   233  117  118 2    
   234  117  119 am   BACKBONE|DICT|INTERRES
   235  119  120 1    
   236  119  240 1    
   237  120  121 1    
   238  120  124 1    
   239  120  241 1    
   240  121  122 am   BACKBONE|DICT|INTERRES
   241  121  123 2    
   242  122  242 1    
   243  122  243 1    
   244  124  125 1    
   245  124  244 1    
   246  124  245 1    
   247  125  126 1    
   248  126  246 1    
   249  126  247 1    
@<TRIPOS>SUBSTRUCTURE
     1 UNK         1 GROUP             0       ****    0 ROOT    
