@<TRIPOS>MOLECULE
3R540
247   249    1
SMALL
USER_CHARGES


@<TRIPOS>ATOM
      1 CA          3.3395  -15.0895  -48.9030 C.3       0 UNK        -0.1800 
      2 C           2.6800  -14.0935  -47.9610 C.2       0 UNK         0.5000 
      3 O           3.2860  -13.6925  -46.9699 O.2       0 UNK        -0.5000 
      4 N           1.4463  -13.6783  -48.2756 N.am      1 UNK        -0.5000 
      5 CA          0.5825  -12.8124  -47.4544 C.3       1 UNK         0.1400 
      6 C6         -0.8819  -12.8122  -47.9598 C.3       23 UNK        -0.0398 
      7 S7         -1.6451  -14.4648  -47.8302 S.3       23 UNK        -0.2404 
      8 C8         -1.3733  -15.1216  -49.5080 C.3       23 UNK        -0.0205 
      9 C9         -1.1199  -16.6220  -49.4940 C.ar      23 UNK        -0.0193 
     10 C10        -1.9450  -17.4824  -50.2245 C.ar      23 UNK        -0.1150 
     11 C11        -1.7026  -18.8588  -50.2359 C.ar      23 UNK        -0.0193 
     12 C12        -0.6235  -19.3729  -49.5109 C.ar      23 UNK        -0.1150 
     13 C13         0.2080  -18.5247  -48.7751 C.ar      23 UNK        -0.0193 
     14 C14        -0.0415  -17.1503  -48.7746 C.ar      23 UNK        -0.1150 
     15 C15         1.3815  -19.0968  -47.9964 C.3       23 UNK        -0.0205 
     16 S16         0.9255  -19.4367  -46.2661 S.3       23 UNK        -0.2404 
     17 C17         1.9169  -20.9373  -45.9209 C.3       23 UNK        -0.0398 
     18 CA          1.1851  -22.3112  -45.9914 C.3       11 UNK         0.1400 
     19 N           0.6069  -22.7338  -44.7103 N.am      11 UNK        -0.5000 
     20 C           0.3522  -24.0167  -44.4024 C.2       10 UNK         0.5000 
     21 O           0.5992  -24.9579  -45.1566 O.2       10 UNK        -0.5000 
     22 CA         -0.3188  -24.3025  -43.0456 C.3       10 UNK         0.1400 
     23 CB          0.7263  -24.3265  -41.9203 C.3       10 UNK        -0.1800 
     24 N          -1.3652  -23.3385  -42.7120 N.am      10 UNK        -0.5000 
     25 C          -2.5059  -23.1795  -43.3979 C.2       9 UNK         0.5000 
     26 O          -2.8299  -23.8841  -44.3525 O.2       9 UNK        -0.5000 
     27 CA         -3.4125  -22.0031  -42.9799 C.3       9 UNK         0.1400 
     28 CB         -4.4844  -22.4785  -41.9884 C.3       9 UNK        -0.1800 
     29 N          -2.6818  -20.8720  -42.3968 N.am      9 UNK        -0.5000 
     30 C          -1.7041  -20.1934  -43.0122 C.2       8 UNK         0.5000 
     31 O          -1.3236  -20.4399  -44.1594 O.2       8 UNK        -0.5000 
     32 CA         -0.9919  -19.1199  -42.1788 C.3       8 UNK         0.1400 
     33 CB         -0.2128  -19.7693  -41.0151 C.3       8 UNK        -0.1800 
     34 N          -0.0728  -18.3735  -43.0334 N.am      8 UNK        -0.5000 
     35 C           0.4948  -17.2062  -42.7167 C.2       7 UNK         0.5000 
     36 O           0.2347  -16.5798  -41.6866 O.2       7 UNK        -0.5000 
     37 CA          1.5221  -16.6423  -43.7181 C.3       7 UNK         0.1400 
     38 CB          0.8609  -15.6434  -44.6789 C.3       7 UNK        -0.1800 
     39 N           2.6380  -15.9851  -43.0366 N.am      7 UNK        -0.5000 
     40 C           3.5279  -16.6083  -42.2507 C.2       6 UNK         0.5000 
     41 O           3.5602  -17.8288  -42.0859 O.2       6 UNK        -0.5000 
     42 CA          4.5520  -15.7241  -41.5202 C.3       6 UNK         0.1400 
     43 CB          5.7701  -15.4533  -42.4178 C.3       6 UNK        -0.1800 
     44 N           3.9625  -14.4512  -41.1036 N.am      6 UNK        -0.5000 
     45 C           3.3874  -14.2311  -39.9128 C.2       5 UNK         0.5000 
     46 O           3.3233  -15.0781  -39.0207 O.2       5 UNK        -0.5000 
     47 CA          2.8022  -12.8270  -39.6538 C.3       5 UNK         0.1400 
     48 CB          3.8093  -11.9642  -38.8775 C.3       5 UNK        -0.1800 
     49 N           2.4281  -12.1235  -40.8808 N.am      5 UNK        -0.5000 
     50 C           1.3195  -12.3704  -41.5914 C.2       4 UNK         0.5000 
     51 O           0.4422  -13.1557  -41.2348 O.2       4 UNK        -0.5000 
     52 CA          1.1652  -11.6264  -42.9346 C.3       4 UNK         0.1400 
     53 CB          0.2476  -10.4057  -42.7680 C.3       4 UNK        -0.1800 
     54 N           2.4228  -11.1923  -43.5549 N.am      4 UNK        -0.5000 
     55 C           3.4388  -11.9933  -43.9012 C.2       3 UNK         0.5000 
     56 O           3.4661  -13.1987  -43.6501 O.2       3 UNK        -0.5000 
     57 CA          4.5806  -11.3306  -44.6880 C.3       3 UNK         0.1400 
     58 CB          5.8170  -12.2378  -44.8172 C.3       3 UNK        -0.1800 
     59 N           4.0672  -11.0350  -46.0188 N.am      3 UNK        -0.5000 
     60 C           3.7162   -9.8244  -46.4729 C.2       2 UNK         0.5000 
     61 O           3.9317   -8.7761  -45.8641 O.2       2 UNK        -0.5000 
     62 CA          2.9489   -9.7823  -47.8125 C.3       2 UNK         0.1400 
     63 CB          3.9213   -9.5956  -48.9867 C.3       2 UNK        -0.1800 
     64 N           2.1497  -10.9895  -48.0385 N.am      2 UNK        -0.5000 
     65 C           1.1114  -11.3707  -47.2793 C.2       1 UNK         0.5000 
     66 O           0.5965  -10.6439  -46.4292 O.2       1 UNK        -0.5000 
     67 C           0.1489  -22.4379  -47.1279 C.2       11 UNK         0.5000 
     68 O           0.5100  -22.8463  -48.2313 O.2       11 UNK        -0.5000 
     69 N          -1.1244  -22.1440  -46.8212 N.am      12 UNK        -0.5000 
     70 CA         -2.2601  -22.3368  -47.7211 C.3       12 UNK         0.1400 
     71 CB         -3.5321  -21.7433  -47.0989 C.3       12 UNK        -0.1800 
     72 C          -2.4516  -23.8158  -48.0951 C.2       12 UNK         0.5000 
     73 O          -2.5358  -24.1297  -49.2812 O.2       12 UNK        -0.5000 
     74 N          -2.4480  -24.6995  -47.0874 N.am      13 UNK        -0.5000 
     75 CA         -2.5396  -26.1510  -47.2526 C.3       13 UNK         0.1400 
     76 CB         -2.6554  -26.8150  -45.8723 C.3       13 UNK        -0.1800 
     77 C          -1.3644  -26.7529  -48.0460 C.2       13 UNK         0.5000 
     78 O          -1.5801  -27.6727  -48.8359 O.2       13 UNK        -0.5000 
     79 N          -0.1523  -26.2188  -47.8371 N.am      14 UNK        -0.5000 
     80 CA          1.0520  -26.5983  -48.5759 C.3       14 UNK         0.1400 
     81 CB          2.2923  -26.0297  -47.8699 C.3       14 UNK        -0.1800 
     82 C           1.0084  -26.1513  -50.0493 C.2       14 UNK         0.5000 
     83 O           1.4012  -26.9222  -50.9260 O.2       14 UNK        -0.5000 
     84 N           0.5342  -24.9219  -50.2944 N.am      15 UNK        -0.5000 
     85 CA          0.3800  -24.3412  -51.6275 C.3       15 UNK         0.1400 
     86 CB          0.1361  -22.8292  -51.4993 C.3       15 UNK        -0.1800 
     87 C          -0.7470  -25.0067  -52.4370 C.2       15 UNK         0.5000 
     88 O          -0.5313  -25.3597  -53.5968 O.2       15 UNK        -0.5000 
     89 N          -1.9246  -25.1505  -51.8088 N.am      16 UNK        -0.5000 
     90 CA         -3.1622  -25.7342  -52.3430 C.3       16 UNK         0.1400 
     91 CB         -2.9904  -27.2513  -52.5605 C.3       16 UNK        -0.1800 
     92 C          -3.7107  -25.0075  -53.5937 C.2       16 UNK         0.5000 
     93 O          -4.3787  -25.6249  -54.4253 O.2       16 UNK        -0.5000 
     94 N          -3.4028  -23.7092  -53.7148 N.am      17 UNK        -0.5000 
     95 CA         -3.7617  -22.8490  -54.8388 C.3       17 UNK         0.1400 
     96 CB         -2.8733  -21.5940  -54.8029 C.3       17 UNK        -0.1800 
     97 C          -5.2567  -22.4856  -54.8200 C.2       17 UNK         0.5000 
     98 O          -5.6482  -21.5268  -54.1505 O.2       17 UNK        -0.5000 
     99 N          -6.0702  -23.2483  -55.5609 N.am      18 UNK        -0.5000 
    100 CA        -7.5207  -23.0672  -55.6830 C.3       18 UNK         0.1400 
    101 CB        -8.0979  -24.1822  -56.5670 C.3       18 UNK        -0.1800 
    102 C         -7.9328  -21.6820  -56.2187 C.2       18 UNK         0.5000 
    103 O         -8.9439  -21.1375  -55.7761 O.2       18 UNK        -0.5000 
    104 N         -7.1101  -21.1101  -57.1094 N.am      19 UNK        -0.5000 
    105 CA        -7.2703  -19.7617  -57.6623 C.3       19 UNK         0.1400 
    106 CB        -6.2693  -19.5754  -58.8127 C.3       19 UNK        -0.1800 
    107 C         -7.1042  -18.6372  -56.6181 C.2       19 UNK         0.5000 
    108 O         -7.6559  -17.5527  -56.8065 O.2       19 UNK        -0.5000 
    109 N         -6.3670  -18.9185  -55.5354 N.am      20 UNK        -0.5000 
    110 CA        -6.1667  -18.0270  -54.3914 C.3       20 UNK         0.1400 
    111 CB        -4.7042  -18.1533  -53.9346 C.3       20 UNK        -0.1800 
    112 C         -7.1280  -18.3508  -53.2284 C.2       20 UNK         0.5000 
    113 O         -7.0276  -17.7189  -52.1766 O.2       20 UNK        -0.5000 
    114 N         -8.0191  -19.3365  -53.4252 N.am      21 UNK        -0.5000 
    115 CA        -8.9353  -19.9297  -52.4448 C.3       21 UNK         0.1400 
    116 CB        -9.9421  -18.8899  -51.9094 C.3       21 UNK        -0.1800 
    117 C         -8.2122  -20.7080  -51.3225 C.2       21 UNK         0.5000 
    118 O         -8.7831  -20.9045  -50.2484 O.2       21 UNK        -0.5000 
    119 N         -6.9841  -21.1646  -51.5990 N.am      22 UNK        -0.5000 
    120 CA        -6.1633  -21.9933  -50.7032 C.3       22 UNK         0.1400 
    121 C         -6.4197  -23.5214  -50.8613 C.2       22 UNK         0.5000 
    122 N         -7.2398  -23.9702  -51.8037 N.am      22 UNK        -0.7600 
    123 O         -5.8758  -24.3179  -50.1033 O.2       22 UNK        -0.5000 
    124 C124       -4.6576  -21.6660  -50.8600 C.3       23 UNK        -0.0398 
    125 S125       -4.2276  -19.9935  -50.2814 S.3       23 UNK        -0.2404 
    126 C126       -2.5916  -19.7857  -51.0492 C.3       23 UNK        -0.0205 
    127 H127        3.5927  -16.0015  -48.3624 H         1 UNK         0.0600 
    128 H128        2.6857  -15.3578  -49.7333 H         1 UNK         0.0600 
    129 H129        4.2574  -14.6679  -49.3124 H         1 UNK         0.0600 
    130 H130        1.0213  -14.0270  -49.1211 H         1 UNK         0.3000 
    131 H131        0.5801  -13.2366  -46.4483 H         1 UNK         0.0600 
    132 H132       -0.9452  -12.4460  -48.9858 H         1 UNK         0.0800 
    133 H133       -1.4941  -12.1358  -47.3602 H         1 UNK         0.0800 
    134 H134       -0.5220  -14.6358  -49.9834 H         1 UNK         0.0800 
    135 H135       -2.2426  -14.8774  -50.1205 H         1 UNK         0.0800 
    136 H136       -2.7776  -17.0852  -50.7884 H         1 UNK         0.1150 
    137 H137       -0.4216  -20.4341  -49.5216 H         1 UNK         0.1150 
    138 H138        0.5992  -16.4925  -48.2049 H         1 UNK         0.1150 
    139 H139        1.7236  -20.0107  -48.4846 H         1 UNK         0.0800 
    140 H140        2.2242  -18.4041  -48.0173 H         1 UNK         0.0800 
    141 H141        2.7590  -20.9512  -46.6143 H         1 UNK         0.0800 
    142 H142        2.3753  -20.8148  -44.9387 H         1 UNK         0.0800 
    143 H143        1.9657  -23.0395  -46.2233 H         1 UNK         0.0600 
    144 H144        0.2907  -21.9997  -44.0915 H         1 UNK         0.3000 
    145 H145       -0.7792  -25.2911  -43.1051 H         1 UNK         0.0600 
    146 H146        0.2753  -24.6108  -40.9694 H         1 UNK         0.0600 
    147 H147        1.5135  -25.0506  -42.1345 H         1 UNK         0.0600 
    148 H148        1.2017  -23.3535  -41.7892 H         1 UNK         0.0600 
    149 H149       -1.1847  -22.7204  -41.9356 H         1 UNK         0.3000 
    150 H150       -3.9155  -21.6403  -43.8777 H         1 UNK         0.0600 
    151 H151       -5.0620  -23.3051  -42.4047 H         1 UNK         0.0600 
    152 H152       -5.1876  -21.6793  -41.7534 H         1 UNK         0.0600 
    153 H153       -4.0428  -22.8247  -41.0531 H         1 UNK         0.0600 
    154 H154       -2.9342  -20.6168  -41.4529 H         1 UNK         0.3000 
    155 H155       -1.7492  -18.4388  -41.7855 H         1 UNK         0.0600 
    156 H156        0.2835  -19.0203  -40.3981 H         1 UNK         0.0600 
    157 H157        0.5523  -20.4558  -41.3803 H         1 UNK         0.0600 
    158 H158       -0.8731  -20.3324  -40.3549 H         1 UNK         0.0600 
    159 H159        0.1130  -18.8140  -43.9282 H         1 UNK         0.3000 
    160 H160        1.9344  -17.4662  -44.3028 H         1 UNK         0.0600 
    161 H161        0.4323  -14.7950  -44.1441 H         1 UNK         0.0600 
    162 H162        0.0593  -16.1169  -45.2475 H         1 UNK         0.0600 
    163 H163        1.5836  -15.2578  -45.3967 H         1 UNK         0.0600 
    164 H164        2.7153  -14.9802  -43.1499 H         1 UNK         0.3000 
    165 H165        4.9021  -16.2708  -40.6420 H         1 UNK         0.0600 
    166 H166        5.4882  -14.9526  -43.3443 H         1 UNK         0.0600 
    167 H167        6.5051  -14.8295  -41.9090 H         1 UNK         0.0600 
    168 H168        6.2661  -16.3857  -42.6897 H         1 UNK         0.0600 
    169 H169        3.9072  -13.7346  -41.8189 H         1 UNK         0.3000 
    170 H170        1.9115  -12.9493  -39.0337 H         1 UNK         0.0600 
    171 H171        4.0917  -12.4427  -37.9388 H         1 UNK         0.0600 
    172 H172        4.7233  -11.7988  -39.4493 H         1 UNK         0.0600 
    173 H173        3.3862  -10.9905  -38.6296 H         1 UNK         0.0600 
    174 H174        3.0868  -11.4484  -41.2397 H         1 UNK         0.3000 
    175 H175        0.6864  -12.3177  -43.6308 H         1 UNK         0.0600 
    176 H176        0.6909   -9.6570  -42.1104 H         1 UNK         0.0600 
    177 H177        0.0429   -9.9318  -43.7283 H         1 UNK         0.0600 
    178 H178       -0.7132  -10.6931  -42.3390 H         1 UNK         0.0600 
    179 H179        2.4714  -10.2192  -43.8220 H         1 UNK         0.3000 
    180 H180        4.8757  -10.4196  -44.1636 H         1 UNK         0.0600 
    181 H181        5.5834  -13.1701  -45.3335 H         1 UNK         0.0600 
    182 H182        6.2165  -12.4947  -43.8355 H         1 UNK         0.0600 
    183 H183        6.6117  -11.7401  -45.3727 H         1 UNK         0.0600 
    184 H184        3.7955  -11.8560  -46.5535 H         1 UNK         0.3000 
    185 H185        2.2726   -8.9254  -47.7836 H         1 UNK         0.0600 
    186 H186        4.5166   -8.6904  -48.8597 H         1 UNK         0.0600 
    187 H187        4.6133  -10.4343  -49.0738 H         1 UNK         0.0600 
    188 H188        3.3858   -9.5014  -49.9315 H         1 UNK         0.0600 
    189 H189        2.5057  -11.6485  -48.7151 H         1 UNK         0.3000 
    190 H190       -1.3215  -21.7674  -45.9015 H         1 UNK         0.3000 
    191 H191       -2.0543  -21.7903  -48.6416 H         1 UNK         0.0600 
    192 H192       -4.3795  -21.8412  -47.7778 H         1 UNK         0.0600 
    193 H193       -3.4065  -20.6815  -46.8853 H         1 UNK         0.0600 
    194 H194       -3.8043  -22.2445  -46.1720 H         1 UNK         0.0600 
    195 H195       -2.4121  -24.3553  -46.1311 H         1 UNK         0.3000 
    196 H196       -3.4546  -26.3610  -47.8104 H         1 UNK         0.0600 
    197 H197       -2.7372  -27.8988  -45.9642 H         1 UNK         0.0600 
    198 H198       -3.5406  -26.4660  -45.3405 H         1 UNK         0.0600 
    199 H199       -1.7856  -26.6012  -45.2500 H         1 UNK         0.0600 
    200 H200       -0.0465  -25.5075  -47.1232 H         1 UNK         0.3000 
    201 H201        1.1275  -27.6876  -48.5609 H         1 UNK         0.0600 
    202 H202        2.3665  -26.3976  -46.8464 H         1 UNK         0.0600 
    203 H203        2.2724  -24.9405  -47.8335 H         1 UNK         0.0600 
    204 H204        3.2055  -26.3241  -48.3884 H         1 UNK         0.0600 
    205 H205        0.2841  -24.3274  -49.5098 H         1 UNK         0.3000 
    206 H206        1.3144  -24.4871  -52.1735 H         1 UNK         0.0600 
    207 H207        0.9900  -22.3314  -51.0394 H         1 UNK         0.0600 
    208 H208       -0.0235  -22.3689  -52.4752 H         1 UNK         0.0600 
    209 H209       -0.7388  -22.6196  -50.8843 H         1 UNK         0.0600 
    210 H210       -2.0012  -24.8075  -50.8511 H         1 UNK         0.3000 
    211 H211       -3.9141  -25.5993  -51.5648 H         1 UNK         0.0600 
    212 H212       -2.2919  -27.4673  -53.3693 H         1 UNK         0.0600 
    213 H213       -3.9411  -27.7221  -52.8133 H         1 UNK         0.0600 
    214 H214       -2.6193  -27.7372  -51.6578 H         1 UNK         0.0600 
    215 H215       -2.8446  -23.2915  -52.9870 H         1 UNK         0.3000 
    216 H216       -3.5472  -23.3807  -55.7683 H         1 UNK         0.0600 
    217 H217       -1.8218  -21.8540  -54.9262 H         1 UNK         0.0600 
    218 H218       -2.9730  -21.0525  -53.8627 H         1 UNK         0.0600 
    219 H219       -3.1342  -20.9052  -55.6075 H         1 UNK         0.0600 
    220 H220       -5.6763  -24.0507  -56.0327 H         1 UNK         0.3000 
    221 H221       -7.9494  -23.1692  -54.6846 H         1 UNK         0.0600 
    222 H222       -7.6797  -24.1551  -57.5739 H         1 UNK         0.0600 
    223 H223       -7.8927  -25.1659  -56.1442 H         1 UNK         0.0600 
    224 H224       -9.1809  -24.0884  -56.6579 H         1 UNK         0.0600 
    225 H225       -6.3000  -21.6304  -57.4128 H         1 UNK         0.3000 
    226 H226       -8.2803  -19.6831  -58.0700 H         1 UNK         0.0600 
    227 H227       -6.4271  -20.3154  -59.5975 H         1 UNK         0.0600 
    228 H228       -6.3781  -18.5910  -59.2701 H         1 UNK         0.0600 
    229 H229       -5.2385  -19.6647  -58.4674 H         1 UNK         0.0600 
    230 H230       -5.9828  -19.8499  -55.4334 H         1 UNK         0.3000 
    231 H231       -6.3441  -16.9905  -54.6847 H         1 UNK         0.0600 
    232 H232       -4.4883  -19.1603  -53.5797 H         1 UNK         0.0600 
    233 H233       -4.0133  -17.9270  -54.7467 H         1 UNK         0.0600 
    234 H234       -4.4836  -17.4646  -53.1180 H         1 UNK         0.0600 
    235 H235       -8.0351  -19.7766  -54.3368 H         1 UNK         0.3000 
    236 H236       -9.5084  -20.6765  -52.9957 H         1 UNK         0.0600 
    237 H237      -10.4259  -18.3527  -52.7251 H         1 UNK         0.0600 
    238 H238      -10.7292  -19.3723  -51.3289 H         1 UNK         0.0600 
    239 H239       -9.4642  -18.1566  -51.2595 H         1 UNK         0.0600 
    240 H240       -6.5885  -20.9956  -52.5186 H         1 UNK         0.3000 
    241 H241       -6.4367  -21.7636  -49.6717 H         1 UNK         0.0600 
    242 H242       -7.7129  -23.3265  -52.4139 H         1 UNK         0.3800 
    243 H243       -7.4089  -24.9603  -51.8824 H         1 UNK         0.3800 
    244 H244       -4.0489  -22.3657  -50.2912 H         1 UNK         0.0800 
    245 H245       -4.3520  -21.7726  -51.8991 H         1 UNK         0.0800 
    246 H246       -2.7093  -19.3830  -52.0548 H         1 UNK         0.0800 
    247 H247       -2.1134  -20.7580  -51.1632 H         1 UNK         0.0800 
@<TRIPOS>BOND
     1    1    2 1    
     2    1  127 1    
     3    1  128 1    
     4    1  129 1    
     5    2    3 2    
     6    2    4 am   BACKBONE|DICT|INTERRES
     7    4    5 1    
     8    4  130 1    
     9    5    6 1    
    10    5   65 1    
    11    5  131 1    
    12    6    7 1    
    13    6  132 1    
    14    6  133 1    
    15    7    8 1    
    16    8    9 1    
    17    8  134 1    
    18    8  135 1    
    19    9   10 ar   
    20    9   14 ar   
    21   10   11 ar   
    22   10  136 1    
    23   11   12 ar   
    24   11  126 1    
    25   12   13 ar   
    26   12  137 1    
    27   13   14 ar   
    28   13   15 1    
    29   14  138 1    
    30   15   16 1    
    31   15  139 1    
    32   15  140 1    
    33   16   17 1    
    34   17   18 1    
    35   17  141 1    
    36   17  142 1    
    37   18   19 1    
    38   18   67 1    
    39   18  143 1    
    40   19   20 am   BACKBONE|DICT|INTERRES
    41   19  144 1    
    42   20   21 2    
    43   20   22 1    
    44   22   23 1    
    45   22   24 1    
    46   22  145 1    
    47   23  146 1    
    48   23  147 1    
    49   23  148 1    
    50   24   25 am   BACKBONE|DICT|INTERRES
    51   24  149 1    
    52   25   26 2    
    53   25   27 1    
    54   27   28 1    
    55   27   29 1    
    56   27  150 1    
    57   28  151 1    
    58   28  152 1    
    59   28  153 1    
    60   29   30 am   BACKBONE|DICT|INTERRES
    61   29  154 1    
    62   30   31 2    
    63   30   32 1    
    64   32   33 1    
    65   32   34 1    
    66   32  155 1    
    67   33  156 1    
    68   33  157 1    
    69   33  158 1    
    70   34   35 am   BACKBONE|DICT|INTERRES
    71   34  159 1    
    72   35   36 2    
    73   35   37 1    
    74   37   38 1    
    75   37   39 1    
    76   37  160 1    
    77   38  161 1    
    78   38  162 1    
    79   38  163 1    
    80   39   40 am   BACKBONE|DICT|INTERRES
    81   39  164 1    
    82   40   41 2    
    83   40   42 1    
    84   42   43 1    
    85   42   44 1    
    86   42  165 1    
    87   43  166 1    
    88   43  167 1    
    89   43  168 1    
    90   44   45 am   BACKBONE|DICT|INTERRES
    91   44  169 1    
    92   45   46 2    
    93   45   47 1    
    94   47   48 1    
    95   47   49 1    
    96   47  170 1    
    97   48  171 1    
    98   48  172 1    
    99   48  173 1    
   100   49   50 am   BACKBONE|DICT|INTERRES
   101   49  174 1    
   102   50   51 2    
   103   50   52 1    
   104   52   53 1    
   105   52   54 1    
   106   52  175 1    
   107   53  176 1    
   108   53  177 1    
   109   53  178 1    
   110   54   55 am   BACKBONE|DICT|INTERRES
   111   54  179 1    
   112   55   56 2    
   113   55   57 1    
   114   57   58 1    
   115   57   59 1    
   116   57  180 1    
   117   58  181 1    
   118   58  182 1    
   119   58  183 1    
   120   59   60 am   BACKBONE|DICT|INTERRES
   121   59  184 1    
   122   60   61 2    
   123   60   62 1    
   124   62   63 1    
   125   62   64 1    
   126   62  185 1    
   127   63  186 1    
   128   63  187 1    
   129   63  188 1    
   130   64   65 am   BACKBONE|DICT|INTERRES
   131   64  189 1    
   132   65   66 2    
   133   67   68 2    
   134   67   69 am   BACKBONE|DICT|INTERRES
   135   69   70 1    
   136   69  190 1    
   137   70   71 1    
   138   70   72 1    
   139   70  191 1    
   140   71  192 1    
   141   71  193 1    
   142   71  194 1    
   143   72   73 2    
   144   72   74 am   BACKBONE|DICT|INTERRES
   145   74   75 1    
   146   74  195 1    
   147   75   76 1    
   148   75   77 1    
   149   75  196 1    
   150   76  197 1    
   151   76  198 1    
   152   76  199 1    
   153   77   78 2    
   154   77   79 am   BACKBONE|DICT|INTERRES
   155   79   80 1    
   156   79  200 1    
   157   80   81 1    
   158   80   82 1    
   159   80  201 1    
   160   81  202 1    
   161   81  203 1    
   162   81  204 1    
   163   82   83 2    
   164   82   84 am   BACKBONE|DICT|INTERRES
   165   84   85 1    
   166   84  205 1    
   167   85   86 1    
   168   85   87 1    
   169   85  206 1    
   170   86  207 1    
   171   86  208 1    
   172   86  209 1    
   173   87   88 2    
   174   87   89 am   BACKBONE|DICT|INTERRES
   175   89   90 1    
   176   89  210 1    
   177   90   91 1    
   178   90   92 1    
   179   90  211 1    
   180   91  212 1    
   181   91  213 1    
   182   91  214 1    
   183   92   93 2    
   184   92   94 am   BACKBONE|DICT|INTERRES
   185   94   95 1    
   186   94  215 1    
   187   95   96 1    
   188   95   97 1    
   189   95  216 1    
   190   96  217 1    
   191   96  218 1    
   192   96  219 1    
   193   97   98 2    
   194   97   99 am   BACKBONE|DICT|INTERRES
   195   99  100 1    
   196   99  220 1    
   197  100  101 1    
   198  100  102 1    
   199  100  221 1    
   200  101  222 1    
   201  101  223 1    
   202  101  224 1    
   203  102  103 2    
   204  102  104 am   BACKBONE|DICT|INTERRES
   205  104  105 1    
   206  104  225 1    
   207  105  106 1    
   208  105  107 1    
   209  105  226 1    
   210  106  227 1    
   211  106  228 1    
   212  106  229 1    
   213  107  108 2    
   214  107  109 am   BACKBONE|DICT|INTERRES
   215  109  110 1    
   216  109  230 1    
   217  110  111 1    
   218  110  112 1    
   219  110  231 1    
   220  111  232 1    
   221  111  233 1    
   222  111  234 1    
   223  112  113 2    
   224  112  114 am   BACKBONE|DICT|INTERRES
   225  114  115 1    
   226  114  235 1    
   227  115  116 1    
   228  115  117 1    
   229  115  236 1    
   230  116  237 1    
   231  116  238 1    
   232  116  239 1    
   233  117  118 2    
   234  117  119 am   BACKBONE|DICT|INTERRES
   235  119  120 1    
   236  119  240 1    
   237  120  121 1    
   238  120  124 1    
   239  120  241 1    
   240  121  122 am   BACKBONE|DICT|INTERRES
   241  121  123 2    
   242  122  242 1    
   243  122  243 1    
   244  124  125 1    
   245  124  244 1    
   246  124  245 1    
   247  125  126 1    
   248  126  246 1    
   249  126  247 1    
@<TRIPOS>SUBSTRUCTURE
     1 UNK         1 GROUP             0       ****    0 ROOT    
