@<TRIPOS>MOLECULE
3R540
247   249    1
SMALL
USER_CHARGES


@<TRIPOS>ATOM
      1 CA         -1.0900  -13.0460  -50.7416 C.3       0 UNK        -0.1800 
      2 C          -1.4268  -13.4489  -49.3088 C.2       0 UNK         0.5000 
      3 O          -2.5305  -13.9249  -49.0543 O.2       0 UNK        -0.5000 
      4 N          -0.5284  -13.2687  -48.3329 N.am      1 UNK        -0.5000 
      5 CA          0.8102  -12.6735  -48.4348 C.3       1 UNK         0.1400 
      6 C6          1.9320  -13.7174  -48.1891 C.3       23 UNK        -0.0398 
      7 S7          2.2075  -14.8029  -49.6280 S.3       23 UNK        -0.2404 
      8 C8          1.2257  -16.2699  -49.1928 C.3       23 UNK        -0.0205 
      9 C9          1.4783  -17.4221  -50.1548 C.ar      23 UNK        -0.0193 
     10 C10         1.1789  -17.2858  -51.5145 C.ar      23 UNK        -0.1150 
     11 C11         1.4383  -18.3286  -52.4082 C.ar      23 UNK        -0.0193 
     12 C12         1.9719  -19.5275  -51.9293 C.ar      23 UNK        -0.1150 
     13 C13         2.2603  -19.6832  -50.5704 C.ar      23 UNK        -0.0193 
     14 C14         2.0148  -18.6264  -49.6880 C.ar      23 UNK        -0.1150 
     15 C15         2.8596  -20.9871  -50.0664 C.3       23 UNK        -0.0205 
     16 S16         1.5762  -22.2306  -49.7264 S.3       23 UNK        -0.2404 
     17 C17         0.8505  -21.5904  -48.1801 C.3       23 UNK        -0.0398 
     18 CA          0.3077  -22.7219  -47.2740 C.3       11 UNK         0.1400 
     19 N           0.2158  -22.3132  -45.8703 N.am      11 UNK        -0.5000 
     20 C          -0.0737  -23.1345  -44.8507 C.2       10 UNK         0.5000 
     21 O          -0.2534  -24.3449  -44.9762 O.2       10 UNK        -0.5000 
     22 CA         -0.2428  -22.4923  -43.4627 C.3       10 UNK         0.1400 
     23 CB          1.1221  -22.2395  -42.8063 C.3       10 UNK        -0.1800 
     24 N          -1.0147  -21.2500  -43.5091 N.am      10 UNK        -0.5000 
     25 C          -2.2944  -21.1713  -43.9029 C.2       9 UNK         0.5000 
     26 O          -2.9739  -22.1476  -44.2188 O.2       9 UNK        -0.5000 
     27 CA         -2.9063  -19.7640  -44.0112 C.3       9 UNK         0.1400 
     28 CB         -3.3380  -19.2494  -42.6301 C.3       9 UNK        -0.1800 
     29 N          -2.0040  -18.7980  -44.6381 N.am      9 UNK        -0.5000 
     30 C          -1.5246  -18.8972  -45.8862 C.2       8 UNK         0.5000 
     31 O          -1.8060  -19.8136  -46.6584 O.2       8 UNK        -0.5000 
     32 CA         -0.5050  -17.8289  -46.3203 C.3       8 UNK         0.1400 
     33 CB         -1.1839  -16.4774  -46.5900 C.3       8 UNK        -0.1800 
     34 N           0.5557  -17.6463  -45.3307 N.am      8 UNK        -0.5000 
     35 C           1.4137  -18.6022  -44.9476 C.2       7 UNK         0.5000 
     36 O           1.4479  -19.7298  -45.4372 O.2       7 UNK        -0.5000 
     37 CA          2.3572  -18.2536  -43.7860 C.3       7 UNK         0.1400 
     38 CB          3.5872  -17.4882  -44.2951 C.3       7 UNK        -0.1800 
     39 N           1.6755  -17.4751  -42.7511 N.am      7 UNK        -0.5000 
     40 C           0.7219  -17.9668  -41.9458 C.2       6 UNK         0.5000 
     41 O           0.3473  -19.1387  -41.9654 O.2       6 UNK        -0.5000 
     42 CA          0.0406  -16.9698  -40.9911 C.3       6 UNK         0.1400 
     43 CB          0.8878  -16.7609  -39.7273 C.3       6 UNK        -0.1800 
     44 N          -0.2156  -15.6764  -41.6256 N.am      6 UNK        -0.5000 
     45 C          -1.0707  -15.4880  -42.6409 C.2       5 UNK         0.5000 
     46 O          -1.7722  -16.3797  -43.1153 O.2       5 UNK        -0.5000 
     47 CA         -1.1163  -14.0801  -43.2608 C.3       5 UNK         0.1400 
     48 CB         -2.1634  -13.2118  -42.5491 C.3       5 UNK        -0.1800 
     49 N           0.1780  -13.3973  -43.2325 N.am      5 UNK        -0.5000 
     50 C           1.2828  -13.8028  -43.8724 C.2       4 UNK         0.5000 
     51 O           1.3222  -14.8197  -44.5682 O.2       4 UNK        -0.5000 
     52 CA          2.5391  -12.9259  -43.6893 C.3       4 UNK         0.1400 
     53 CB          3.6845  -13.3076  -44.6418 C.3       4 UNK        -0.1800 
     54 N           2.2235  -11.5071  -43.8623 N.am      4 UNK        -0.5000 
     55 C           1.8101  -10.6854  -42.8870 C.2       3 UNK         0.5000 
     56 O           1.6726  -11.0426  -41.7167 O.2       3 UNK        -0.5000 
     57 CA          1.4475   -9.2398  -43.2797 C.3       3 UNK         0.1400 
     58 CB          2.6420   -8.3034  -43.0432 C.3       3 UNK        -0.1800 
     59 N           1.0039   -9.1051  -44.6676 N.am      3 UNK        -0.5000 
     60 C          -0.1218   -9.6272  -45.1735 C.2       2 UNK         0.5000 
     61 O          -0.9408  -10.2617  -44.5079 O.2       2 UNK        -0.5000 
     62 CA         -0.3731   -9.4288  -46.6822 C.3       2 UNK         0.1400 
     63 CB          0.4709   -8.3004  -47.3174 C.3       2 UNK        -0.1800 
     64 N          -0.2021  -10.6749  -47.4362 N.am      2 UNK        -0.5000 
     65 C           0.8883  -11.4578  -47.4845 C.2       1 UNK         0.5000 
     66 O           1.9097  -11.2420  -46.8296 O.2       1 UNK        -0.5000 
     67 C          -1.0343  -23.2747  -47.7940 C.2       11 UNK         0.5000 
     68 O          -1.0584  -24.3674  -48.3587 O.2       11 UNK        -0.5000 
     69 N          -2.1295  -22.5416  -47.5451 N.am      12 UNK        -0.5000 
     70 CA         -3.4928  -22.9398  -47.8986 C.3       12 UNK         0.1400 
     71 CB         -4.4632  -21.7911  -47.5907 C.3       12 UNK        -0.1800 
     72 C          -3.9413  -24.2440  -47.2159 C.2       12 UNK         0.5000 
     73 O          -4.5720  -25.0767  -47.8679 O.2       12 UNK        -0.5000 
     74 N          -3.5828  -24.4173  -45.9369 N.am      13 UNK        -0.5000 
     75 CA         -3.8302  -25.6368  -45.1695 C.3       13 UNK         0.1400 
     76 CB         -3.5350  -25.3827  -43.6834 C.3       13 UNK        -0.1800 
     77 C          -3.0229  -26.8388  -45.6927 C.2       13 UNK         0.5000 
     78 O          -3.5900  -27.9192  -45.8570 O.2       13 UNK        -0.5000 
     79 N          -1.7263  -26.6285  -45.9618 N.am      14 UNK        -0.5000 
     80 CA         -0.8042  -27.6465  -46.4692 C.3       14 UNK         0.1400 
     81 CB          0.6365  -27.1173  -46.4004 C.3       14 UNK        -0.1800 
     82 C          -1.1420  -28.1096  -47.8969 C.2       14 UNK         0.5000 
     83 O          -1.0975  -29.3093  -48.1728 O.2       14 UNK        -0.5000 
     84 N          -1.4852  -27.1563  -48.7728 N.am      15 UNK        -0.5000 
     85 CA         -1.8827  -27.4096  -50.1583 C.3       15 UNK         0.1400 
     86 CB         -1.7502  -26.1048  -50.9589 C.3       15 UNK        -0.1800 
     87 C          -3.3082  -27.9827  -50.2885 C.2       15 UNK         0.5000 
     88 O          -3.6127  -28.5889  -51.3164 O.2       15 UNK        -0.5000 
     89 N          -4.1389  -27.7845  -49.2519 N.am      16 UNK        -0.5000 
     90 CA         -5.5738  -28.0768  -49.1827 C.3       16 UNK         0.1400 
     91 CB         -5.8520  -29.5898  -49.3056 C.3       16 UNK        -0.1800 
     92 C          -6.3499  -27.2153  -50.1985 C.2       16 UNK         0.5000 
     93 O          -6.9959  -27.7429  -51.1065 O.2       16 UNK        -0.5000 
     94 N          -6.2221  -25.8926  -50.0201 N.am      17 UNK        -0.5000 
     95 CA         -6.6255  -24.8104  -50.9238 C.3       17 UNK         0.1400 
     96 CB         -8.1339  -24.8671  -51.2514 C.3       17 UNK        -0.1800 
     97 C          -5.7289  -24.7427  -52.1796 C.2       17 UNK         0.5000 
     98 O          -4.7010  -25.4184  -52.2411 O.2       17 UNK        -0.5000 
     99 N          -6.1031  -23.8816  -53.1384 N.am      18 UNK        -0.5000 
    100 CA        -5.3615  -23.5705  -54.3714 C.3       18 UNK         0.1400 
    101 CB        -5.3163  -24.7924  -55.3137 C.3       18 UNK        -0.1800 
    102 C         -3.9658  -22.9588  -54.1025 C.2       18 UNK         0.5000 
    103 O         -3.0170  -23.2077  -54.8485 O.2       18 UNK        -0.5000 
    104 N         -3.8810  -22.1547  -53.0386 N.am      19 UNK        -0.5000 
    105 CA        -2.7124  -21.4044  -52.5960 C.3       19 UNK         0.1400 
    106 CB        -1.8069  -22.2959  -51.7268 C.3       19 UNK        -0.1800 
    107 C         -3.2083  -20.1584  -51.8429 C.2       19 UNK         0.5000 
    108 O         -4.4223  -19.9625  -51.7249 O.2       19 UNK        -0.5000 
    109 N         -2.2712  -19.3214  -51.3775 N.am      20 UNK        -0.5000 
    110 CA        -2.4588  -18.0183  -50.7218 C.3       20 UNK         0.1400 
    111 CB        -3.3541  -18.1089  -49.4710 C.3       20 UNK        -0.1800 
    112 C         -2.9511  -16.9257  -51.6868 C.2       20 UNK         0.5000 
    113 O         -2.2803  -15.9059  -51.8388 O.2       20 UNK        -0.5000 
    114 N         -4.0753  -17.1822  -52.3705 N.am      21 UNK        -0.5000 
    115 CA        -4.7096  -16.3091  -53.3674 C.3       21 UNK         0.1400 
    116 CB        -6.0249  -16.9589  -53.8231 C.3       21 UNK        -0.1800 
    117 C         -3.8179  -15.9817  -54.5846 C.2       21 UNK         0.5000 
    118 O         -4.0506  -14.9811  -55.2638 O.2       21 UNK        -0.5000 
    119 N         -2.8006  -16.8184  -54.8120 N.am      22 UNK        -0.5000 
    120 CA        -1.6588  -16.5908  -55.7066 C.3       22 UNK         0.1400 
    121 C         -0.7446  -15.3889  -55.3175 C.2       22 UNK         0.5000 
    122 N         -0.7883  -14.8746  -54.0933 N.am      22 UNK        -0.7600 
    123 O          0.0201  -14.9114  -56.1511 O.2       22 UNK        -0.5000 
    124 C124       -0.8296  -17.8932  -55.8908 C.3       23 UNK        -0.0398 
    125 S125       -0.4851  -18.7767  -54.3241 S.3       23 UNK        -0.2404 
    126 C126        1.1624  -18.1497  -53.8919 C.3       23 UNK        -0.0205 
    127 H127       -0.2337  -13.6114  -51.1089 H         1 UNK         0.0600 
    128 H128       -0.8696  -11.9808  -50.8070 H         1 UNK         0.0600 
    129 H129       -1.9319  -13.2494  -51.4035 H         1 UNK         0.0600 
    130 H130       -0.8006  -13.5197  -47.3934 H         1 UNK         0.3000 
    131 H131        0.9739  -12.2465  -49.4244 H         1 UNK         0.0600 
    132 H132        2.8906  -13.2253  -48.0190 H         1 UNK         0.0800 
    133 H133        1.7330  -14.3090  -47.2943 H         1 UNK         0.0800 
    134 H134        0.1654  -16.0175  -49.2073 H         1 UNK         0.0800 
    135 H135        1.4740  -16.5639  -48.1725 H         1 UNK         0.0800 
    136 H136        0.7613  -16.3571  -51.8791 H         1 UNK         0.1150 
    137 H137        2.1681  -20.3391  -52.6161 H         1 UNK         0.1150 
    138 H138        2.2475  -18.7415  -48.6385 H         1 UNK         0.1150 
    139 H139        3.5424  -21.3871  -50.8175 H         1 UNK         0.0800 
    140 H140        3.4627  -20.8168  -49.1732 H         1 UNK         0.0800 
    141 H141        0.0833  -20.8499  -48.4136 H         1 UNK         0.0800 
    142 H142        1.6364  -21.0522  -47.6509 H         1 UNK         0.0800 
    143 H143        1.0261  -23.5444  -47.2980 H         1 UNK         0.0600 
    144 H144        0.3913  -21.3321  -45.6726 H         1 UNK         0.3000 
    145 H145       -0.7916  -23.1989  -42.8368 H         1 UNK         0.0600 
    146 H146        1.0064  -21.8640  -41.7895 H         1 UNK         0.0600 
    147 H147        1.7038  -23.1603  -42.7485 H         1 UNK         0.0600 
    148 H148        1.7114  -21.5134  -43.3661 H         1 UNK         0.0600 
    149 H149       -0.5353  -20.4046  -43.2150 H         1 UNK         0.3000 
    150 H150       -3.7963  -19.8384  -44.6392 H         1 UNK         0.0600 
    151 H151       -4.0211  -19.9495  -42.1475 H         1 UNK         0.0600 
    152 H152       -3.8553  -18.2933  -42.7107 H         1 UNK         0.0600 
    153 H153       -2.4838  -19.1117  -41.9666 H         1 UNK         0.0600 
    154 H154       -1.7488  -17.9892  -44.0766 H         1 UNK         0.3000 
    155 H155       -0.0394  -18.1730  -47.2454 H         1 UNK         0.0600 
    156 H156       -1.8134  -16.1613  -45.7593 H         1 UNK         0.0600 
    157 H157       -1.8164  -16.5293  -47.4742 H         1 UNK         0.0600 
    158 H158       -0.4490  -15.6924  -46.7630 H         1 UNK         0.0600 
    159 H159        0.6318  -16.7308  -44.9007 H         1 UNK         0.3000 
    160 H160        2.7011  -19.1879  -43.3373 H         1 UNK         0.0600 
    161 H161        4.2547  -17.2183  -43.4768 H         1 UNK         0.0600 
    162 H162        3.3071  -16.5748  -44.8190 H         1 UNK         0.0600 
    163 H163        4.1595  -18.0992  -44.9943 H         1 UNK         0.0600 
    164 H164        1.8884  -16.4898  -42.7097 H         1 UNK         0.3000 
    165 H165       -0.9190  -17.3973  -40.6924 H         1 UNK         0.0600 
    166 H166        0.3766  -16.1157  -39.0125 H         1 UNK         0.0600 
    167 H167        1.0804  -17.7105  -39.2261 H         1 UNK         0.0600 
    168 H168        1.8535  -16.3090  -39.9571 H         1 UNK         0.0600 
    169 H169        0.3174  -14.8870  -41.2920 H         1 UNK         0.3000 
    170 H170       -1.4134  -14.1868  -44.3058 H         1 UNK         0.0600 
    171 H171       -3.1445  -13.6883  -42.5684 H         1 UNK         0.0600 
    172 H172       -1.9016  -13.0388  -41.5045 H         1 UNK         0.0600 
    173 H173       -2.2658  -12.2411  -43.0345 H         1 UNK         0.0600 
    174 H174        0.2329  -12.5489  -42.6845 H         1 UNK         0.3000 
    175 H175        2.8970  -13.0964  -42.6719 H         1 UNK         0.0600 
    176 H176        3.3885  -13.2191  -45.6855 H         1 UNK         0.0600 
    177 H177        4.5539  -12.6686  -44.4869 H         1 UNK         0.0600 
    178 H178        4.0078  -14.3350  -44.4757 H         1 UNK         0.0600 
    179 H179        2.2347  -11.1650  -44.8184 H         1 UNK         0.3000 
    180 H180        0.6283   -8.9197  -42.6324 H         1 UNK         0.0600 
    181 H181        3.4882   -8.5619  -43.6811 H         1 UNK         0.0600 
    182 H182        2.9823   -8.3578  -42.0082 H         1 UNK         0.0600 
    183 H183        2.3754   -7.2652  -43.2418 H         1 UNK         0.0600 
    184 H184        1.6301   -8.6238  -45.2966 H         1 UNK         0.3000 
    185 H185       -1.4225   -9.1466  -46.7797 H         1 UNK         0.0600 
    186 H186        0.3320   -7.3578  -46.7862 H         1 UNK         0.0600 
    187 H187        1.5373   -8.5287  -47.3204 H         1 UNK         0.0600 
    188 H188        0.1715   -8.1298  -48.3515 H         1 UNK         0.0600 
    189 H189       -1.0079  -10.9683  -47.9700 H         1 UNK         0.3000 
    190 H190       -2.0227  -21.6399  -47.0856 H         1 UNK         0.3000 
    191 H191       -3.5193  -23.1200  -48.9737 H         1 UNK         0.0600 
    192 H192       -4.4517  -21.5275  -46.5328 H         1 UNK         0.0600 
    193 H193       -5.4866  -22.0617  -47.8531 H         1 UNK         0.0600 
    194 H194       -4.2071  -20.8980  -48.1608 H         1 UNK         0.0600 
    195 H195       -3.1177  -23.6568  -45.4493 H         1 UNK         0.3000 
    196 H196       -4.8901  -25.8824  -45.2640 H         1 UNK         0.0600 
    197 H197       -3.7246  -26.2769  -43.0884 H         1 UNK         0.0600 
    198 H198       -4.1674  -24.5881  -43.2875 H         1 UNK         0.0600 
    199 H199       -2.4963  -25.0935  -43.5214 H         1 UNK         0.0600 
    200 H200       -1.3243  -25.7152  -45.7652 H         1 UNK         0.3000 
    201 H201       -0.8751  -28.5171  -45.8138 H         1 UNK         0.0600 
    202 H202        0.9201  -26.8807  -45.3748 H         1 UNK         0.0600 
    203 H203        0.7617  -26.2138  -46.9986 H         1 UNK         0.0600 
    204 H204        1.3452  -27.8591  -46.7708 H         1 UNK         0.0600 
    205 H205       -1.4431  -26.1799  -48.4861 H         1 UNK         0.3000 
    206 H206       -1.1935  -28.1399  -50.5872 H         1 UNK         0.0600 
    207 H207       -1.9937  -26.2629  -52.0102 H         1 UNK         0.0600 
    208 H208       -2.4238  -25.3345  -50.5807 H         1 UNK         0.0600 
    209 H209       -0.7343  -25.7119  -50.9146 H         1 UNK         0.0600 
    210 H210       -3.7758  -27.2531  -48.4719 H         1 UNK         0.3000 
    211 H211       -5.9019  -27.7654  -48.1896 H         1 UNK         0.0600 
    212 H212       -5.5946  -29.9786  -50.2909 H         1 UNK         0.0600 
    213 H213       -6.9087  -29.8018  -49.1400 H         1 UNK         0.0600 
    214 H214       -5.2865  -30.1540  -48.5640 H         1 UNK         0.0600 
    215 H215       -5.6280  -25.5955  -49.2474 H         1 UNK         0.3000 
    216 H216       -6.4422  -23.8888  -50.3695 H         1 UNK         0.0600 
    217 H217       -8.4776  -23.9330  -51.6962 H         1 UNK         0.0600 
    218 H218       -8.7270  -25.0272  -50.3509 H         1 UNK         0.0600 
    219 H219       -8.3691  -25.6671  -51.9540 H         1 UNK         0.0600 
    220 H220       -6.9575  -23.3593  -53.0038 H         1 UNK         0.3000 
    221 H221       -5.9331  -22.7923  -54.8791 H         1 UNK         0.0600 
    222 H222       -4.6994  -25.5953  -54.9093 H         1 UNK         0.0600 
    223 H223       -6.3150  -25.1924  -55.4887 H         1 UNK         0.0600 
    224 H224       -4.9017  -24.5213  -56.2852 H         1 UNK         0.0600 
    225 H225       -4.7225  -21.9346  -52.5211 H         1 UNK         0.3000 
    226 H226       -2.1554  -21.0665  -53.4710 H         1 UNK         0.0600 
    227 H227       -0.9068  -21.7644  -51.4181 H         1 UNK         0.0600 
    228 H228       -2.3170  -22.6314  -50.8258 H         1 UNK         0.0600 
    229 H229       -1.4834  -23.1822  -52.2728 H         1 UNK         0.0600 
    230 H230       -1.3053  -19.5554  -51.5633 H         1 UNK         0.3000 
    231 H231       -1.4688  -17.7132  -50.3820 H         1 UNK         0.0600 
    232 H232       -2.9499  -18.8203  -48.7541 H         1 UNK         0.0600 
    233 H233       -4.3738  -18.4135  -49.7038 H         1 UNK         0.0600 
    234 H234       -3.4234  -17.1408  -48.9753 H         1 UNK         0.0600 
    235 H235       -4.5234  -18.0771  -52.1954 H         1 UNK         0.3000 
    236 H236       -4.9430  -15.3633  -52.8746 H         1 UNK         0.0600 
    237 H237       -6.5441  -16.3289  -54.5466 H         1 UNK         0.0600 
    238 H238       -5.8509  -17.9273  -54.2942 H         1 UNK         0.0600 
    239 H239       -6.7016  -17.1117  -52.9822 H         1 UNK         0.0600 
    240 H240       -2.6961  -17.6040  -54.1875 H         1 UNK         0.3000 
    241 H241       -2.0753  -16.3318  -56.6817 H         1 UNK         0.0600 
    242 H242       -1.3942  -15.2633  -53.3751 H         1 UNK         0.3800 
    243 H243       -0.1955  -14.0919  -53.8721 H         1 UNK         0.3800 
    244 H244        0.1014  -17.7079  -56.4299 H         1 UNK         0.0800 
    245 H245       -1.3938  -18.5802  -56.5228 H         1 UNK         0.0800 
    246 H246        1.9150  -18.6734  -54.4831 H         1 UNK         0.0800 
    247 H247        1.2472  -17.0950  -54.1539 H         1 UNK         0.0800 
@<TRIPOS>BOND
     1    1    2 1    
     2    1  127 1    
     3    1  128 1    
     4    1  129 1    
     5    2    3 2    
     6    2    4 am   BACKBONE|DICT|INTERRES
     7    4    5 1    
     8    4  130 1    
     9    5    6 1    
    10    5   65 1    
    11    5  131 1    
    12    6    7 1    
    13    6  132 1    
    14    6  133 1    
    15    7    8 1    
    16    8    9 1    
    17    8  134 1    
    18    8  135 1    
    19    9   10 ar   
    20    9   14 ar   
    21   10   11 ar   
    22   10  136 1    
    23   11   12 ar   
    24   11  126 1    
    25   12   13 ar   
    26   12  137 1    
    27   13   14 ar   
    28   13   15 1    
    29   14  138 1    
    30   15   16 1    
    31   15  139 1    
    32   15  140 1    
    33   16   17 1    
    34   17   18 1    
    35   17  141 1    
    36   17  142 1    
    37   18   19 1    
    38   18   67 1    
    39   18  143 1    
    40   19   20 am   BACKBONE|DICT|INTERRES
    41   19  144 1    
    42   20   21 2    
    43   20   22 1    
    44   22   23 1    
    45   22   24 1    
    46   22  145 1    
    47   23  146 1    
    48   23  147 1    
    49   23  148 1    
    50   24   25 am   BACKBONE|DICT|INTERRES
    51   24  149 1    
    52   25   26 2    
    53   25   27 1    
    54   27   28 1    
    55   27   29 1    
    56   27  150 1    
    57   28  151 1    
    58   28  152 1    
    59   28  153 1    
    60   29   30 am   BACKBONE|DICT|INTERRES
    61   29  154 1    
    62   30   31 2    
    63   30   32 1    
    64   32   33 1    
    65   32   34 1    
    66   32  155 1    
    67   33  156 1    
    68   33  157 1    
    69   33  158 1    
    70   34   35 am   BACKBONE|DICT|INTERRES
    71   34  159 1    
    72   35   36 2    
    73   35   37 1    
    74   37   38 1    
    75   37   39 1    
    76   37  160 1    
    77   38  161 1    
    78   38  162 1    
    79   38  163 1    
    80   39   40 am   BACKBONE|DICT|INTERRES
    81   39  164 1    
    82   40   41 2    
    83   40   42 1    
    84   42   43 1    
    85   42   44 1    
    86   42  165 1    
    87   43  166 1    
    88   43  167 1    
    89   43  168 1    
    90   44   45 am   BACKBONE|DICT|INTERRES
    91   44  169 1    
    92   45   46 2    
    93   45   47 1    
    94   47   48 1    
    95   47   49 1    
    96   47  170 1    
    97   48  171 1    
    98   48  172 1    
    99   48  173 1    
   100   49   50 am   BACKBONE|DICT|INTERRES
   101   49  174 1    
   102   50   51 2    
   103   50   52 1    
   104   52   53 1    
   105   52   54 1    
   106   52  175 1    
   107   53  176 1    
   108   53  177 1    
   109   53  178 1    
   110   54   55 am   BACKBONE|DICT|INTERRES
   111   54  179 1    
   112   55   56 2    
   113   55   57 1    
   114   57   58 1    
   115   57   59 1    
   116   57  180 1    
   117   58  181 1    
   118   58  182 1    
   119   58  183 1    
   120   59   60 am   BACKBONE|DICT|INTERRES
   121   59  184 1    
   122   60   61 2    
   123   60   62 1    
   124   62   63 1    
   125   62   64 1    
   126   62  185 1    
   127   63  186 1    
   128   63  187 1    
   129   63  188 1    
   130   64   65 am   BACKBONE|DICT|INTERRES
   131   64  189 1    
   132   65   66 2    
   133   67   68 2    
   134   67   69 am   BACKBONE|DICT|INTERRES
   135   69   70 1    
   136   69  190 1    
   137   70   71 1    
   138   70   72 1    
   139   70  191 1    
   140   71  192 1    
   141   71  193 1    
   142   71  194 1    
   143   72   73 2    
   144   72   74 am   BACKBONE|DICT|INTERRES
   145   74   75 1    
   146   74  195 1    
   147   75   76 1    
   148   75   77 1    
   149   75  196 1    
   150   76  197 1    
   151   76  198 1    
   152   76  199 1    
   153   77   78 2    
   154   77   79 am   BACKBONE|DICT|INTERRES
   155   79   80 1    
   156   79  200 1    
   157   80   81 1    
   158   80   82 1    
   159   80  201 1    
   160   81  202 1    
   161   81  203 1    
   162   81  204 1    
   163   82   83 2    
   164   82   84 am   BACKBONE|DICT|INTERRES
   165   84   85 1    
   166   84  205 1    
   167   85   86 1    
   168   85   87 1    
   169   85  206 1    
   170   86  207 1    
   171   86  208 1    
   172   86  209 1    
   173   87   88 2    
   174   87   89 am   BACKBONE|DICT|INTERRES
   175   89   90 1    
   176   89  210 1    
   177   90   91 1    
   178   90   92 1    
   179   90  211 1    
   180   91  212 1    
   181   91  213 1    
   182   91  214 1    
   183   92   93 2    
   184   92   94 am   BACKBONE|DICT|INTERRES
   185   94   95 1    
   186   94  215 1    
   187   95   96 1    
   188   95   97 1    
   189   95  216 1    
   190   96  217 1    
   191   96  218 1    
   192   96  219 1    
   193   97   98 2    
   194   97   99 am   BACKBONE|DICT|INTERRES
   195   99  100 1    
   196   99  220 1    
   197  100  101 1    
   198  100  102 1    
   199  100  221 1    
   200  101  222 1    
   201  101  223 1    
   202  101  224 1    
   203  102  103 2    
   204  102  104 am   BACKBONE|DICT|INTERRES
   205  104  105 1    
   206  104  225 1    
   207  105  106 1    
   208  105  107 1    
   209  105  226 1    
   210  106  227 1    
   211  106  228 1    
   212  106  229 1    
   213  107  108 2    
   214  107  109 am   BACKBONE|DICT|INTERRES
   215  109  110 1    
   216  109  230 1    
   217  110  111 1    
   218  110  112 1    
   219  110  231 1    
   220  111  232 1    
   221  111  233 1    
   222  111  234 1    
   223  112  113 2    
   224  112  114 am   BACKBONE|DICT|INTERRES
   225  114  115 1    
   226  114  235 1    
   227  115  116 1    
   228  115  117 1    
   229  115  236 1    
   230  116  237 1    
   231  116  238 1    
   232  116  239 1    
   233  117  118 2    
   234  117  119 am   BACKBONE|DICT|INTERRES
   235  119  120 1    
   236  119  240 1    
   237  120  121 1    
   238  120  124 1    
   239  120  241 1    
   240  121  122 am   BACKBONE|DICT|INTERRES
   241  121  123 2    
   242  122  242 1    
   243  122  243 1    
   244  124  125 1    
   245  124  244 1    
   246  124  245 1    
   247  125  126 1    
   248  126  246 1    
   249  126  247 1    
@<TRIPOS>SUBSTRUCTURE
     1 UNK         1 GROUP             0       ****    0 ROOT    
