@<TRIPOS>MOLECULE
3R540
247   249    1
SMALL
USER_CHARGES


@<TRIPOS>ATOM
      1 CA         -0.9794  -11.0485  -51.4115 C.3       0 UNK        -0.1800 
      2 C          -0.4870  -11.5801  -50.0734 C.2       0 UNK         0.5000 
      3 O          -0.9009  -11.0875  -49.0235 O.2       0 UNK        -0.5000 
      4 N           0.3790  -12.6020  -50.1016 N.am      1 UNK        -0.5000 
      5 CA          0.9730  -13.2447  -48.9208 C.3       1 UNK         0.1400 
      6 C6          2.2333  -14.0804  -49.2657 C.3       23 UNK        -0.0398 
      7 S7          2.0422  -15.2704  -50.6397 S.3       23 UNK        -0.2404 
      8 C8          1.1100  -16.6166  -49.8438 C.3       23 UNK        -0.0205 
      9 C9          1.4085  -17.9651  -50.4764 C.ar      23 UNK        -0.0193 
     10 C10         1.0638  -18.2274  -51.8049 C.ar      23 UNK        -0.1150 
     11 C11         1.3587  -19.4654  -52.3823 C.ar      23 UNK        -0.0193 
     12 C12         1.9800  -20.4525  -51.6107 C.ar      23 UNK        -0.1150 
     13 C13         2.3058  -20.2157  -50.2710 C.ar      23 UNK        -0.0193 
     14 C14         2.0318  -18.9586  -49.7204 C.ar      23 UNK        -0.1150 
     15 C15         2.9812  -21.3196  -49.4566 C.3       23 UNK        -0.0205 
     16 S16         2.6738  -21.2381  -47.6560 S.3       23 UNK        -0.2404 
     17 C17         0.8882  -21.6049  -47.5647 C.3       23 UNK        -0.0398 
     18 CA          0.6280  -22.8780  -46.7309 C.3       11 UNK         0.1400 
     19 N           0.9275  -22.6866  -45.3099 N.am      11 UNK        -0.5000 
     20 C           1.0881  -23.6883  -44.4355 C.2       10 UNK         0.5000 
     21 O           1.0681  -24.8782  -44.7500 O.2       10 UNK        -0.5000 
     22 CA          1.2521  -23.2969  -42.9553 C.3       10 UNK         0.1400 
     23 CB          2.7071  -22.9151  -42.6448 C.3       10 UNK        -0.1800 
     24 N           0.3635  -22.2016  -42.5650 N.am      10 UNK        -0.5000 
     25 C          -0.9753  -22.2733  -42.5650 C.2       9 UNK         0.5000 
     26 O          -1.6055  -23.2952  -42.8399 O.2       9 UNK        -0.5000 
     27 CA         -1.7365  -20.9710  -42.2553 C.3       9 UNK         0.1400 
     28 CB         -1.8261  -20.7283  -40.7413 C.3       9 UNK        -0.1800 
     29 N          -1.1376  -19.8065  -42.9118 N.am      9 UNK        -0.5000 
     30 C          -1.1299  -19.6103  -44.2385 C.2       8 UNK         0.5000 
     31 O          -1.6491  -20.3787  -45.0424 O.2       8 UNK        -0.5000 
     32 CA         -0.3852  -18.3744  -44.7680 C.3       8 UNK         0.1400 
     33 CB         -1.3295  -17.1695  -44.8396 C.3       8 UNK        -0.1800 
     34 N           0.7920  -18.0419  -43.9675 N.am      8 UNK        -0.5000 
     35 C           1.8817  -18.8208  -43.9020 C.2       7 UNK         0.5000 
     36 O           1.9965  -19.8841  -44.5125 O.2       7 UNK        -0.5000 
     37 CA          3.0011  -18.3677  -42.9504 C.3       7 UNK         0.1400 
     38 CB          3.7688  -17.1719  -43.5329 C.3       7 UNK        -0.1800 
     39 N           2.5032  -18.0230  -41.6193 N.am      7 UNK        -0.5000 
     40 C           1.8805  -18.8574  -40.7783 C.2       6 UNK         0.5000 
     41 O           1.6495  -20.0371  -41.0425 O.2       6 UNK        -0.5000 
     42 CA          1.3994  -18.2813  -39.4308 C.3       6 UNK         0.1400 
     43 CB          2.5411  -18.2462  -38.3974 C.3       6 UNK        -0.1800 
     44 N           0.7169  -16.9829  -39.5387 N.am      6 UNK        -0.5000 
     45 C           1.2243  -15.7940  -39.8915 C.2       5 UNK         0.5000 
     46 O           2.4169  -15.5914  -40.1344 O.2       5 UNK        -0.5000 
     47 CA          0.2135  -14.6391  -40.0209 C.3       5 UNK         0.1400 
     48 CB          0.2389  -13.7569  -38.7636 C.3       5 UNK        -0.1800 
     49 N           0.4657  -13.8048  -41.1976 N.am      5 UNK        -0.5000 
     50 C           0.4862  -14.2408  -42.4640 C.2       4 UNK         0.5000 
     51 O           0.2841  -15.4123  -42.7912 O.2       4 UNK        -0.5000 
     52 CA          0.7954  -13.1914  -43.5455 C.3       4 UNK         0.1400 
     53 CB          2.0220  -13.6028  -44.3752 C.3       4 UNK        -0.1800 
     54 N          -0.3512  -12.9791  -44.4312 N.am      4 UNK        -0.5000 
     55 C          -1.4585  -12.3053  -44.0801 C.2       3 UNK         0.5000 
     56 O          -1.6220  -11.8246  -42.9575 O.2       3 UNK        -0.5000 
     57 CA         -2.5564  -12.0801  -45.1434 C.3       3 UNK         0.1400 
     58 CB         -2.6056  -10.5996  -45.5546 C.3       3 UNK        -0.1800 
     59 N          -2.3772  -12.8823  -46.3515 N.am      3 UNK        -0.5000 
     60 C          -2.7743  -14.1533  -46.4976 C.2       2 UNK         0.5000 
     61 O          -3.4219  -14.7636  -45.6477 O.2       2 UNK        -0.5000 
     62 CA         -2.3704  -14.8721  -47.8058 C.3       2 UNK         0.1400 
     63 CB         -3.5778  -15.0093  -48.7469 C.3       2 UNK        -0.1800 
     64 N          -1.2735  -14.2215  -48.5318 N.am      2 UNK        -0.5000 
     65 C          -0.0301  -14.0458  -48.0600 C.2       1 UNK         0.5000 
     66 O           0.3307  -14.4703  -46.9645 O.2       1 UNK        -0.5000 
     67 C          -0.7986  -23.4211  -46.9467 C.2       11 UNK         0.5000 
     68 O          -0.9754  -24.3071  -47.7815 O.2       11 UNK        -0.5000 
     69 N          -1.7868  -22.9345  -46.1809 N.am      12 UNK        -0.5000 
     70 CA         -3.1827  -23.3786  -46.2490 C.3       12 UNK         0.1400 
     71 CB         -4.0712  -22.4801  -45.3775 C.3       12 UNK        -0.1800 
     72 C          -3.3632  -24.8571  -45.8653 C.2       12 UNK         0.5000 
     73 O          -4.1947  -25.5381  -46.4647 O.2       12 UNK        -0.5000 
     74 N          -2.5335  -25.3517  -44.9358 N.am      13 UNK        -0.5000 
     75 CA         -2.4332  -26.7696  -44.5781 C.3       13 UNK         0.1400 
     76 CB         -1.5527  -26.9132  -43.3278 C.3       13 UNK        -0.1800 
     77 C          -1.9076  -27.6604  -45.7269 C.2       13 UNK         0.5000 
     78 O          -2.1906  -28.8587  -45.7365 O.2       13 UNK        -0.5000 
     79 N          -1.1862  -27.0608  -46.6841 N.am      14 UNK        -0.5000 
     80 CA         -0.7214  -27.6812  -47.9263 C.3       14 UNK         0.1400 
     81 CB          0.7363  -27.2524  -48.1711 C.3       14 UNK        -0.1800 
     82 C          -1.6217  -27.3191  -49.1301 C.2       14 UNK         0.5000 
     83 O          -1.2785  -27.6677  -50.2605 O.2       14 UNK        -0.5000 
     84 N          -2.7503  -26.6381  -48.8730 N.am      15 UNK        -0.5000 
     85 CA         -3.7583  -26.1663  -49.8267 C.3       15 UNK         0.1400 
     86 CB         -4.4765  -27.3562  -50.4980 C.3       15 UNK        -0.1800 
     87 C          -3.2245  -25.1265  -50.8365 C.2       15 UNK         0.5000 
     88 O          -3.5976  -25.1671  -52.0101 O.2       15 UNK        -0.5000 
     89 N          -2.3774  -24.2039  -50.3644 N.am      16 UNK        -0.5000 
     90 CA         -1.8391  -23.0834  -51.1334 C.3       16 UNK         0.1400 
     91 CB         -0.3242  -23.2826  -51.2802 C.3       16 UNK        -0.1800 
     92 C          -2.1575  -21.7605  -50.4145 C.2       16 UNK         0.5000 
     93 O          -2.1845  -21.7260  -49.1854 O.2       16 UNK        -0.5000 
     94 N          -2.3814  -20.6919  -51.1845 N.am      17 UNK        -0.5000 
     95 CA         -2.7008  -19.3425  -50.7215 C.3       17 UNK         0.1400 
     96 CB         -4.0366  -19.3083  -49.9522 C.3       17 UNK        -0.1800 
     97 C          -2.7907  -18.4314  -51.9503 C.2       17 UNK         0.5000 
     98 O          -3.3486  -18.8523  -52.9689 O.2       17 UNK        -0.5000 
     99 N          -2.2560  -17.2085  -51.8330 N.am      18 UNK        -0.5000 
    100 CA        -2.1987  -16.1967  -52.8917 C.3       18 UNK         0.1400 
    101 CB        -1.5225  -14.9266  -52.3522 C.3       18 UNK        -0.1800 
    102 C         -3.5892  -15.8657  -53.4578 C.2       18 UNK         0.5000 
    103 O         -4.4676  -15.4540  -52.6974 O.2       18 UNK        -0.5000 
    104 N         -3.7642  -16.1008  -54.7657 N.am      19 UNK        -0.5000 
    105 CA        -4.9858  -15.9762  -55.5747 C.3       19 UNK         0.1400 
    106 CB        -5.5049  -14.5259  -55.5889 C.3       19 UNK        -0.1800 
    107 C         -6.1122  -16.9644  -55.2040 C.2       19 UNK         0.5000 
    108 O         -6.7554  -17.5054  -56.1035 O.2       19 UNK        -0.5000 
    109 N         -6.3235  -17.1924  -53.9026 N.am      20 UNK        -0.5000 
    110 CA        -7.3557  -18.0536  -53.3279 C.3       20 UNK         0.1400 
    111 CB        -7.3636  -17.8668  -51.8034 C.3       20 UNK        -0.1800 
    112 C         -7.2065  -19.5423  -53.6917 C.2       20 UNK         0.5000 
    113 O         -8.2216  -20.2263  -53.8324 O.2       20 UNK        -0.5000 
    114 N         -5.9622  -20.0120  -53.8475 N.am      21 UNK        -0.5000 
    115 CA        -5.6456  -21.3788  -54.2642 C.3       21 UNK         0.1400 
    116 CB        -5.2917  -22.2274  -53.0347 C.3       21 UNK        -0.1800 
    117 C         -4.5244  -21.4124  -55.3147 C.2       21 UNK         0.5000 
    118 O         -4.5728  -22.2518  -56.2145 O.2       21 UNK        -0.5000 
    119 N         -3.5539  -20.4949  -55.2116 N.am      22 UNK        -0.5000 
    120 CA        -2.4427  -20.3410  -56.1668 C.3       22 UNK         0.1400 
    121 C         -2.8328  -19.6288  -57.4976 C.2       22 UNK         0.5000 
    122 N         -4.0443  -19.1076  -57.6530 N.am      22 UNK        -0.7600 
    123 O         -2.0186  -19.5515  -58.4135 O.2       22 UNK        -0.5000 
    124 C124       -1.2158  -19.6493  -55.5181 C.3       23 UNK        -0.0398 
    125 S125       -0.5787  -20.5303  -54.0531 S.3       23 UNK        -0.2404 
    126 C126        1.0366  -19.7187  -53.8472 C.3       23 UNK        -0.0205 
    127 H127       -2.0622  -11.1524  -51.4804 H         1 UNK         0.0600 
    128 H128       -0.5325  -11.5841  -52.2494 H         1 UNK         0.0600 
    129 H129       -0.7296   -9.9922  -51.5101 H         1 UNK         0.0600 
    130 H130        0.6842  -12.9740  -50.9904 H         1 UNK         0.3000 
    131 H131        1.3123  -12.4371  -48.2682 H         1 UNK         0.0600 
    132 H132        3.0304  -13.3956  -49.5579 H         1 UNK         0.0800 
    133 H133        2.6206  -14.5998  -48.3869 H         1 UNK         0.0800 
    134 H134        1.3432  -16.6428  -48.7779 H         1 UNK         0.0800 
    135 H135        0.0423  -16.4139  -49.9198 H         1 UNK         0.0800 
    136 H136        0.5889  -17.4579  -52.3963 H         1 UNK         0.1150 
    137 H137        2.2144  -21.4080  -52.0585 H         1 UNK         0.1150 
    138 H138        2.3030  -18.7452  -48.6968 H         1 UNK         0.1150 
    139 H139        2.6661  -22.2998  -49.8181 H         1 UNK         0.0800 
    140 H140        4.0568  -21.2586  -49.6256 H         1 UNK         0.0800 
    141 H141        0.4980  -21.7156  -48.5769 H         1 UNK         0.0800 
    142 H142        0.3693  -20.7468  -47.1352 H         1 UNK         0.0800 
    143 H143        1.3016  -23.6533  -47.1042 H         1 UNK         0.0600 
    144 H144        1.0225  -21.7306  -44.9856 H         1 UNK         0.3000 
    145 H145        0.9927  -24.1687  -42.3511 H         1 UNK         0.0600 
    146 H146        2.8402  -22.7022  -41.5839 H         1 UNK         0.0600 
    147 H147        3.3875  -23.7276  -42.9026 H         1 UNK         0.0600 
    148 H148        3.0215  -22.0331  -43.2034 H         1 UNK         0.0600 
    149 H149        0.8086  -21.3354  -42.2770 H         1 UNK         0.3000 
    150 H150       -2.7538  -21.0817  -42.6358 H         1 UNK         0.0600 
    151 H151       -2.3310  -21.5588  -40.2462 H         1 UNK         0.0600 
    152 H152       -2.3934  -19.8246  -40.5184 H         1 UNK         0.0600 
    153 H153       -0.8415  -20.6293  -40.2855 H         1 UNK         0.0600 
    154 H154       -0.6545  -19.1435  -42.3252 H         1 UNK         0.3000 
    155 H155       -0.0487  -18.5972  -45.7829 H         1 UNK         0.0600 
    156 H156       -1.7213  -16.9025  -43.8575 H         1 UNK         0.0600 
    157 H157       -0.8203  -16.2951  -45.2445 H         1 UNK         0.0600 
    158 H158       -2.1827  -17.3811  -45.4850 H         1 UNK         0.0600 
    159 H159        0.7542  -17.1710  -43.4431 H         1 UNK         0.3000 
    160 H160        3.6985  -19.2007  -42.8397 H         1 UNK         0.0600 
    161 H161        4.6298  -16.9181  -42.9144 H         1 UNK         0.0600 
    162 H162        3.1368  -16.2866  -43.6039 H         1 UNK         0.0600 
    163 H163        4.1403  -17.3941  -44.5341 H         1 UNK         0.0600 
    164 H164        2.6341  -17.0644  -41.3083 H         1 UNK         0.3000 
    165 H165        0.6463  -18.9734  -39.0511 H         1 UNK         0.0600 
    166 H166        2.1872  -17.8867  -37.4311 H         1 UNK         0.0600 
    167 H167        2.9521  -19.2445  -38.2421 H         1 UNK         0.0600 
    168 H168        3.3637  -17.6046  -38.7137 H         1 UNK         0.0600 
    169 H169       -0.2798  -17.0268  -39.3777 H         1 UNK         0.3000 
    170 H170       -0.7887  -15.0589  -40.1291 H         1 UNK         0.0600 
    171 H171        0.0292  -14.3449  -37.8690 H         1 UNK         0.0600 
    172 H172        1.2120  -13.2839  -38.6245 H         1 UNK         0.0600 
    173 H173       -0.5134  -12.9697  -38.8174 H         1 UNK         0.0600 
    174 H174        0.6481  -12.8283  -41.0188 H         1 UNK         0.3000 
    175 H175        1.0323  -12.2412  -43.0619 H         1 UNK         0.0600 
    176 H176        2.2413  -12.8685  -45.1504 H         1 UNK         0.0600 
    177 H177        1.8770  -14.5686  -44.8601 H         1 UNK         0.0600 
    178 H178        2.9072  -13.6856  -43.7435 H         1 UNK         0.0600 
    179 H179       -0.2941  -13.4115  -45.3466 H         1 UNK         0.3000 
    180 H180       -3.5131  -12.3351  -44.6828 H         1 UNK         0.0600 
    181 H181       -1.6748  -10.2829  -46.0274 H         1 UNK         0.0600 
    182 H182       -2.7716   -9.9557  -44.6899 H         1 UNK         0.0600 
    183 H183       -3.4180  -10.4125  -46.2572 H         1 UNK         0.0600 
    184 H184       -1.8679  -12.4471  -47.1091 H         1 UNK         0.3000 
    185 H185       -2.0366  -15.8748  -47.5328 H         1 UNK         0.0600 
    186 H186       -3.9316  -14.0368  -49.0911 H         1 UNK         0.0600 
    187 H187       -3.3341  -15.6073  -49.6244 H         1 UNK         0.0600 
    188 H188       -4.4113  -15.5027  -48.2452 H         1 UNK         0.0600 
    189 H189       -1.5009  -13.8080  -49.4234 H         1 UNK         0.3000 
    190 H190       -1.5990  -22.1390  -45.5758 H         1 UNK         0.3000 
    191 H191       -3.5107  -23.2693  -47.2847 H         1 UNK         0.0600 
    192 H192       -4.0323  -21.4439  -45.7132 H         1 UNK         0.0600 
    193 H193       -5.1140  -22.7959  -45.4270 H         1 UNK         0.0600 
    194 H194       -3.7693  -22.5088  -44.3310 H         1 UNK         0.0600 
    195 H195       -1.9130  -24.7111  -44.4532 H         1 UNK         0.3000 
    196 H196       -3.4364  -27.1202  -44.3276 H         1 UNK         0.0600 
    197 H197       -1.5139  -27.9512  -42.9952 H         1 UNK         0.0600 
    198 H198       -1.9421  -26.3201  -42.5000 H         1 UNK         0.0600 
    199 H199       -0.5287  -26.5919  -43.5169 H         1 UNK         0.0600 
    200 H200       -1.0205  -26.0635  -46.6149 H         1 UNK         0.3000 
    201 H201       -0.7395  -28.7683  -47.8293 H         1 UNK         0.0600 
    202 H202        1.3685  -27.5019  -47.3189 H         1 UNK         0.0600 
    203 H203        0.8195  -26.1796  -48.3457 H         1 UNK         0.0600 
    204 H204        1.1533  -27.7586  -49.0425 H         1 UNK         0.0600 
    205 H205       -2.9417  -26.3978  -47.9080 H         1 UNK         0.3000 
    206 H206       -4.5040  -25.6375  -49.2318 H         1 UNK         0.0600 
    207 H207       -4.8636  -28.0530  -49.7545 H         1 UNK         0.0600 
    208 H208       -5.3246  -27.0157  -51.0931 H         1 UNK         0.0600 
    209 H209       -3.8126  -27.9088  -51.1632 H         1 UNK         0.0600 
    210 H210       -2.0960  -24.2288  -49.3875 H         1 UNK         0.3000 
    211 H211       -2.2825  -23.0463  -52.1305 H         1 UNK         0.0600 
    212 H212        0.1785  -23.3033  -50.3132 H         1 UNK         0.0600 
    213 H213        0.1143  -22.4803  -51.8699 H         1 UNK         0.0600 
    214 H214       -0.1000  -24.2189  -51.7914 H         1 UNK         0.0600 
    215 H215       -2.2971  -20.7698  -52.1906 H         1 UNK         0.3000 
    216 H216       -1.8922  -18.9970  -50.0742 H         1 UNK         0.0600 
    217 H217       -4.3402  -18.2832  -49.7357 H         1 UNK         0.0600 
    218 H218       -3.9648  -19.8248  -48.9954 H         1 UNK         0.0600 
    219 H219       -4.8375  -19.7773  -50.5250 H         1 UNK         0.0600 
    220 H220       -1.8590  -16.9410  -50.9469 H         1 UNK         0.3000 
    221 H221       -1.5750  -16.5977  -53.6929 H         1 UNK         0.0600 
    222 H222       -2.0666  -14.5064  -51.5063 H         1 UNK         0.0600 
    223 H223       -0.5023  -15.1293  -52.0341 H         1 UNK         0.0600 
    224 H224       -1.4706  -14.1554  -53.1219 H         1 UNK         0.0600 
    225 H225       -2.9729  -16.4646  -55.2766 H         1 UNK         0.3000 
    226 H226       -4.6848  -16.2221  -56.5944 H         1 UNK         0.0600 
    227 H227       -4.7287  -13.8326  -55.9126 H         1 UNK         0.0600 
    228 H228       -6.3428  -14.4210  -56.2793 H         1 UNK         0.0600 
    229 H229       -5.8530  -14.2057  -54.6066 H         1 UNK         0.0600 
    230 H230       -5.7420  -16.6742  -53.2487 H         1 UNK         0.3000 
    231 H231       -8.3190  -17.7182  -53.7175 H         1 UNK         0.0600 
    232 H232       -6.3978  -18.1176  -51.3653 H         1 UNK         0.0600 
    233 H233       -8.1158  -18.5009  -51.3324 H         1 UNK         0.0600 
    234 H234       -7.5931  -16.8355  -51.5347 H         1 UNK         0.0600 
    235 H235       -5.1805  -19.3880  -53.6827 H         1 UNK         0.3000 
    236 H236       -6.5172  -21.8307  -54.7427 H         1 UNK         0.0600 
    237 H237       -6.1387  -22.3052  -52.3531 H         1 UNK         0.0600 
    238 H238       -5.0128  -23.2405  -53.3256 H         1 UNK         0.0600 
    239 H239       -4.4590  -21.7991  -52.4819 H         1 UNK         0.0600 
    240 H240       -3.5371  -19.8598  -54.4175 H         1 UNK         0.3000 
    241 H241       -2.1228  -21.3431  -56.4590 H         1 UNK         0.0600 
    242 H242       -4.7400  -19.1906  -56.9295 H         1 UNK         0.3800 
    243 H243       -4.2808  -18.6636  -58.5262 H         1 UNK         0.3800 
    244 H244       -0.4013  -19.5717  -56.2407 H         1 UNK         0.0800 
    245 H245       -1.4668  -18.6296  -55.2236 H         1 UNK         0.0800 
    246 H246        1.0544  -18.7726  -54.3904 H         1 UNK         0.0800 
    247 H247        1.8092  -20.3419  -54.2997 H         1 UNK         0.0800 
@<TRIPOS>BOND
     1    1    2 1    
     2    1  127 1    
     3    1  128 1    
     4    1  129 1    
     5    2    3 2    
     6    2    4 am   BACKBONE|DICT|INTERRES
     7    4    5 1    
     8    4  130 1    
     9    5    6 1    
    10    5   65 1    
    11    5  131 1    
    12    6    7 1    
    13    6  132 1    
    14    6  133 1    
    15    7    8 1    
    16    8    9 1    
    17    8  134 1    
    18    8  135 1    
    19    9   10 ar   
    20    9   14 ar   
    21   10   11 ar   
    22   10  136 1    
    23   11   12 ar   
    24   11  126 1    
    25   12   13 ar   
    26   12  137 1    
    27   13   14 ar   
    28   13   15 1    
    29   14  138 1    
    30   15   16 1    
    31   15  139 1    
    32   15  140 1    
    33   16   17 1    
    34   17   18 1    
    35   17  141 1    
    36   17  142 1    
    37   18   19 1    
    38   18   67 1    
    39   18  143 1    
    40   19   20 am   BACKBONE|DICT|INTERRES
    41   19  144 1    
    42   20   21 2    
    43   20   22 1    
    44   22   23 1    
    45   22   24 1    
    46   22  145 1    
    47   23  146 1    
    48   23  147 1    
    49   23  148 1    
    50   24   25 am   BACKBONE|DICT|INTERRES
    51   24  149 1    
    52   25   26 2    
    53   25   27 1    
    54   27   28 1    
    55   27   29 1    
    56   27  150 1    
    57   28  151 1    
    58   28  152 1    
    59   28  153 1    
    60   29   30 am   BACKBONE|DICT|INTERRES
    61   29  154 1    
    62   30   31 2    
    63   30   32 1    
    64   32   33 1    
    65   32   34 1    
    66   32  155 1    
    67   33  156 1    
    68   33  157 1    
    69   33  158 1    
    70   34   35 am   BACKBONE|DICT|INTERRES
    71   34  159 1    
    72   35   36 2    
    73   35   37 1    
    74   37   38 1    
    75   37   39 1    
    76   37  160 1    
    77   38  161 1    
    78   38  162 1    
    79   38  163 1    
    80   39   40 am   BACKBONE|DICT|INTERRES
    81   39  164 1    
    82   40   41 2    
    83   40   42 1    
    84   42   43 1    
    85   42   44 1    
    86   42  165 1    
    87   43  166 1    
    88   43  167 1    
    89   43  168 1    
    90   44   45 am   BACKBONE|DICT|INTERRES
    91   44  169 1    
    92   45   46 2    
    93   45   47 1    
    94   47   48 1    
    95   47   49 1    
    96   47  170 1    
    97   48  171 1    
    98   48  172 1    
    99   48  173 1    
   100   49   50 am   BACKBONE|DICT|INTERRES
   101   49  174 1    
   102   50   51 2    
   103   50   52 1    
   104   52   53 1    
   105   52   54 1    
   106   52  175 1    
   107   53  176 1    
   108   53  177 1    
   109   53  178 1    
   110   54   55 am   BACKBONE|DICT|INTERRES
   111   54  179 1    
   112   55   56 2    
   113   55   57 1    
   114   57   58 1    
   115   57   59 1    
   116   57  180 1    
   117   58  181 1    
   118   58  182 1    
   119   58  183 1    
   120   59   60 am   BACKBONE|DICT|INTERRES
   121   59  184 1    
   122   60   61 2    
   123   60   62 1    
   124   62   63 1    
   125   62   64 1    
   126   62  185 1    
   127   63  186 1    
   128   63  187 1    
   129   63  188 1    
   130   64   65 am   BACKBONE|DICT|INTERRES
   131   64  189 1    
   132   65   66 2    
   133   67   68 2    
   134   67   69 am   BACKBONE|DICT|INTERRES
   135   69   70 1    
   136   69  190 1    
   137   70   71 1    
   138   70   72 1    
   139   70  191 1    
   140   71  192 1    
   141   71  193 1    
   142   71  194 1    
   143   72   73 2    
   144   72   74 am   BACKBONE|DICT|INTERRES
   145   74   75 1    
   146   74  195 1    
   147   75   76 1    
   148   75   77 1    
   149   75  196 1    
   150   76  197 1    
   151   76  198 1    
   152   76  199 1    
   153   77   78 2    
   154   77   79 am   BACKBONE|DICT|INTERRES
   155   79   80 1    
   156   79  200 1    
   157   80   81 1    
   158   80   82 1    
   159   80  201 1    
   160   81  202 1    
   161   81  203 1    
   162   81  204 1    
   163   82   83 2    
   164   82   84 am   BACKBONE|DICT|INTERRES
   165   84   85 1    
   166   84  205 1    
   167   85   86 1    
   168   85   87 1    
   169   85  206 1    
   170   86  207 1    
   171   86  208 1    
   172   86  209 1    
   173   87   88 2    
   174   87   89 am   BACKBONE|DICT|INTERRES
   175   89   90 1    
   176   89  210 1    
   177   90   91 1    
   178   90   92 1    
   179   90  211 1    
   180   91  212 1    
   181   91  213 1    
   182   91  214 1    
   183   92   93 2    
   184   92   94 am   BACKBONE|DICT|INTERRES
   185   94   95 1    
   186   94  215 1    
   187   95   96 1    
   188   95   97 1    
   189   95  216 1    
   190   96  217 1    
   191   96  218 1    
   192   96  219 1    
   193   97   98 2    
   194   97   99 am   BACKBONE|DICT|INTERRES
   195   99  100 1    
   196   99  220 1    
   197  100  101 1    
   198  100  102 1    
   199  100  221 1    
   200  101  222 1    
   201  101  223 1    
   202  101  224 1    
   203  102  103 2    
   204  102  104 am   BACKBONE|DICT|INTERRES
   205  104  105 1    
   206  104  225 1    
   207  105  106 1    
   208  105  107 1    
   209  105  226 1    
   210  106  227 1    
   211  106  228 1    
   212  106  229 1    
   213  107  108 2    
   214  107  109 am   BACKBONE|DICT|INTERRES
   215  109  110 1    
   216  109  230 1    
   217  110  111 1    
   218  110  112 1    
   219  110  231 1    
   220  111  232 1    
   221  111  233 1    
   222  111  234 1    
   223  112  113 2    
   224  112  114 am   BACKBONE|DICT|INTERRES
   225  114  115 1    
   226  114  235 1    
   227  115  116 1    
   228  115  117 1    
   229  115  236 1    
   230  116  237 1    
   231  116  238 1    
   232  116  239 1    
   233  117  118 2    
   234  117  119 am   BACKBONE|DICT|INTERRES
   235  119  120 1    
   236  119  240 1    
   237  120  121 1    
   238  120  124 1    
   239  120  241 1    
   240  121  122 am   BACKBONE|DICT|INTERRES
   241  121  123 2    
   242  122  242 1    
   243  122  243 1    
   244  124  125 1    
   245  124  244 1    
   246  124  245 1    
   247  125  126 1    
   248  126  246 1    
   249  126  247 1    
@<TRIPOS>SUBSTRUCTURE
     1 UNK         1 GROUP             0       ****    0 ROOT    
