@<TRIPOS>MOLECULE
3R540
247   249    1
SMALL
USER_CHARGES


@<TRIPOS>ATOM
      1 CA          0.0096   -9.7616  -45.3074 C.3       0 UNK        -0.1800 
      2 C           0.8319  -10.4515  -46.3854 C.2       0 UNK         0.5000 
      3 O           1.7215   -9.8335  -46.9703 O.2       0 UNK        -0.5000 
      4 N           0.5323  -11.7313  -46.6426 N.am      1 UNK        -0.5000 
      5 CA          1.1315  -12.5740  -47.6867 C.3       1 UNK         0.1400 
      6 C6          0.4151  -13.9446  -47.7484 C.3       23 UNK        -0.0398 
      7 S7          0.7433  -14.8930  -49.2716 S.3       23 UNK        -0.2404 
      8 C8         -0.3279  -16.3224  -48.9532 C.3       23 UNK        -0.0205 
      9 C9         -0.0340  -17.4812  -49.8894 C.ar      23 UNK        -0.0193 
     10 C10        -0.7493  -17.6339  -51.0804 C.ar      23 UNK        -0.1150 
     11 C11        -0.4952  -18.7200  -51.9239 C.ar      23 UNK        -0.0193 
     12 C12         0.4690  -19.6641  -51.5607 C.ar      23 UNK        -0.1150 
     13 C13         1.1862  -19.5248  -50.3692 C.ar      23 UNK        -0.0193 
     14 C14         0.9376  -18.4237  -49.5441 C.ar      23 UNK        -0.1150 
     15 C15         2.2234  -20.5699  -49.9771 C.3       23 UNK        -0.0205 
     16 S16         1.9577  -21.2433  -48.3039 S.3       23 UNK        -0.2404 
     17 C17         0.2046  -21.7457  -48.3829 C.3       23 UNK        -0.0398 
     18 CA         -0.1330  -22.8041  -47.3127 C.3       11 UNK         0.1400 
     19 N          -0.0023  -22.2953  -45.9445 N.am      11 UNK        -0.5000 
     20 C           0.0646  -23.0827  -44.8624 C.2       10 UNK         0.5000 
     21 O           0.0123  -24.3113  -44.9129 O.2       10 UNK        -0.5000 
     22 CA          0.1529  -22.3864  -43.4934 C.3       10 UNK         0.1400 
     23 CB          1.5493  -21.7887  -43.2661 C.3       10 UNK        -0.1800 
     24 N          -0.8641  -21.3486  -43.3302 N.am      10 UNK        -0.5000 
     25 C          -2.1861  -21.5723  -43.3394 C.2       9 UNK         0.5000 
     26 O          -2.6917  -22.6902  -43.4477 O.2       9 UNK        -0.5000 
     27 CA         -3.0950  -20.3323  -43.2628 C.3       9 UNK         0.1400 
     28 CB         -3.2607  -19.8566  -41.8116 C.3       9 UNK        -0.1800 
     29 N          -2.5993  -19.2310  -44.0891 N.am      9 UNK        -0.5000 
     30 C          -2.5370  -19.2601  -45.4280 C.2       8 UNK         0.5000 
     31 O          -2.9208  -20.2050  -46.1130 O.2       8 UNK        -0.5000 
     32 CA         -1.8790  -18.0551  -46.1147 C.3       8 UNK         0.1400 
     33 CB         -2.8690  -16.8882  -46.2496 C.3       8 UNK        -0.1800 
     34 N          -0.6777  -17.6165  -45.4033 N.am      8 UNK        -0.5000 
     35 C           0.4503  -18.3415  -45.3439 C.2       7 UNK         0.5000 
     36 O           0.5839  -19.4291  -45.9007 O.2       7 UNK        -0.5000 
     37 CA          1.6050  -17.7952  -44.4836 C.3       7 UNK         0.1400 
     38 CB          2.5350  -16.9083  -45.3227 C.3       7 UNK        -0.1800 
     39 N           1.1502  -17.0521  -43.3087 N.am      7 UNK        -0.5000 
     40 C           0.4106  -17.5735  -42.3198 C.2       6 UNK         0.5000 
     41 O           0.0973  -18.7628  -42.2597 O.2       6 UNK        -0.5000 
     42 CA         -0.1111  -16.5998  -41.2452 C.3       6 UNK         0.1400 
     43 CB          0.8073  -16.6235  -40.0145 C.3       6 UNK        -0.1800 
     44 N          -0.2686  -15.2109  -41.6933 N.am      6 UNK        -0.5000 
     45 C          -1.0166  -14.7862  -42.7239 C.2       5 UNK         0.5000 
     46 O          -1.6191  -15.5442  -43.4833 O.2       5 UNK        -0.5000 
     47 CA         -1.0985  -13.2648  -42.9592 C.3       5 UNK         0.1400 
     48 CB         -2.4822  -12.7330  -42.5575 C.3       5 UNK        -0.1800 
     49 N          -0.0719  -12.5161  -42.2287 N.am      5 UNK        -0.5000 
     50 C           1.1927  -12.3730  -42.6397 C.2       4 UNK         0.5000 
     51 O           1.6206  -12.8204  -43.7096 O.2       4 UNK        -0.5000 
     52 CA          2.1396  -11.6422  -41.6710 C.3       4 UNK         0.1400 
     53 CB          2.7877  -12.6475  -40.7068 C.3       4 UNK        -0.1800 
     54 N           3.1899  -10.9781  -42.4300 N.am      4 UNK        -0.5000 
     55 C           3.0921   -9.7675  -42.9872 C.2       3 UNK         0.5000 
     56 O           2.2205   -8.9494  -42.6931 O.2       3 UNK        -0.5000 
     57 CA          4.0928   -9.4428  -44.1148 C.3       3 UNK         0.1400 
     58 CB          5.4413   -8.9442  -43.5612 C.3       3 UNK        -0.1800 
     59 N           4.2504  -10.5538  -45.0673 N.am      3 UNK        -0.5000 
     60 C           4.8309  -11.7497  -44.8780 C.2       2 UNK         0.5000 
     61 O           5.4504  -12.0561  -43.8580 O.2       2 UNK        -0.5000 
     62 CA          4.5807  -12.7991  -45.9719 C.3       2 UNK         0.1400 
     63 CB          4.9959  -14.2192  -45.5490 C.3       2 UNK        -0.1800 
     64 N           3.1573  -12.7934  -46.3063 N.am      2 UNK        -0.5000 
     65 C           2.6647  -12.7259  -47.5487 C.2       1 UNK         0.5000 
     66 O           3.3672  -12.7334  -48.5609 O.2       1 UNK        -0.5000 
     67 C          -1.5106  -23.4452  -47.5729 C.2       11 UNK         0.5000 
     68 O          -1.5793  -24.3987  -48.3500 O.2       11 UNK        -0.5000 
     69 N          -2.5738  -22.9568  -46.9149 N.am      12 UNK        -0.5000 
     70 CA         -3.9061  -23.5662  -46.9351 C.3       12 UNK         0.1400 
     71 CB         -4.9377  -22.6483  -46.2650 C.3       12 UNK        -0.1800 
     72 C          -3.9195  -24.9671  -46.3032 C.2       12 UNK         0.5000 
     73 O          -4.5142  -25.8816  -46.8732 O.2       12 UNK        -0.5000 
     74 N          -3.2306  -25.1217  -45.1656 N.am      13 UNK        -0.5000 
     75 CA         -3.0432  -26.4077  -44.4969 C.3       13 UNK         0.1400 
     76 CB         -2.4749  -26.1734  -43.0887 C.3       13 UNK        -0.1800 
     77 C          -2.1451  -27.3675  -45.3011 C.2       13 UNK         0.5000 
     78 O          -2.4476  -28.5592  -45.3759 O.2       13 UNK        -0.5000 
     79 N          -1.0591  -26.8361  -45.8784 N.am      14 UNK        -0.5000 
     80 CA         -0.0516  -27.6091  -46.6013 C.3       14 UNK         0.1400 
     81 CB          1.2443  -26.7909  -46.7090 C.3       14 UNK        -0.1800 
     82 C          -0.5027  -28.0802  -47.9951 C.2       14 UNK         0.5000 
     83 O          -0.2789  -29.2446  -48.3304 O.2       14 UNK        -0.5000 
     84 N          -1.0812  -27.1765  -48.7986 N.am      15 UNK        -0.5000 
     85 CA         -1.3101  -27.3973  -50.2300 C.3       15 UNK         0.1400 
     86 CB         -0.0036  -27.1277  -51.0059 C.3       15 UNK        -0.1800 
     87 C          -2.4944  -26.5791  -50.7757 C.2       15 UNK         0.5000 
     88 O          -2.4694  -26.1748  -51.9406 O.2       15 UNK        -0.5000 
     89 N          -3.5070  -26.3289  -49.9303 N.am      16 UNK        -0.5000 
     90 CA         -4.7684  -25.6377  -50.2451 C.3       16 UNK         0.1400 
     91 CB         -5.6213  -26.4984  -51.2008 C.3       16 UNK        -0.1800 
     92 C          -4.6008  -24.1932  -50.7694 C.2       16 UNK         0.5000 
     93 O          -5.5153  -23.6737  -51.4105 O.2       16 UNK        -0.5000 
     94 N          -3.4344  -23.5789  -50.5070 N.am      17 UNK        -0.5000 
     95 CA         -2.9779  -22.2785  -51.0116 C.3       17 UNK         0.1400 
     96 CB         -3.6885  -21.1285  -50.2723 C.3       17 UNK        -0.1800 
     97 C          -3.0807  -22.1846  -52.5484 C.2       17 UNK         0.5000 
     98 O          -3.5762  -21.1912  -53.0823 O.2       17 UNK        -0.5000 
     99 N          -2.6652  -23.2711  -53.2177 N.am      18 UNK        -0.5000 
    100 CA        -2.7830  -23.5727  -54.6478 C.3       18 UNK         0.1400 
    101 CB        -2.1044  -22.5020  -55.5254 C.3       18 UNK        -0.1800 
    102 C         -4.2374  -23.8355  -55.0838 C.2       18 UNK         0.5000 
    103 O         -4.5266  -24.9096  -55.6124 O.2       18 UNK        -0.5000 
    104 N         -5.1223  -22.8653  -54.8393 N.am      19 UNK        -0.5000 
    105 CA        -6.5518  -22.9063  -55.1327 C.3       19 UNK         0.1400 
    106 CB        -6.7944  -22.7484  -56.6488 C.3       19 UNK        -0.1800 
    107 C         -7.2608  -21.8293  -54.2953 C.2       19 UNK         0.5000 
    108 O         -7.9697  -20.9859  -54.8453 O.2       19 UNK        -0.5000 
    109 N         -6.9997  -21.8359  -52.9798 N.am      20 UNK        -0.5000 
    110 CA        -7.4377  -20.8891  -51.9422 C.3       20 UNK         0.1400 
    111 CB        -8.9738  -20.7847  -51.8753 C.3       20 UNK        -0.1800 
    112 C         -6.7811  -19.4933  -52.0172 C.2       20 UNK         0.5000 
    113 O         -6.6850  -18.8218  -50.9893 O.2       20 UNK        -0.5000 
    114 N         -6.3205  -19.0881  -53.2023 N.am      21 UNK        -0.5000 
    115 CA        -5.5761  -17.8708  -53.4860 C.3       21 UNK         0.1400 
    116 CB        -6.5451  -16.6813  -53.6132 C.3       21 UNK        -0.1800 
    117 C         -4.7793  -18.0856  -54.7818 C.2       21 UNK         0.5000 
    118 O         -5.0720  -19.0155  -55.5396 O.2       21 UNK        -0.5000 
    119 N         -3.7930  -17.2161  -55.0162 N.am      22 UNK        -0.5000 
    120 CA        -2.8828  -17.2732  -56.1715 C.3       22 UNK         0.1400 
    121 C         -2.4647  -15.8751  -56.7147 C.2       22 UNK         0.5000 
    122 N         -3.1086  -14.7855  -56.3110 N.am      22 UNK        -0.7600 
    123 O         -1.5596  -15.7711  -57.5383 O.2       22 UNK        -0.5000 
    124 C124       -1.6896  -18.2374  -55.9261 C.3       23 UNK        -0.0398 
    125 S125       -0.6279  -17.7704  -54.5133 S.3       23 UNK        -0.2404 
    126 C126       -1.2674  -18.8794  -53.2222 C.3       23 UNK        -0.0205 
    127 H127        0.5941   -8.9808  -44.8225 H         1 UNK         0.0600 
    128 H128       -0.3177  -10.4652  -44.5422 H         1 UNK         0.0600 
    129 H129       -0.8720   -9.2977  -45.7494 H         1 UNK         0.0600 
    130 H130       -0.1977  -12.1691  -46.1012 H         1 UNK         0.3000 
    131 H131        0.9489  -12.0588  -48.6322 H         1 UNK         0.0600 
    132 H132        0.6729  -14.5529  -46.8805 H         1 UNK         0.0800 
    133 H133       -0.6645  -13.7939  -47.6979 H         1 UNK         0.0800 
    134 H134       -1.3737  -16.0225  -49.0348 H         1 UNK         0.0800 
    135 H135       -0.1735  -16.6462  -47.9256 H         1 UNK         0.0800 
    136 H136       -1.4998  -16.9059  -51.3548 H         1 UNK         0.1150 
    137 H137        0.6613  -20.5077  -52.2089 H         1 UNK         0.1150 
    138 H138        1.4873  -18.3132  -48.6196 H         1 UNK         0.1150 
    139 H139        2.2280  -21.3976  -50.6879 H         1 UNK         0.0800 
    140 H140        3.2150  -20.1181  -50.0228 H         1 UNK         0.0800 
    141 H141        0.0175  -22.1407  -49.3825 H         1 UNK         0.0800 
    142 H142       -0.4276  -20.8629  -48.2678 H         1 UNK         0.0800 
    143 H143        0.5964  -23.6082  -47.4243 H         1 UNK         0.0600 
    144 H144        0.0891  -21.2874  -45.8424 H         1 UNK         0.3000 
    145 H145       -0.0205  -23.1421  -42.7244 H         1 UNK         0.0600 
    146 H146        1.6245  -21.3226  -42.2834 H         1 UNK         0.0600 
    147 H147        2.3163  -22.5620  -43.3206 H         1 UNK         0.0600 
    148 H148        1.7926  -21.0345  -44.0139 H         1 UNK         0.0600 
    149 H149       -0.5323  -20.4000  -43.1856 H         1 UNK         0.3000 
    150 H150       -4.0797  -20.6171  -43.6387 H         1 UNK         0.0600 
    151 H151       -3.6669  -20.6528  -41.1865 H         1 UNK         0.0600 
    152 H152       -3.9476  -19.0125  -41.7494 H         1 UNK         0.0600 
    153 H153       -2.3112  -19.5493  -41.3729 H         1 UNK         0.0600 
    154 H154       -2.2243  -18.4275  -43.6062 H         1 UNK         0.3000 
    155 H155       -1.5866  -18.3702  -47.1187 H         1 UNK         0.0600 
    156 H156       -3.2728  -16.5850  -45.2834 H         1 UNK         0.0600 
    157 H157       -3.7128  -17.1693  -46.8809 H         1 UNK         0.0600 
    158 H158       -2.3990  -16.0155  -46.7023 H         1 UNK         0.0600 
    159 H159       -0.7616  -16.7722  -44.8472 H         1 UNK         0.3000 
    160 H160        2.1828  -18.6521  -44.1327 H         1 UNK         0.0600 
    161 H161        2.0612  -15.9659  -45.5966 H         1 UNK         0.0600 
    162 H162        2.8324  -17.4092  -46.2452 H         1 UNK         0.0600 
    163 H163        3.4469  -16.6797  -44.7724 H         1 UNK         0.0600 
    164 H164        1.3578  -16.0647  -43.2822 H         1 UNK         0.3000 
    165 H165       -1.0975  -16.9572  -40.9432 H         1 UNK         0.0600 
    166 H166        0.3944  -16.0263  -39.2013 H         1 UNK         0.0600 
    167 H167        0.9312  -17.6398  -39.6377 H         1 UNK         0.0600 
    168 H168        1.8001  -16.2357  -40.2465 H         1 UNK         0.0600 
    169 H169        0.1909  -14.5103  -41.1323 H         1 UNK         0.3000 
    170 H170       -0.9703  -13.0955  -44.0302 H         1 UNK         0.0600 
    171 H171       -3.2734  -13.2468  -43.1054 H         1 UNK         0.0600 
    172 H172       -2.6752  -12.8737  -41.4933 H         1 UNK         0.0600 
    173 H173       -2.5746  -11.6694  -42.7785 H         1 UNK         0.0600 
    174 H174       -0.3527  -12.1146  -41.3450 H         1 UNK         0.3000 
    175 H175        1.5756  -10.9061  -41.0944 H         1 UNK         0.0600 
    176 H176        3.3447  -13.4182  -41.2419 H         1 UNK         0.0600 
    177 H177        3.4784  -12.1492  -40.0262 H         1 UNK         0.0600 
    178 H178        2.0362  -13.1484  -40.0955 H         1 UNK         0.0600 
    179 H179        3.9421  -11.5727  -42.7648 H         1 UNK         0.3000 
    180 H180        3.6574   -8.6261  -44.6931 H         1 UNK         0.0600 
    181 H181        5.9156   -9.6757  -42.9068 H         1 UNK         0.0600 
    182 H182        5.3038   -8.0331  -42.9779 H         1 UNK         0.0600 
    183 H183        6.1372   -8.7124  -44.3675 H         1 UNK         0.0600 
    184 H184        3.7223  -10.4379  -45.9241 H         1 UNK         0.3000 
    185 H185        5.1855  -12.5032  -46.8313 H         1 UNK         0.0600 
    186 H186        6.0655  -14.2697  -45.3421 H         1 UNK         0.0600 
    187 H187        4.4699  -14.5337  -44.6471 H         1 UNK         0.0600 
    188 H188        4.7819  -14.9433  -46.3352 H         1 UNK         0.0600 
    189 H189        2.5195  -12.7529  -45.5149 H         1 UNK         0.3000 
    190 H190       -2.4722  -22.1147  -46.3569 H         1 UNK         0.3000 
    191 H191       -4.2084  -23.6763  -47.9735 H         1 UNK         0.0600 
    192 H192       -4.6760  -22.4309  -45.2304 H         1 UNK         0.0600 
    193 H193       -5.9266  -23.1083  -46.2631 H         1 UNK         0.0600 
    194 H194       -5.0251  -21.7016  -46.7978 H         1 UNK         0.0600 
    195 H195       -2.7995  -24.3107  -44.7340 H         1 UNK         0.3000 
    196 H196       -4.0223  -26.8796  -44.3899 H         1 UNK         0.0600 
    197 H197       -2.3481  -27.1170  -42.5566 H         1 UNK         0.0600 
    198 H198       -3.1432  -25.5505  -42.4938 H         1 UNK         0.0600 
    199 H199       -1.5028  -25.6808  -43.1212 H         1 UNK         0.0600 
    200 H200       -0.8462  -25.8578  -45.7049 H         1 UNK         0.3000 
    201 H201        0.1733  -28.5001  -46.0109 H         1 UNK         0.0600 
    202 H202        1.6181  -26.5108  -45.7239 H         1 UNK         0.0600 
    203 H203        1.0968  -25.8775  -47.2843 H         1 UNK         0.0600 
    204 H204        2.0290  -27.3653  -47.2030 H         1 UNK         0.0600 
    205 H205       -1.2403  -26.2280  -48.4647 H         1 UNK         0.3000 
    206 H206       -1.5887  -28.4409  -50.3887 H         1 UNK         0.0600 
    207 H207        0.8091  -27.7618  -50.6517 H         1 UNK         0.0600 
    208 H208       -0.1238  -27.3318  -52.0705 H         1 UNK         0.0600 
    209 H209        0.3125  -26.0892  -50.9012 H         1 UNK         0.0600 
    210 H210       -3.4266  -26.6657  -48.9797 H         1 UNK         0.3000 
    211 H211       -5.3210  -25.5526  -49.3103 H         1 UNK         0.0600 
    212 H212       -5.1748  -26.5634  -52.1938 H         1 UNK         0.0600 
    213 H213       -6.6215  -26.0805  -51.3204 H         1 UNK         0.0600 
    214 H214       -5.7405  -27.5121  -50.8187 H         1 UNK         0.0600 
    215 H215       -2.7593  -24.0904  -49.9477 H         1 UNK         0.3000 
    216 H216       -1.9151  -22.2088  -50.7802 H         1 UNK         0.0600 
    217 H217       -3.3213  -20.1578  -50.6085 H         1 UNK         0.0600 
    218 H218       -3.5148  -21.1847  -49.1976 H         1 UNK         0.0600 
    219 H219       -4.7644  -21.1486  -50.4371 H         1 UNK         0.0600 
    220 H220       -2.3671  -24.0632  -52.6592 H         1 UNK         0.3000 
    221 H221       -2.2358  -24.5056  -54.7929 H         1 UNK         0.0600 
    222 H222       -2.6347  -21.5505  -55.4958 H         1 UNK         0.0600 
    223 H223       -1.0766  -22.3242  -55.2093 H         1 UNK         0.0600 
    224 H224       -2.0752  -22.8208  -56.5678 H         1 UNK         0.0600 
    225 H225       -4.7850  -22.0341  -54.3589 H         1 UNK         0.3000 
    226 H226       -6.9496  -23.8714  -54.8128 H         1 UNK         0.0600 
    227 H227       -6.3334  -23.5570  -57.2155 H         1 UNK         0.0600 
    228 H228       -7.8604  -22.7642  -56.8787 H         1 UNK         0.0600 
    229 H229       -6.3895  -21.8061  -57.0203 H         1 UNK         0.0600 
    230 H230       -6.3874  -22.5672  -52.6207 H         1 UNK         0.3000 
    231 H231       -7.1071  -21.3283  -51.0001 H         1 UNK         0.0600 
    232 H232       -9.4332  -21.7692  -51.7873 H         1 UNK         0.0600 
    233 H233       -9.3903  -20.2948  -52.7555 H         1 UNK         0.0600 
    234 H234       -9.2836  -20.2027  -51.0066 H         1 UNK         0.0600 
    235 H235       -6.4386  -19.6949  -54.0063 H         1 UNK         0.3000 
    236 H236       -4.8686  -17.6889  -52.6742 H         1 UNK         0.0600 
    237 H237       -6.0090  -15.7562  -53.8268 H         1 UNK         0.0600 
    238 H238       -7.2660  -16.8379  -54.4166 H         1 UNK         0.0600 
    239 H239       -7.1031  -16.5237  -52.6901 H         1 UNK         0.0600 
    240 H240       -3.5945  -16.4892  -54.3441 H         1 UNK         0.3000 
    241 H241       -3.4470  -17.6918  -57.0069 H         1 UNK         0.0600 
    242 H242       -2.8301  -13.8890  -56.6790 H         1 UNK         0.3800 
    243 H243       -3.9017  -14.8415  -55.6934 H         1 UNK         0.3800 
    244 H244       -2.0673  -19.2480  -55.7710 H         1 UNK         0.0800 
    245 H245       -1.0630  -18.3017  -56.8168 H         1 UNK         0.0800 
    246 H246       -1.2061  -19.9098  -53.5751 H         1 UNK         0.0800 
    247 H247       -2.3235  -18.6758  -53.0445 H         1 UNK         0.0800 
@<TRIPOS>BOND
     1    1    2 1    
     2    1  127 1    
     3    1  128 1    
     4    1  129 1    
     5    2    3 2    
     6    2    4 am   BACKBONE|DICT|INTERRES
     7    4    5 1    
     8    4  130 1    
     9    5    6 1    
    10    5   65 1    
    11    5  131 1    
    12    6    7 1    
    13    6  132 1    
    14    6  133 1    
    15    7    8 1    
    16    8    9 1    
    17    8  134 1    
    18    8  135 1    
    19    9   10 ar   
    20    9   14 ar   
    21   10   11 ar   
    22   10  136 1    
    23   11   12 ar   
    24   11  126 1    
    25   12   13 ar   
    26   12  137 1    
    27   13   14 ar   
    28   13   15 1    
    29   14  138 1    
    30   15   16 1    
    31   15  139 1    
    32   15  140 1    
    33   16   17 1    
    34   17   18 1    
    35   17  141 1    
    36   17  142 1    
    37   18   19 1    
    38   18   67 1    
    39   18  143 1    
    40   19   20 am   BACKBONE|DICT|INTERRES
    41   19  144 1    
    42   20   21 2    
    43   20   22 1    
    44   22   23 1    
    45   22   24 1    
    46   22  145 1    
    47   23  146 1    
    48   23  147 1    
    49   23  148 1    
    50   24   25 am   BACKBONE|DICT|INTERRES
    51   24  149 1    
    52   25   26 2    
    53   25   27 1    
    54   27   28 1    
    55   27   29 1    
    56   27  150 1    
    57   28  151 1    
    58   28  152 1    
    59   28  153 1    
    60   29   30 am   BACKBONE|DICT|INTERRES
    61   29  154 1    
    62   30   31 2    
    63   30   32 1    
    64   32   33 1    
    65   32   34 1    
    66   32  155 1    
    67   33  156 1    
    68   33  157 1    
    69   33  158 1    
    70   34   35 am   BACKBONE|DICT|INTERRES
    71   34  159 1    
    72   35   36 2    
    73   35   37 1    
    74   37   38 1    
    75   37   39 1    
    76   37  160 1    
    77   38  161 1    
    78   38  162 1    
    79   38  163 1    
    80   39   40 am   BACKBONE|DICT|INTERRES
    81   39  164 1    
    82   40   41 2    
    83   40   42 1    
    84   42   43 1    
    85   42   44 1    
    86   42  165 1    
    87   43  166 1    
    88   43  167 1    
    89   43  168 1    
    90   44   45 am   BACKBONE|DICT|INTERRES
    91   44  169 1    
    92   45   46 2    
    93   45   47 1    
    94   47   48 1    
    95   47   49 1    
    96   47  170 1    
    97   48  171 1    
    98   48  172 1    
    99   48  173 1    
   100   49   50 am   BACKBONE|DICT|INTERRES
   101   49  174 1    
   102   50   51 2    
   103   50   52 1    
   104   52   53 1    
   105   52   54 1    
   106   52  175 1    
   107   53  176 1    
   108   53  177 1    
   109   53  178 1    
   110   54   55 am   BACKBONE|DICT|INTERRES
   111   54  179 1    
   112   55   56 2    
   113   55   57 1    
   114   57   58 1    
   115   57   59 1    
   116   57  180 1    
   117   58  181 1    
   118   58  182 1    
   119   58  183 1    
   120   59   60 am   BACKBONE|DICT|INTERRES
   121   59  184 1    
   122   60   61 2    
   123   60   62 1    
   124   62   63 1    
   125   62   64 1    
   126   62  185 1    
   127   63  186 1    
   128   63  187 1    
   129   63  188 1    
   130   64   65 am   BACKBONE|DICT|INTERRES
   131   64  189 1    
   132   65   66 2    
   133   67   68 2    
   134   67   69 am   BACKBONE|DICT|INTERRES
   135   69   70 1    
   136   69  190 1    
   137   70   71 1    
   138   70   72 1    
   139   70  191 1    
   140   71  192 1    
   141   71  193 1    
   142   71  194 1    
   143   72   73 2    
   144   72   74 am   BACKBONE|DICT|INTERRES
   145   74   75 1    
   146   74  195 1    
   147   75   76 1    
   148   75   77 1    
   149   75  196 1    
   150   76  197 1    
   151   76  198 1    
   152   76  199 1    
   153   77   78 2    
   154   77   79 am   BACKBONE|DICT|INTERRES
   155   79   80 1    
   156   79  200 1    
   157   80   81 1    
   158   80   82 1    
   159   80  201 1    
   160   81  202 1    
   161   81  203 1    
   162   81  204 1    
   163   82   83 2    
   164   82   84 am   BACKBONE|DICT|INTERRES
   165   84   85 1    
   166   84  205 1    
   167   85   86 1    
   168   85   87 1    
   169   85  206 1    
   170   86  207 1    
   171   86  208 1    
   172   86  209 1    
   173   87   88 2    
   174   87   89 am   BACKBONE|DICT|INTERRES
   175   89   90 1    
   176   89  210 1    
   177   90   91 1    
   178   90   92 1    
   179   90  211 1    
   180   91  212 1    
   181   91  213 1    
   182   91  214 1    
   183   92   93 2    
   184   92   94 am   BACKBONE|DICT|INTERRES
   185   94   95 1    
   186   94  215 1    
   187   95   96 1    
   188   95   97 1    
   189   95  216 1    
   190   96  217 1    
   191   96  218 1    
   192   96  219 1    
   193   97   98 2    
   194   97   99 am   BACKBONE|DICT|INTERRES
   195   99  100 1    
   196   99  220 1    
   197  100  101 1    
   198  100  102 1    
   199  100  221 1    
   200  101  222 1    
   201  101  223 1    
   202  101  224 1    
   203  102  103 2    
   204  102  104 am   BACKBONE|DICT|INTERRES
   205  104  105 1    
   206  104  225 1    
   207  105  106 1    
   208  105  107 1    
   209  105  226 1    
   210  106  227 1    
   211  106  228 1    
   212  106  229 1    
   213  107  108 2    
   214  107  109 am   BACKBONE|DICT|INTERRES
   215  109  110 1    
   216  109  230 1    
   217  110  111 1    
   218  110  112 1    
   219  110  231 1    
   220  111  232 1    
   221  111  233 1    
   222  111  234 1    
   223  112  113 2    
   224  112  114 am   BACKBONE|DICT|INTERRES
   225  114  115 1    
   226  114  235 1    
   227  115  116 1    
   228  115  117 1    
   229  115  236 1    
   230  116  237 1    
   231  116  238 1    
   232  116  239 1    
   233  117  118 2    
   234  117  119 am   BACKBONE|DICT|INTERRES
   235  119  120 1    
   236  119  240 1    
   237  120  121 1    
   238  120  124 1    
   239  120  241 1    
   240  121  122 am   BACKBONE|DICT|INTERRES
   241  121  123 2    
   242  122  242 1    
   243  122  243 1    
   244  124  125 1    
   245  124  244 1    
   246  124  245 1    
   247  125  126 1    
   248  126  246 1    
   249  126  247 1    
@<TRIPOS>SUBSTRUCTURE
     1 UNK         1 GROUP             0       ****    0 ROOT    
