@<TRIPOS>MOLECULE
3R540
247   249    1
SMALL
USER_CHARGES


@<TRIPOS>ATOM
      1 CA         -1.4371  -10.9201  -50.2190 C.3       0 UNK        -0.1800 
      2 C          -0.9325  -12.0591  -49.3444 C.2       0 UNK         0.5000 
      3 O          -1.0441  -11.9834  -48.1216 O.2       0 UNK        -0.5000 
      4 N          -0.3711  -13.1032  -49.9707 N.am      1 UNK        -0.5000 
      5 CA          0.1518  -14.3278  -49.3398 C.3       1 UNK         0.1400 
      6 C6         -0.9398  -15.1849  -48.6381 C.3       23 UNK        -0.0398 
      7 S7         -2.2511  -15.6954  -49.8056 S.3       23 UNK        -0.2404 
      8 C8         -1.8090  -17.4292  -50.1481 C.3       23 UNK        -0.0205 
      9 C9         -0.3891  -17.5837  -50.6735 C.ar      23 UNK        -0.0193 
     10 C10        -0.0535  -17.1266  -51.9509 C.ar      23 UNK        -0.1150 
     11 C11         1.2526  -17.2613  -52.4334 C.ar      23 UNK        -0.0193 
     12 C12         2.2211  -17.8679  -51.6293 C.ar      23 UNK        -0.1150 
     13 C13         1.9008  -18.3250  -50.3476 C.ar      23 UNK        -0.0193 
     14 C14         0.5933  -18.1767  -49.8750 C.ar      23 UNK        -0.1150 
     15 C15         2.9810  -18.9444  -49.4711 C.3       23 UNK        -0.0205 
     16 S16         2.6689  -20.7048  -49.1187 S.3       23 UNK        -0.2404 
     17 C17         1.9818  -20.6036  -47.4324 C.3       23 UNK        -0.0398 
     18 CA          0.9755  -21.7303  -47.1012 C.3       11 UNK         0.1400 
     19 N           0.8143  -21.8892  -45.6531 N.am      11 UNK        -0.5000 
     20 C           0.1481  -22.8867  -45.0560 C.2       10 UNK         0.5000 
     21 O          -0.3501  -23.8334  -45.6634 O.2       10 UNK        -0.5000 
     22 CA         -0.0394  -22.7815  -43.5305 C.3       10 UNK         0.1400 
     23 CB          1.1990  -23.3020  -42.7867 C.3       10 UNK        -0.1800 
     24 N          -0.3419  -21.4156  -43.0974 N.am      10 UNK        -0.5000 
     25 C          -1.4537  -20.7453  -43.4343 C.2       9 UNK         0.5000 
     26 O          -2.3740  -21.2408  -44.0828 O.2       9 UNK        -0.5000 
     27 CA         -1.5257  -19.2591  -43.0362 C.3       9 UNK         0.1400 
     28 CB         -1.9730  -19.0983  -41.5764 C.3       9 UNK        -0.1800 
     29 N          -0.2549  -18.5649  -43.2450 N.am      9 UNK        -0.5000 
     30 C           0.3262  -18.3856  -44.4392 C.2       8 UNK         0.5000 
     31 O          -0.1854  -18.7275  -45.5038 O.2       8 UNK        -0.5000 
     32 CA          1.7410  -17.7838  -44.4435 C.3       8 UNK         0.1400 
     33 CB          1.6924  -16.2533  -44.4094 C.3       8 UNK        -0.1800 
     34 N           2.5506  -18.2774  -43.3311 N.am      8 UNK        -0.5000 
     35 C           3.0273  -19.5261  -43.2441 C.2       7 UNK         0.5000 
     36 O           2.8686  -20.3774  -44.1186 O.2       7 UNK        -0.5000 
     37 CA          3.7667  -19.8938  -41.9443 C.3       7 UNK         0.1400 
     38 CB          5.2345  -19.4472  -42.0114 C.3       7 UNK        -0.1800 
     39 N           3.1356  -19.3123  -40.7577 N.am      7 UNK        -0.5000 
     40 C           1.9271  -19.6652  -40.2969 C.2       6 UNK         0.5000 
     41 O           1.2406  -20.5543  -40.7990 O.2       6 UNK        -0.5000 
     42 CA          1.3706  -18.8555  -39.1086 C.3       6 UNK         0.1400 
     43 CB          1.8333  -19.4664  -37.7777 C.3       6 UNK        -0.1800 
     44 N           1.7297  -17.4331  -39.1419 N.am      6 UNK        -0.5000 
     45 C           1.4079  -16.5865  -40.1294 C.2       5 UNK         0.5000 
     46 O           0.7923  -16.9286  -41.1405 O.2       5 UNK        -0.5000 
     47 CA          1.9226  -15.1413  -39.9858 C.3       5 UNK         0.1400 
     48 CB          3.4349  -15.0890  -40.2610 C.3       5 UNK        -0.1800 
     49 N           1.2652  -14.2055  -40.8990 N.am      5 UNK        -0.5000 
     50 C          -0.0199  -13.8248  -40.8557 C.2       4 UNK         0.5000 
     51 O          -0.8123  -14.2092  -39.9941 O.2       4 UNK        -0.5000 
     52 CA         -0.4912  -12.8211  -41.9333 C.3       4 UNK         0.1400 
     53 CB         -1.2385  -11.6349  -41.2989 C.3       4 UNK        -0.1800 
     54 N           0.6321  -12.2959  -42.7180 N.am      4 UNK        -0.5000 
     55 C           0.9364  -12.6520  -43.9717 C.2       3 UNK         0.5000 
     56 O           0.2368  -13.3906  -44.6666 O.2       3 UNK        -0.5000 
     57 CA          2.2683  -12.1085  -44.5144 C.3       3 UNK         0.1400 
     58 CB          3.4605  -12.5991  -43.6635 C.3       3 UNK        -0.1800 
     59 N           2.4568  -12.5193  -45.9037 N.am      3 UNK        -0.5000 
     60 C           3.2852  -11.9357  -46.7754 C.2       2 UNK         0.5000 
     61 O           3.9559  -10.9389  -46.5024 O.2       2 UNK        -0.5000 
     62 CA          3.4051  -12.5406  -48.1891 C.3       2 UNK         0.1400 
     63 CB          4.4953  -13.6294  -48.2333 C.3       2 UNK        -0.1800 
     64 N           2.1495  -13.0134  -48.7860 N.am      2 UNK        -0.5000 
     65 C           1.3876  -14.0643  -48.4476 C.2       1 UNK         0.5000 
     66 O           1.6390  -14.8089  -47.5013 O.2       1 UNK        -0.5000 
     67 C          -0.3841  -21.5338  -47.8089 C.2       11 UNK         0.5000 
     68 O          -0.6441  -22.1905  -48.8159 O.2       11 UNK        -0.5000 
     69 N          -1.2532  -20.6858  -47.2388 N.am      12 UNK        -0.5000 
     70 CA         -2.6255  -20.4708  -47.6985 C.3       12 UNK         0.1400 
     71 CB         -3.2628  -19.3031  -46.9307 C.3       12 UNK        -0.1800 
     72 C          -3.4949  -21.7353  -47.5933 C.2       12 UNK         0.5000 
     73 O          -4.2437  -22.0259  -48.5251 O.2       12 UNK        -0.5000 
     74 N          -3.3587  -22.4840  -46.4901 N.am      13 UNK        -0.5000 
     75 CA         -4.0224  -23.7704  -46.2716 C.3       13 UNK         0.1400 
     76 CB         -3.8029  -24.2351  -44.8246 C.3       13 UNK        -0.1800 
     77 C          -3.5699  -24.8474  -47.2750 C.2       13 UNK         0.5000 
     78 O          -4.4169  -25.5545  -47.8214 O.2       13 UNK        -0.5000 
     79 N          -2.2582  -24.9143  -47.5486 N.am      14 UNK        -0.5000 
     80 CA         -1.6606  -25.7703  -48.5795 C.3       14 UNK         0.1400 
     81 CB         -0.1296  -25.7196  -48.4678 C.3       14 UNK        -0.1800 
     82 C          -2.1216  -25.4014  -50.0044 C.2       14 UNK         0.5000 
     83 O          -2.2964  -26.2895  -50.8384 O.2       14 UNK        -0.5000 
     84 N          -2.3775  -24.1069  -50.2312 N.am      15 UNK        -0.5000 
     85 CA         -3.0004  -23.5411  -51.4283 C.3       15 UNK         0.1400 
     86 CB         -2.5499  -22.0750  -51.5674 C.3       15 UNK        -0.1800 
     87 C          -4.5425  -23.6728  -51.4374 C.2       15 UNK         0.5000 
     88 O          -5.1988  -22.9732  -52.2084 O.2       15 UNK        -0.5000 
     89 N          -5.1083  -24.5445  -50.5876 N.am      16 UNK        -0.5000 
     90 CA         -6.5312  -24.8807  -50.4678 C.3       16 UNK         0.1400 
     91 CB         -7.0333  -25.5746  -51.7526 C.3       16 UNK        -0.1800 
     92 C          -7.3948  -23.6721  -50.0562 C.2       16 UNK         0.5000 
     93 O          -8.4188  -23.4005  -50.6820 O.2       16 UNK        -0.5000 
     94 N          -6.9323  -22.9394  -49.0332 N.am      17 UNK        -0.5000 
     95 CA         -7.4654  -21.6558  -48.5554 C.3       17 UNK         0.1400 
     96 CB         -8.8931  -21.8103  -47.9908 C.3       17 UNK        -0.1800 
     97 C          -7.3432  -20.5562  -49.6321 C.2       17 UNK         0.5000 
     98 O          -8.2505  -19.7411  -49.8046 O.2       17 UNK        -0.5000 
     99 N          -6.2138  -20.5939  -50.3534 N.am      18 UNK        -0.5000 
    100 CA        -5.8376  -19.7649  -51.5015 C.3       18 UNK         0.1400 
    101 CB        -5.6778  -18.2884  -51.0854 C.3       18 UNK        -0.1800 
    102 C         -6.7319  -19.9433  -52.7510 C.2       18 UNK         0.5000 
    103 O         -6.6658  -19.1115  -53.6568 O.2       18 UNK        -0.5000 
    104 N         -7.5229  -21.0261  -52.8161 N.am      19 UNK        -0.5000 
    105 CA        -8.3170  -21.3951  -53.9928 C.3       19 UNK         0.1400 
    106 CB        -9.3934  -22.4148  -53.5956 C.3       19 UNK        -0.1800 
    107 C         -7.4436  -21.9520  -55.1331 C.2       19 UNK         0.5000 
    108 O         -7.7516  -21.7250  -56.3034 O.2       19 UNK        -0.5000 
    109 N         -6.3513  -22.6330  -54.7690 N.am      20 UNK        -0.5000 
    110 CA        -5.2768  -23.0752  -55.6508 C.3       20 UNK         0.1400 
    111 CB        -5.0287  -24.5771  -55.4201 C.3       20 UNK        -0.1800 
    112 C         -4.0501  -22.2059  -55.3285 C.2       20 UNK         0.5000 
    113 O         -3.0325  -22.7146  -54.8522 O.2       20 UNK        -0.5000 
    114 N         -4.2259  -20.8894  -55.5248 N.am      21 UNK        -0.5000 
    115 CA        -3.3489  -19.7941  -55.1069 C.3       21 UNK         0.1400 
    116 CB        -3.8034  -18.4950  -55.7901 C.3       21 UNK        -0.1800 
    117 C         -1.8530  -20.0426  -55.3648 C.2       21 UNK         0.5000 
    118 O         -1.4603  -20.3177  -56.5010 O.2       21 UNK        -0.5000 
    119 N         -1.0676  -19.9394  -54.2880 N.am      22 UNK        -0.5000 
    120 CA         0.3883  -20.1484  -54.2368 C.3       22 UNK         0.1400 
    121 C          0.8447  -21.6322  -54.3891 C.2       22 UNK         0.5000 
    122 N         -0.0489  -22.6130  -54.4628 N.am      22 UNK        -0.7600 
    123 O          2.0413  -21.9070  -54.4122 O.2       22 UNK        -0.5000 
    124 C124        1.2000  -19.1914  -55.1619 C.3       23 UNK        -0.0398 
    125 S125        0.6350  -17.4506  -55.1471 S.3       23 UNK        -0.2404 
    126 C126        1.6306  -16.7251  -53.8078 C.3       23 UNK        -0.0205 
    127 H127       -0.9261   -9.9929  -49.9598 H         1 UNK         0.0600 
    128 H128       -2.5065  -10.7758  -50.0654 H         1 UNK         0.0600 
    129 H129       -1.2697  -11.1162  -51.2784 H         1 UNK         0.0600 
    130 H130       -0.3238  -13.0933  -50.9800 H         1 UNK         0.3000 
    131 H131        0.5459  -14.9247  -50.1625 H         1 UNK         0.0600 
    132 H132       -0.5088  -16.0777  -48.1824 H         1 UNK         0.0800 
    133 H133       -1.3980  -14.6289  -47.8193 H         1 UNK         0.0800 
    134 H134       -1.9416  -18.0060  -49.2348 H         1 UNK         0.0800 
    135 H135       -2.5098  -17.8390  -50.8765 H         1 UNK         0.0800 
    136 H136       -0.8071  -16.6550  -52.5661 H         1 UNK         0.1150 
    137 H137        3.2326  -17.9705  -51.9966 H         1 UNK         0.1150 
    138 H138        0.3388  -18.5195  -48.8829 H         1 UNK         0.1150 
    139 H139        3.9533  -18.8683  -49.9603 H         1 UNK         0.0800 
    140 H140        3.0710  -18.3741  -48.5454 H         1 UNK         0.0800 
    141 H141        1.5359  -19.6243  -47.2624 H         1 UNK         0.0800 
    142 H142        2.8345  -20.6613  -46.7551 H         1 UNK         0.0800 
    143 H143        1.3953  -22.6702  -47.4663 H         1 UNK         0.0600 
    144 H144        1.2466  -21.1818  -45.0691 H         1 UNK         0.3000 
    145 H145       -0.8867  -23.4130  -43.2562 H         1 UNK         0.0600 
    146 H146        1.0423  -23.2934  -41.7080 H         1 UNK         0.0600 
    147 H147        1.4236  -24.3295  -43.0751 H         1 UNK         0.0600 
    148 H148        2.0825  -22.7006  -43.0000 H         1 UNK         0.0600 
    149 H149        0.3411  -20.9636  -42.4970 H         1 UNK         0.3000 
    150 H150       -2.2719  -18.7796  -43.6730 H         1 UNK         0.0600 
    151 H151       -2.9588  -19.5384  -41.4220 H         1 UNK         0.0600 
    152 H152       -2.0368  -18.0465  -41.2960 H         1 UNK         0.0600 
    153 H153       -1.2858  -19.5875  -40.8871 H         1 UNK         0.0600 
    154 H154        0.2036  -18.1828  -42.4219 H         1 UNK         0.3000 
    155 H155        2.2226  -18.0797  -45.3778 H         1 UNK         0.0600 
    156 H156        1.2954  -15.8736  -43.4689 H         1 UNK         0.0600 
    157 H157        2.6818  -15.8225  -44.5605 H         1 UNK         0.0600 
    158 H158        1.0495  -15.8773  -45.2047 H         1 UNK         0.0600 
    159 H159        2.6619  -17.6580  -42.5427 H         1 UNK         0.3000 
    160 H160        3.7444  -20.9812  -41.8448 H         1 UNK         0.0600 
    161 H161        5.3246  -18.3627  -42.0860 H         1 UNK         0.0600 
    162 H162        5.7339  -19.8789  -42.8798 H         1 UNK         0.0600 
    163 H163        5.7853  -19.7700  -41.1277 H         1 UNK         0.0600 
    164 H164        3.6370  -18.5758  -40.2840 H         1 UNK         0.3000 
    165 H165        0.2817  -18.9196  -39.1500 H         1 UNK         0.0600 
    166 H166        1.3691  -18.9628  -36.9296 H         1 UNK         0.0600 
    167 H167        1.5602  -20.5208  -37.7164 H         1 UNK         0.0600 
    168 H168        2.9154  -19.3999  -37.6578 H         1 UNK         0.0600 
    169 H169        2.2490  -17.0844  -38.3490 H         1 UNK         0.3000 
    170 H170        1.7337  -14.8099  -38.9628 H         1 UNK         0.0600 
    171 H171        3.6714  -15.4140  -41.2753 H         1 UNK         0.0600 
    172 H172        3.8234  -14.0780  -40.1357 H         1 UNK         0.0600 
    173 H173        3.9873  -15.7306  -39.5735 H         1 UNK         0.0600 
    174 H174        1.8261  -13.8624  -41.6618 H         1 UNK         0.3000 
    175 H175       -1.1906  -13.3556  -42.5792 H         1 UNK         0.0600 
    176 H176       -1.5825  -10.9349  -42.0605 H         1 UNK         0.0600 
    177 H177       -0.6048  -11.0867  -40.6008 H         1 UNK         0.0600 
    178 H178       -2.1191  -11.9712  -40.7502 H         1 UNK         0.0600 
    179 H179        1.2500  -11.6646  -42.2272 H         1 UNK         0.3000 
    180 H180        2.2163  -11.0186  -44.4725 H         1 UNK         0.0600 
    181 H181        3.5286  -13.6873  -43.6588 H         1 UNK         0.0600 
    182 H182        3.3802  -12.2686  -42.6277 H         1 UNK         0.0600 
    183 H183        4.4064  -12.2114  -44.0416 H         1 UNK         0.0600 
    184 H184        1.9102  -13.3242  -46.2010 H         1 UNK         0.3000 
    185 H185        3.7386  -11.7295  -48.8385 H         1 UNK         0.0600 
    186 H186        5.4566  -13.2282  -47.9102 H         1 UNK         0.0600 
    187 H187        4.2609  -14.4701  -47.5797 H         1 UNK         0.0600 
    188 H188        4.6275  -14.0158  -49.2439 H         1 UNK         0.0600 
    189 H189        1.8169  -12.4546  -49.5593 H         1 UNK         0.3000 
    190 H190       -0.9486  -20.1354  -46.4391 H         1 UNK         0.3000 
    191 H191       -2.5774  -20.1959  -48.7528 H         1 UNK         0.0600 
    192 H192       -2.6552  -18.4008  -46.9987 H         1 UNK         0.0600 
    193 H193       -4.2476  -19.0653  -47.3348 H         1 UNK         0.0600 
    194 H194       -3.3902  -19.5354  -45.8737 H         1 UNK         0.0600 
    195 H195       -2.7743  -22.1369  -45.7344 H         1 UNK         0.3000 
    196 H196       -5.0940  -23.6160  -46.4135 H         1 UNK         0.0600 
    197 H197       -4.3319  -25.1689  -44.6311 H         1 UNK         0.0600 
    198 H198       -4.1741  -23.4970  -44.1134 H         1 UNK         0.0600 
    199 H199       -2.7487  -24.4056  -44.6092 H         1 UNK         0.0600 
    200 H200       -1.6179  -24.3332  -47.0136 H         1 UNK         0.3000 
    201 H201       -1.9809  -26.7958  -48.3849 H         1 UNK         0.0600 
    202 H202        0.2044  -26.0402  -47.4809 H         1 UNK         0.0600 
    203 H203        0.2548  -24.7143  -48.6399 H         1 UNK         0.0600 
    204 H204        0.3372  -26.3792  -49.2003 H         1 UNK         0.0600 
    205 H205       -2.1369  -23.4423  -49.5036 H         1 UNK         0.3000 
    206 H206       -2.6357  -24.0844  -52.3021 H         1 UNK         0.0600 
    207 H207       -1.4635  -22.0015  -51.6215 H         1 UNK         0.0600 
    208 H208       -2.9481  -21.6199  -52.4724 H         1 UNK         0.0600 
    209 H209       -2.8835  -21.4688  -50.7274 H         1 UNK         0.0600 
    210 H210       -4.5025  -25.0285  -49.9370 H         1 UNK         0.3000 
    211 H211       -6.6093  -25.6020  -49.6533 H         1 UNK         0.0600 
    212 H212       -7.0188  -24.9039  -52.6122 H         1 UNK         0.0600 
    213 H213       -8.0585  -25.9261  -51.6312 H         1 UNK         0.0600 
    214 H214       -6.4200  -26.4420  -51.9962 H         1 UNK         0.0600 
    215 H215       -6.0240  -23.1854  -48.6579 H         1 UNK         0.3000 
    216 H216       -6.8222  -21.3455  -47.7308 H         1 UNK         0.0600 
    217 H217       -9.2197  -20.8901  -47.5054 H         1 UNK         0.0600 
    218 H218       -8.9380  -22.6038  -47.2449 H         1 UNK         0.0600 
    219 H219       -9.6193  -22.0403  -48.7706 H         1 UNK         0.0600 
    220 H220       -5.5427  -21.3102  -50.1005 H         1 UNK         0.3000 
    221 H221       -4.8522  -20.1201  -51.8027 H         1 UNK         0.0600 
    222 H222       -6.6372  -17.8304  -50.8441 H         1 UNK         0.0600 
    223 H223       -5.0307  -18.1914  -50.2135 H         1 UNK         0.0600 
    224 H224       -5.2284  -17.7009  -51.8869 H         1 UNK         0.0600 
    225 H225       -7.5186  -21.6810  -52.0446 H         1 UNK         0.3000 
    226 H226       -8.8212  -20.4993  -54.3615 H         1 UNK         0.0600 
    227 H227      -10.0068  -22.0446  -52.7738 H         1 UNK         0.0600 
    228 H228      -10.0601  -22.6218  -54.4335 H         1 UNK         0.0600 
    229 H229       -8.9545  -23.3639  -53.2871 H         1 UNK         0.0600 
    230 H230       -6.1392  -22.7160  -53.7759 H         1 UNK         0.3000 
    231 H231       -5.5347  -22.9225  -56.7006 H         1 UNK         0.0600 
    232 H232       -4.7546  -24.7886  -54.3859 H         1 UNK         0.0600 
    233 H233       -4.2218  -24.9414  -56.0567 H         1 UNK         0.0600 
    234 H234       -5.9187  -25.1613  -55.6538 H         1 UNK         0.0600 
    235 H235       -5.1113  -20.6012  -55.9149 H         1 UNK         0.3000 
    236 H236       -3.5020  -19.6724  -54.0331 H         1 UNK         0.0600 
    237 H237       -4.8324  -18.2472  -55.5297 H         1 UNK         0.0600 
    238 H238       -3.1804  -17.6537  -55.4828 H         1 UNK         0.0600 
    239 H239       -3.7404  -18.5705  -56.8764 H         1 UNK         0.0600 
    240 H240       -1.4902  -19.7128  -53.4009 H         1 UNK         0.3000 
    241 H241        0.6576  -19.8990  -53.2107 H         1 UNK         0.0600 
    242 H242       -1.0453  -22.4254  -54.4965 H         1 UNK         0.3800 
    243 H243        0.2754  -23.5623  -54.5506 H         1 UNK         0.3800 
    244 H244        2.2582  -19.2188  -54.8975 H         1 UNK         0.0800 
    245 H245        1.1438  -19.5386  -56.1946 H         1 UNK         0.0800 
    246 H246        1.4833  -15.6444  -53.8105 H         1 UNK         0.0800 
    247 H247        2.6883  -16.8896  -54.0190 H         1 UNK         0.0800 
@<TRIPOS>BOND
     1    1    2 1    
     2    1  127 1    
     3    1  128 1    
     4    1  129 1    
     5    2    3 2    
     6    2    4 am   BACKBONE|DICT|INTERRES
     7    4    5 1    
     8    4  130 1    
     9    5    6 1    
    10    5   65 1    
    11    5  131 1    
    12    6    7 1    
    13    6  132 1    
    14    6  133 1    
    15    7    8 1    
    16    8    9 1    
    17    8  134 1    
    18    8  135 1    
    19    9   10 ar   
    20    9   14 ar   
    21   10   11 ar   
    22   10  136 1    
    23   11   12 ar   
    24   11  126 1    
    25   12   13 ar   
    26   12  137 1    
    27   13   14 ar   
    28   13   15 1    
    29   14  138 1    
    30   15   16 1    
    31   15  139 1    
    32   15  140 1    
    33   16   17 1    
    34   17   18 1    
    35   17  141 1    
    36   17  142 1    
    37   18   19 1    
    38   18   67 1    
    39   18  143 1    
    40   19   20 am   BACKBONE|DICT|INTERRES
    41   19  144 1    
    42   20   21 2    
    43   20   22 1    
    44   22   23 1    
    45   22   24 1    
    46   22  145 1    
    47   23  146 1    
    48   23  147 1    
    49   23  148 1    
    50   24   25 am   BACKBONE|DICT|INTERRES
    51   24  149 1    
    52   25   26 2    
    53   25   27 1    
    54   27   28 1    
    55   27   29 1    
    56   27  150 1    
    57   28  151 1    
    58   28  152 1    
    59   28  153 1    
    60   29   30 am   BACKBONE|DICT|INTERRES
    61   29  154 1    
    62   30   31 2    
    63   30   32 1    
    64   32   33 1    
    65   32   34 1    
    66   32  155 1    
    67   33  156 1    
    68   33  157 1    
    69   33  158 1    
    70   34   35 am   BACKBONE|DICT|INTERRES
    71   34  159 1    
    72   35   36 2    
    73   35   37 1    
    74   37   38 1    
    75   37   39 1    
    76   37  160 1    
    77   38  161 1    
    78   38  162 1    
    79   38  163 1    
    80   39   40 am   BACKBONE|DICT|INTERRES
    81   39  164 1    
    82   40   41 2    
    83   40   42 1    
    84   42   43 1    
    85   42   44 1    
    86   42  165 1    
    87   43  166 1    
    88   43  167 1    
    89   43  168 1    
    90   44   45 am   BACKBONE|DICT|INTERRES
    91   44  169 1    
    92   45   46 2    
    93   45   47 1    
    94   47   48 1    
    95   47   49 1    
    96   47  170 1    
    97   48  171 1    
    98   48  172 1    
    99   48  173 1    
   100   49   50 am   BACKBONE|DICT|INTERRES
   101   49  174 1    
   102   50   51 2    
   103   50   52 1    
   104   52   53 1    
   105   52   54 1    
   106   52  175 1    
   107   53  176 1    
   108   53  177 1    
   109   53  178 1    
   110   54   55 am   BACKBONE|DICT|INTERRES
   111   54  179 1    
   112   55   56 2    
   113   55   57 1    
   114   57   58 1    
   115   57   59 1    
   116   57  180 1    
   117   58  181 1    
   118   58  182 1    
   119   58  183 1    
   120   59   60 am   BACKBONE|DICT|INTERRES
   121   59  184 1    
   122   60   61 2    
   123   60   62 1    
   124   62   63 1    
   125   62   64 1    
   126   62  185 1    
   127   63  186 1    
   128   63  187 1    
   129   63  188 1    
   130   64   65 am   BACKBONE|DICT|INTERRES
   131   64  189 1    
   132   65   66 2    
   133   67   68 2    
   134   67   69 am   BACKBONE|DICT|INTERRES
   135   69   70 1    
   136   69  190 1    
   137   70   71 1    
   138   70   72 1    
   139   70  191 1    
   140   71  192 1    
   141   71  193 1    
   142   71  194 1    
   143   72   73 2    
   144   72   74 am   BACKBONE|DICT|INTERRES
   145   74   75 1    
   146   74  195 1    
   147   75   76 1    
   148   75   77 1    
   149   75  196 1    
   150   76  197 1    
   151   76  198 1    
   152   76  199 1    
   153   77   78 2    
   154   77   79 am   BACKBONE|DICT|INTERRES
   155   79   80 1    
   156   79  200 1    
   157   80   81 1    
   158   80   82 1    
   159   80  201 1    
   160   81  202 1    
   161   81  203 1    
   162   81  204 1    
   163   82   83 2    
   164   82   84 am   BACKBONE|DICT|INTERRES
   165   84   85 1    
   166   84  205 1    
   167   85   86 1    
   168   85   87 1    
   169   85  206 1    
   170   86  207 1    
   171   86  208 1    
   172   86  209 1    
   173   87   88 2    
   174   87   89 am   BACKBONE|DICT|INTERRES
   175   89   90 1    
   176   89  210 1    
   177   90   91 1    
   178   90   92 1    
   179   90  211 1    
   180   91  212 1    
   181   91  213 1    
   182   91  214 1    
   183   92   93 2    
   184   92   94 am   BACKBONE|DICT|INTERRES
   185   94   95 1    
   186   94  215 1    
   187   95   96 1    
   188   95   97 1    
   189   95  216 1    
   190   96  217 1    
   191   96  218 1    
   192   96  219 1    
   193   97   98 2    
   194   97   99 am   BACKBONE|DICT|INTERRES
   195   99  100 1    
   196   99  220 1    
   197  100  101 1    
   198  100  102 1    
   199  100  221 1    
   200  101  222 1    
   201  101  223 1    
   202  101  224 1    
   203  102  103 2    
   204  102  104 am   BACKBONE|DICT|INTERRES
   205  104  105 1    
   206  104  225 1    
   207  105  106 1    
   208  105  107 1    
   209  105  226 1    
   210  106  227 1    
   211  106  228 1    
   212  106  229 1    
   213  107  108 2    
   214  107  109 am   BACKBONE|DICT|INTERRES
   215  109  110 1    
   216  109  230 1    
   217  110  111 1    
   218  110  112 1    
   219  110  231 1    
   220  111  232 1    
   221  111  233 1    
   222  111  234 1    
   223  112  113 2    
   224  112  114 am   BACKBONE|DICT|INTERRES
   225  114  115 1    
   226  114  235 1    
   227  115  116 1    
   228  115  117 1    
   229  115  236 1    
   230  116  237 1    
   231  116  238 1    
   232  116  239 1    
   233  117  118 2    
   234  117  119 am   BACKBONE|DICT|INTERRES
   235  119  120 1    
   236  119  240 1    
   237  120  121 1    
   238  120  124 1    
   239  120  241 1    
   240  121  122 am   BACKBONE|DICT|INTERRES
   241  121  123 2    
   242  122  242 1    
   243  122  243 1    
   244  124  125 1    
   245  124  244 1    
   246  124  245 1    
   247  125  126 1    
   248  126  246 1    
   249  126  247 1    
@<TRIPOS>SUBSTRUCTURE
     1 UNK         1 GROUP             0       ****    0 ROOT    
