@<TRIPOS>MOLECULE
3R540
247   249    1
SMALL
USER_CHARGES


@<TRIPOS>ATOM
      1 CA         -6.5578  -11.0607  -47.3785 C.3       0 UNK        -0.1800 
      2 C          -5.1000  -11.4004  -47.6561 C.2       0 UNK         0.5000 
      3 O          -4.3892  -10.5988  -48.2638 O.2       0 UNK        -0.5000 
      4 N          -4.6578  -12.5868  -47.2224 N.am      1 UNK        -0.5000 
      5 CA         -3.2794  -13.0742  -47.3586 C.3       1 UNK         0.1400 
      6 C6         -3.1899  -14.6249  -47.2847 C.3       23 UNK        -0.0398 
      7 S7         -4.4349  -15.4864  -48.3137 S.3       23 UNK        -0.2404 
      8 C8         -3.7937  -15.2639  -50.0049 C.3       23 UNK        -0.0205 
      9 C9         -3.0638  -16.4980  -50.5145 C.ar      23 UNK        -0.0193 
     10 C10        -3.7586  -17.4870  -51.2172 C.ar      23 UNK        -0.1150 
     11 C11        -3.0883  -18.6049  -51.7242 C.ar      23 UNK        -0.0193 
     12 C12        -1.7149  -18.7436  -51.5028 C.ar      23 UNK        -0.1150 
     13 C13        -1.0089  -17.7597  -50.8040 C.ar      23 UNK        -0.0193 
     14 C14        -1.6877  -16.6352  -50.3215 C.ar      23 UNK        -0.1150 
     15 C15         0.4916  -17.8950  -50.5831 C.3       23 UNK        -0.0205 
     16 S16         0.9101  -19.1236  -49.3034 S.3       23 UNK        -0.2404 
     17 C17        -0.0703  -18.5455  -47.8797 C.3       23 UNK        -0.0398 
     18 CA         -1.1120  -19.6075  -47.4449 C.3       11 UNK         0.1400 
     19 N          -0.5600  -20.4749  -46.4035 N.am      11 UNK        -0.5000 
     20 C          -1.1090  -21.5840  -45.8977 C.2       10 UNK         0.5000 
     21 O          -2.1651  -22.0600  -46.3110 O.2       10 UNK        -0.5000 
     22 CA         -0.3941  -22.2201  -44.6846 C.3       10 UNK         0.1400 
     23 CB         -0.3364  -23.7579  -44.7789 C.3       10 UNK        -0.1800 
     24 N           0.9243  -21.6287  -44.4037 N.am      10 UNK        -0.5000 
     25 C           2.0626  -21.7644  -45.1025 C.2       9 UNK         0.5000 
     26 O           2.1980  -22.5321  -46.0541 O.2       9 UNK        -0.5000 
     27 CA          3.2458  -20.8548  -44.7097 C.3       9 UNK         0.1400 
     28 CB          3.4519  -19.7689  -45.7780 C.3       9 UNK        -0.1800 
     29 N           3.0922  -20.2019  -43.4072 N.am      9 UNK        -0.5000 
     30 C           3.2683  -20.8069  -42.2247 C.2       8 UNK         0.5000 
     31 O           3.5950  -21.9879  -42.1031 O.2       8 UNK        -0.5000 
     32 CA          3.0153  -19.9544  -40.9659 C.3       8 UNK         0.1400 
     33 CB          4.2655  -19.1400  -40.6005 C.3       8 UNK        -0.1800 
     34 N           1.8716  -19.0508  -41.1062 N.am      8 UNK        -0.5000 
     35 C           0.5991  -19.4489  -41.2462 C.2       7 UNK         0.5000 
     36 O           0.2448  -20.6279  -41.2449 O.2       7 UNK        -0.5000 
     37 CA         -0.4482  -18.3476  -41.4877 C.3       7 UNK         0.1400 
     38 CB         -0.8465  -17.6586  -40.1751 C.3       7 UNK        -0.1800 
     39 N           0.0046  -17.3526  -42.4613 N.am      7 UNK        -0.5000 
     40 C           0.2558  -17.6258  -43.7478 C.2       6 UNK         0.5000 
     41 O           0.0530  -18.7250  -44.2588 O.2       6 UNK        -0.5000 
     42 CA          0.8475  -16.5050  -44.6149 C.3       6 UNK         0.1400 
     43 CB         -0.2663  -15.6684  -45.2535 C.3       6 UNK        -0.1800 
     44 N           1.7798  -15.6542  -43.8796 N.am      6 UNK        -0.5000 
     45 C           2.9680  -16.0794  -43.4262 C.2       5 UNK         0.5000 
     46 O           3.4145  -17.2084  -43.6319 O.2       5 UNK        -0.5000 
     47 CA          3.7528  -15.1025  -42.5363 C.3       5 UNK         0.1400 
     48 CB          4.4970  -14.0558  -43.3788 C.3       5 UNK        -0.1800 
     49 N           2.8773  -14.4401  -41.5688 N.am      5 UNK        -0.5000 
     50 C           2.2871  -15.0741  -40.5450 C.2       4 UNK         0.5000 
     51 O           2.4654  -16.2651  -40.2888 O.2       4 UNK        -0.5000 
     52 CA          1.3086  -14.2586  -39.6806 C.3       4 UNK         0.1400 
     53 CB          2.0476  -13.6114  -38.5001 C.3       4 UNK        -0.1800 
     54 N           0.5865  -13.2233  -40.4213 N.am      4 UNK        -0.5000 
     55 C          -0.2776  -13.4409  -41.4230 C.2       3 UNK         0.5000 
     56 O          -0.5465  -14.5633  -41.8539 O.2       3 UNK        -0.5000 
     57 CA         -0.9613  -12.2023  -42.0462 C.3       3 UNK         0.1400 
     58 CB         -0.4779  -10.8583  -41.4562 C.3       3 UNK        -0.1800 
     59 N          -0.8727  -12.1396  -43.5088 N.am      3 UNK        -0.5000 
     60 C           0.2104  -12.2756  -44.2829 C.2       2 UNK         0.5000 
     61 O           1.3001  -12.6695  -43.8621 O.2       2 UNK        -0.5000 
     62 CA          0.0539  -11.8760  -45.7729 C.3       2 UNK         0.1400 
     63 CB          1.3622  -12.0648  -46.5639 C.3       2 UNK        -0.1800 
     64 N          -1.0294  -12.5416  -46.5119 N.am      2 UNK        -0.5000 
     65 C          -2.3484  -12.3873  -46.3283 C.2       1 UNK         0.5000 
     66 O          -2.8299  -11.7268  -45.4030 O.2       1 UNK        -0.5000 
     67 C          -2.4374  -18.9565  -47.0055 C.2       11 UNK         0.5000 
     68 O          -3.3269  -18.7846  -47.8351 O.2       11 UNK        -0.5000 
     69 N          -2.5871  -18.6767  -45.7020 N.am      12 UNK        -0.5000 
     70 CA         -3.8330  -18.1832  -45.1046 C.3       12 UNK         0.1400 
     71 CB         -3.5663  -17.7579  -43.6543 C.3       12 UNK        -0.1800 
     72 C          -4.9942  -19.2005  -45.1671 C.2       12 UNK         0.5000 
     73 O          -6.1535  -18.7965  -45.0781 O.2       12 UNK        -0.5000 
     74 N          -4.6668  -20.4889  -45.3418 N.am      13 UNK        -0.5000 
     75 CA         -5.6093  -21.5822  -45.5790 C.3       13 UNK         0.1400 
     76 CB         -5.1985  -22.7859  -44.7134 C.3       13 UNK        -0.1800 
     77 C          -5.7100  -21.9442  -47.0782 C.2       13 UNK         0.5000 
     78 O          -6.3044  -22.9710  -47.4087 O.2       13 UNK        -0.5000 
     79 N          -5.1519  -21.0948  -47.9566 N.am      14 UNK        -0.5000 
     80 CA         -5.1780  -21.1475  -49.4187 C.3       14 UNK         0.1400 
     81 CB         -6.5935  -20.8274  -49.9463 C.3       14 UNK        -0.1800 
     82 C          -4.5912  -22.4549  -49.9802 C.2       14 UNK         0.5000 
     83 O          -3.3692  -22.5753  -50.0823 O.2       14 UNK        -0.5000 
     84 N          -5.4666  -23.4097  -50.3215 N.am      15 UNK        -0.5000 
     85 CA         -5.1653  -24.6965  -50.9534 C.3       15 UNK         0.1400 
     86 CB         -6.4884  -25.4043  -51.2810 C.3       15 UNK        -0.1800 
     87 C          -4.2374  -25.6251  -50.1453 C.2       15 UNK         0.5000 
     88 O          -3.6899  -26.5671  -50.7180 O.2       15 UNK        -0.5000 
     89 N          -4.0540  -25.3431  -48.8480 N.am      16 UNK        -0.5000 
     90 CA         -3.0662  -25.9996  -47.9908 C.3       16 UNK         0.1400 
     91 CB         -3.2975  -25.5691  -46.5375 C.3       16 UNK        -0.1800 
     92 C          -1.6123  -25.7126  -48.4237 C.2       16 UNK         0.5000 
     93 O          -0.7639  -26.5958  -48.2939 O.2       16 UNK        -0.5000 
     94 N          -1.3610  -24.5079  -48.9557 N.am      17 UNK        -0.5000 
     95 CA         -0.1001  -24.1320  -49.5978 C.3       17 UNK         0.1400 
     96 CB          0.2874  -22.7113  -49.1736 C.3       17 UNK        -0.1800 
     97 C          -0.2221  -24.2003  -51.1279 C.2       17 UNK         0.5000 
     98 O           0.7267  -24.6139  -51.7947 O.2       17 UNK        -0.5000 
     99 N          -1.3817  -23.7789  -51.6538 N.am      18 UNK        -0.5000 
    100 CA        -1.8261  -23.7543  -53.0517 C.3       18 UNK         0.1400 
    101 CB        -1.8551  -25.1709  -53.6553 C.3       18 UNK        -0.1800 
    102 C         -1.0722  -22.7840  -53.9786 C.2       18 UNK         0.5000 
    103 O         -1.6927  -22.2214  -54.8818 O.2       18 UNK        -0.5000 
    104 N          0.2451  -22.6323  -53.7848 N.am      19 UNK        -0.5000 
    105 CA         1.1661  -21.7475  -54.5152 C.3       19 UNK         0.1400 
    106 CB         0.8624  -20.2765  -54.1634 C.3       19 UNK        -0.1800 
    107 C          1.2100  -21.9833  -56.0449 C.2       19 UNK         0.5000 
    108 O          1.6612  -21.1082  -56.7851 O.2       19 UNK        -0.5000 
    109 N          0.7192  -23.1528  -56.4860 N.am      20 UNK        -0.5000 
    110 CA         0.4711  -23.5632  -57.8721 C.3       20 UNK         0.1400 
    111 CB         1.8020  -23.7462  -58.6315 C.3       20 UNK        -0.1800 
    112 C         -0.5282  -22.6490  -58.6215 C.2       20 UNK         0.5000 
    113 O         -0.4585  -22.5573  -59.8490 O.2       20 UNK        -0.5000 
    114 N         -1.4342  -21.9868  -57.8853 N.am      21 UNK        -0.5000 
    115 CA        -2.3634  -20.9922  -58.4297 C.3       21 UNK         0.1400 
    116 CB        -1.7280  -19.5962  -58.3073 C.3       21 UNK        -0.1800 
    117 C         -3.7513  -21.0071  -57.7658 C.2       21 UNK         0.5000 
    118 O         -4.7132  -20.5591  -58.3923 O.2       21 UNK        -0.5000 
    119 N         -3.8479  -21.4905  -56.5237 N.am      22 UNK        -0.5000 
    120 CA        -5.0432  -21.3843  -55.6730 C.3       22 UNK         0.1400 
    121 C         -5.1907  -22.5734  -54.6840 C.2       22 UNK         0.5000 
    122 N         -4.7330  -23.7660  -55.0450 N.am      22 UNK        -0.7600 
    123 O         -5.7390  -22.4334  -53.5949 O.2       22 UNK        -0.5000 
    124 C124       -5.1953  -19.9757  -55.0280 C.3       23 UNK        -0.0398 
    125 S125       -3.6620  -19.2764  -54.3169 S.3       23 UNK        -0.2404 
    126 C126       -3.8437  -19.6368  -52.5457 C.3       23 UNK        -0.0205 
    127 H127       -6.6233  -10.1590  -46.7696 H         1 UNK         0.0600 
    128 H128       -7.0864  -10.8809  -48.3147 H         1 UNK         0.0600 
    129 H129       -7.0681  -11.8660  -46.8495 H         1 UNK         0.0600 
    130 H130       -5.2870  -13.1975  -46.7222 H         1 UNK         0.3000 
    131 H131       -2.9232  -12.7728  -48.3456 H         1 UNK         0.0600 
    132 H132       -2.1998  -14.9708  -47.5837 H         1 UNK         0.0800 
    133 H133       -3.3313  -14.9621  -46.2564 H         1 UNK         0.0800 
    134 H134       -3.1412  -14.3921  -50.0572 H         1 UNK         0.0800 
    135 H135       -4.6350  -15.0424  -50.6632 H         1 UNK         0.0800 
    136 H136       -4.8203  -17.3758  -51.3867 H         1 UNK         0.1150 
    137 H137       -1.1938  -19.6075  -51.8906 H         1 UNK         0.1150 
    138 H138       -1.1453  -15.8652  -49.7919 H         1 UNK         0.1150 
    139 H139        0.9706  -18.1826  -51.5198 H         1 UNK         0.0800 
    140 H140        0.9265  -16.9338  -50.3050 H         1 UNK         0.0800 
    141 H141       -0.5306  -17.5877  -48.1177 H         1 UNK         0.0800 
    142 H142        0.6206  -18.3227  -47.0690 H         1 UNK         0.0800 
    143 H143       -1.3707  -20.2362  -48.2985 H         1 UNK         0.0600 
    144 H144        0.2511  -20.1177  -45.9180 H         1 UNK         0.3000 
    145 H145       -1.0080  -21.9724  -43.8175 H         1 UNK         0.0600 
    146 H146        0.2364  -24.1852  -43.9560 H         1 UNK         0.0600 
    147 H147       -1.3385  -24.1831  -44.7298 H         1 UNK         0.0600 
    148 H148        0.1113  -24.0935  -45.7149 H         1 UNK         0.0600 
    149 H149        0.9303  -20.9509  -43.6520 H         1 UNK         0.3000 
    150 H150        4.1412  -21.4793  -44.6830 H         1 UNK         0.0600 
    151 H151        3.5857  -20.2070  -46.7681 H         1 UNK         0.0600 
    152 H152        4.3383  -19.1710  -45.5656 H         1 UNK         0.0600 
    153 H153        2.5991  -19.0929  -45.8309 H         1 UNK         0.0600 
    154 H154        2.8941  -19.2069  -43.4181 H         1 UNK         0.3000 
    155 H155        2.8023  -20.6374  -40.1410 H         1 UNK         0.0600 
    156 H156        4.5125  -18.4120  -41.3739 H         1 UNK         0.0600 
    157 H157        5.1319  -19.7897  -40.4705 H         1 UNK         0.0600 
    158 H158        4.1222  -18.5973  -39.6659 H         1 UNK         0.0600 
    159 H159        2.0723  -18.0557  -41.0739 H         1 UNK         0.3000 
    160 H160       -1.3372  -18.8306  -41.8939 H         1 UNK         0.0600 
    161 H161       -1.5829  -16.8734  -40.3478 H         1 UNK         0.0600 
    162 H162        0.0125  -17.2120  -39.6765 H         1 UNK         0.0600 
    163 H163       -1.2887  -18.3743  -39.4812 H         1 UNK         0.0600 
    164 H164        0.1029  -16.3949  -42.1381 H         1 UNK         0.3000 
    165 H165        1.4109  -16.9775  -45.4200 H         1 UNK         0.0600 
    166 H166        0.1488  -14.9673  -45.9747 H         1 UNK         0.0600 
    167 H167       -0.9732  -16.3009  -45.7900 H         1 UNK         0.0600 
    168 H168       -0.8310  -15.1061  -44.5096 H         1 UNK         0.0600 
    169 H169        1.4843  -14.7070  -43.6668 H         1 UNK         0.3000 
    170 H170        4.4969  -15.6799  -41.9831 H         1 UNK         0.0600 
    171 H171        5.1838  -14.5370  -44.0761 H         1 UNK         0.0600 
    172 H172        3.8136  -13.4424  -43.9658 H         1 UNK         0.0600 
    173 H173        5.0873  -13.3904  -42.7487 H         1 UNK         0.0600 
    174 H174        2.6366  -13.4760  -41.7524 H         1 UNK         0.3000 
    175 H175        0.5682  -14.9509  -39.2768 H         1 UNK         0.0600 
    176 H176        1.3534  -13.1053  -37.8289 H         1 UNK         0.0600 
    177 H177        2.5765  -14.3625  -37.9117 H         1 UNK         0.0600 
    178 H178        2.7836  -12.8805  -38.8373 H         1 UNK         0.0600 
    179 H179        0.7546  -12.2693  -40.1368 H         1 UNK         0.3000 
    180 H180       -2.0219  -12.3022  -41.8122 H         1 UNK         0.0600 
    181 H181        0.5824  -10.6876  -41.6480 H         1 UNK         0.0600 
    182 H182       -0.6411  -10.8105  -40.3788 H         1 UNK         0.0600 
    183 H183       -1.0271  -10.0239  -41.8930 H         1 UNK         0.0600 
    184 H184       -1.7333  -11.8859  -43.9906 H         1 UNK         0.3000 
    185 H185       -0.1680  -10.8069  -45.7724 H         1 UNK         0.0600 
    186 H186        1.6554  -13.1140  -46.6153 H         1 UNK         0.0600 
    187 H187        1.2664  -11.6915  -47.5837 H         1 UNK         0.0600 
    188 H188        2.1845  -11.5180  -46.1003 H         1 UNK         0.0600 
    189 H189       -0.7220  -13.1025  -47.2923 H         1 UNK         0.3000 
    190 H190       -1.8075  -18.8524  -45.0773 H         1 UNK         0.3000 
    191 H191       -4.1451  -17.3006  -45.6662 H         1 UNK         0.0600 
    192 H192       -3.2923  -18.6119  -43.0358 H         1 UNK         0.0600 
    193 H193       -4.4559  -17.3083  -43.2114 H         1 UNK         0.0600 
    194 H194       -2.7681  -17.0182  -43.5939 H         1 UNK         0.0600 
    195 H195       -3.6904  -20.7336  -45.4488 H         1 UNK         0.3000 
    196 H196       -6.6128  -21.2843  -45.2692 H         1 UNK         0.0600 
    197 H197       -5.8544  -23.6412  -44.8796 H         1 UNK         0.0600 
    198 H198       -5.2552  -22.5390  -43.6533 H         1 UNK         0.0600 
    199 H199       -4.1789  -23.1053  -44.9215 H         1 UNK         0.0600 
    200 H200       -4.6456  -20.2972  -47.5881 H         1 UNK         0.3000 
    201 H201       -4.5162  -20.3509  -49.7599 H         1 UNK         0.0600 
    202 H202       -6.8854  -19.8130  -49.6744 H         1 UNK         0.0600 
    203 H203       -7.3495  -21.5043  -49.5474 H         1 UNK         0.0600 
    204 H204       -6.6330  -20.8923  -51.0346 H         1 UNK         0.0600 
    205 H205       -6.4438  -23.2247  -50.1481 H         1 UNK         0.3000 
    206 H206       -4.6559  -24.4827  -51.8936 H         1 UNK         0.0600 
    207 H207       -7.1041  -24.7979  -51.9460 H         1 UNK         0.0600 
    208 H208       -6.3117  -26.3560  -51.7840 H         1 UNK         0.0600 
    209 H209       -7.0666  -25.6106  -50.3794 H         1 UNK         0.0600 
    210 H210       -4.5635  -24.5646  -48.4521 H         1 UNK         0.3000 
    211 H211       -3.2269  -27.0777  -48.0565 H         1 UNK         0.0600 
    212 H212       -3.1469  -24.4975  -46.4200 H         1 UNK         0.0600 
    213 H213       -2.6057  -26.0766  -45.8642 H         1 UNK         0.0600 
    214 H214       -4.3091  -25.8056  -46.2075 H         1 UNK         0.0600 
    215 H215       -2.1235  -23.8445  -49.0364 H         1 UNK         0.3000 
    216 H216        0.7029  -24.8057  -49.2918 H         1 UNK         0.0600 
    217 H217        1.2218  -22.4008  -49.6427 H         1 UNK         0.0600 
    218 H218        0.4334  -22.6521  -48.0970 H         1 UNK         0.0600 
    219 H219       -0.4776  -21.9880  -49.4549 H         1 UNK         0.0600 
    220 H220       -2.0604  -23.3807  -51.0075 H         1 UNK         0.3000 
    221 H221       -2.8512  -23.3879  -53.0110 H         1 UNK         0.0600 
    222 H222       -0.8616  -25.6172  -53.7002 H         1 UNK         0.0600 
    223 H223       -2.4930  -25.8344  -53.0724 H         1 UNK         0.0600 
    224 H224       -2.2470  -25.1560  -54.6727 H         1 UNK         0.0600 
    225 H225        0.6636  -23.2112  -53.0612 H         1 UNK         0.3000 
    226 H226        2.1666  -21.9779  -54.1471 H         1 UNK         0.0600 
    227 H227       -0.1180  -19.9669  -54.5280 H         1 UNK         0.0600 
    228 H228        1.6018  -19.6035  -54.5986 H         1 UNK         0.0600 
    229 H229        0.8838  -20.1220  -53.0851 H         1 UNK         0.0600 
    230 H230        0.3827  -23.7926  -55.7812 H         1 UNK         0.3000 
    231 H231       -0.0090  -24.5409  -57.8143 H         1 UNK         0.0600 
    232 H232        2.4825  -24.3977  -58.0834 H         1 UNK         0.0600 
    233 H233        2.3083  -22.7948  -58.7967 H         1 UNK         0.0600 
    234 H234        1.6370  -24.2018  -59.6085 H         1 UNK         0.0600 
    235 H235       -1.4251  -22.1044  -56.8779 H         1 UNK         0.3000 
    236 H236       -2.5393  -21.1958  -59.4880 H         1 UNK         0.0600 
    237 H237       -0.7918  -19.5381  -58.8629 H         1 UNK         0.0600 
    238 H238       -2.3900  -18.8253  -58.7037 H         1 UNK         0.0600 
    239 H239       -1.5155  -19.3460  -57.2667 H         1 UNK         0.0600 
    240 H240       -3.0176  -21.8052  -56.0274 H         1 UNK         0.3000 
    241 H241       -5.9137  -21.5142  -56.3184 H         1 UNK         0.0600 
    242 H242       -4.8658  -24.5534  -54.4334 H         1 UNK         0.3800 
    243 H243       -4.3166  -23.8986  -55.9529 H         1 UNK         0.3800 
    244 H244       -5.5134  -19.2787  -55.8041 H         1 UNK         0.0800 
    245 H245       -6.0006  -19.9547  -54.2926 H         1 UNK         0.0800 
    246 H246       -3.4685  -20.6407  -52.3404 H         1 UNK         0.0800 
    247 H247       -4.8978  -19.6326  -52.2677 H         1 UNK         0.0800 
@<TRIPOS>BOND
     1    1    2 1    
     2    1  127 1    
     3    1  128 1    
     4    1  129 1    
     5    2    3 2    
     6    2    4 am   BACKBONE|DICT|INTERRES
     7    4    5 1    
     8    4  130 1    
     9    5    6 1    
    10    5   65 1    
    11    5  131 1    
    12    6    7 1    
    13    6  132 1    
    14    6  133 1    
    15    7    8 1    
    16    8    9 1    
    17    8  134 1    
    18    8  135 1    
    19    9   10 ar   
    20    9   14 ar   
    21   10   11 ar   
    22   10  136 1    
    23   11   12 ar   
    24   11  126 1    
    25   12   13 ar   
    26   12  137 1    
    27   13   14 ar   
    28   13   15 1    
    29   14  138 1    
    30   15   16 1    
    31   15  139 1    
    32   15  140 1    
    33   16   17 1    
    34   17   18 1    
    35   17  141 1    
    36   17  142 1    
    37   18   19 1    
    38   18   67 1    
    39   18  143 1    
    40   19   20 am   BACKBONE|DICT|INTERRES
    41   19  144 1    
    42   20   21 2    
    43   20   22 1    
    44   22   23 1    
    45   22   24 1    
    46   22  145 1    
    47   23  146 1    
    48   23  147 1    
    49   23  148 1    
    50   24   25 am   BACKBONE|DICT|INTERRES
    51   24  149 1    
    52   25   26 2    
    53   25   27 1    
    54   27   28 1    
    55   27   29 1    
    56   27  150 1    
    57   28  151 1    
    58   28  152 1    
    59   28  153 1    
    60   29   30 am   BACKBONE|DICT|INTERRES
    61   29  154 1    
    62   30   31 2    
    63   30   32 1    
    64   32   33 1    
    65   32   34 1    
    66   32  155 1    
    67   33  156 1    
    68   33  157 1    
    69   33  158 1    
    70   34   35 am   BACKBONE|DICT|INTERRES
    71   34  159 1    
    72   35   36 2    
    73   35   37 1    
    74   37   38 1    
    75   37   39 1    
    76   37  160 1    
    77   38  161 1    
    78   38  162 1    
    79   38  163 1    
    80   39   40 am   BACKBONE|DICT|INTERRES
    81   39  164 1    
    82   40   41 2    
    83   40   42 1    
    84   42   43 1    
    85   42   44 1    
    86   42  165 1    
    87   43  166 1    
    88   43  167 1    
    89   43  168 1    
    90   44   45 am   BACKBONE|DICT|INTERRES
    91   44  169 1    
    92   45   46 2    
    93   45   47 1    
    94   47   48 1    
    95   47   49 1    
    96   47  170 1    
    97   48  171 1    
    98   48  172 1    
    99   48  173 1    
   100   49   50 am   BACKBONE|DICT|INTERRES
   101   49  174 1    
   102   50   51 2    
   103   50   52 1    
   104   52   53 1    
   105   52   54 1    
   106   52  175 1    
   107   53  176 1    
   108   53  177 1    
   109   53  178 1    
   110   54   55 am   BACKBONE|DICT|INTERRES
   111   54  179 1    
   112   55   56 2    
   113   55   57 1    
   114   57   58 1    
   115   57   59 1    
   116   57  180 1    
   117   58  181 1    
   118   58  182 1    
   119   58  183 1    
   120   59   60 am   BACKBONE|DICT|INTERRES
   121   59  184 1    
   122   60   61 2    
   123   60   62 1    
   124   62   63 1    
   125   62   64 1    
   126   62  185 1    
   127   63  186 1    
   128   63  187 1    
   129   63  188 1    
   130   64   65 am   BACKBONE|DICT|INTERRES
   131   64  189 1    
   132   65   66 2    
   133   67   68 2    
   134   67   69 am   BACKBONE|DICT|INTERRES
   135   69   70 1    
   136   69  190 1    
   137   70   71 1    
   138   70   72 1    
   139   70  191 1    
   140   71  192 1    
   141   71  193 1    
   142   71  194 1    
   143   72   73 2    
   144   72   74 am   BACKBONE|DICT|INTERRES
   145   74   75 1    
   146   74  195 1    
   147   75   76 1    
   148   75   77 1    
   149   75  196 1    
   150   76  197 1    
   151   76  198 1    
   152   76  199 1    
   153   77   78 2    
   154   77   79 am   BACKBONE|DICT|INTERRES
   155   79   80 1    
   156   79  200 1    
   157   80   81 1    
   158   80   82 1    
   159   80  201 1    
   160   81  202 1    
   161   81  203 1    
   162   81  204 1    
   163   82   83 2    
   164   82   84 am   BACKBONE|DICT|INTERRES
   165   84   85 1    
   166   84  205 1    
   167   85   86 1    
   168   85   87 1    
   169   85  206 1    
   170   86  207 1    
   171   86  208 1    
   172   86  209 1    
   173   87   88 2    
   174   87   89 am   BACKBONE|DICT|INTERRES
   175   89   90 1    
   176   89  210 1    
   177   90   91 1    
   178   90   92 1    
   179   90  211 1    
   180   91  212 1    
   181   91  213 1    
   182   91  214 1    
   183   92   93 2    
   184   92   94 am   BACKBONE|DICT|INTERRES
   185   94   95 1    
   186   94  215 1    
   187   95   96 1    
   188   95   97 1    
   189   95  216 1    
   190   96  217 1    
   191   96  218 1    
   192   96  219 1    
   193   97   98 2    
   194   97   99 am   BACKBONE|DICT|INTERRES
   195   99  100 1    
   196   99  220 1    
   197  100  101 1    
   198  100  102 1    
   199  100  221 1    
   200  101  222 1    
   201  101  223 1    
   202  101  224 1    
   203  102  103 2    
   204  102  104 am   BACKBONE|DICT|INTERRES
   205  104  105 1    
   206  104  225 1    
   207  105  106 1    
   208  105  107 1    
   209  105  226 1    
   210  106  227 1    
   211  106  228 1    
   212  106  229 1    
   213  107  108 2    
   214  107  109 am   BACKBONE|DICT|INTERRES
   215  109  110 1    
   216  109  230 1    
   217  110  111 1    
   218  110  112 1    
   219  110  231 1    
   220  111  232 1    
   221  111  233 1    
   222  111  234 1    
   223  112  113 2    
   224  112  114 am   BACKBONE|DICT|INTERRES
   225  114  115 1    
   226  114  235 1    
   227  115  116 1    
   228  115  117 1    
   229  115  236 1    
   230  116  237 1    
   231  116  238 1    
   232  116  239 1    
   233  117  118 2    
   234  117  119 am   BACKBONE|DICT|INTERRES
   235  119  120 1    
   236  119  240 1    
   237  120  121 1    
   238  120  124 1    
   239  120  241 1    
   240  121  122 am   BACKBONE|DICT|INTERRES
   241  121  123 2    
   242  122  242 1    
   243  122  243 1    
   244  124  125 1    
   245  124  244 1    
   246  124  245 1    
   247  125  126 1    
   248  126  246 1    
   249  126  247 1    
@<TRIPOS>SUBSTRUCTURE
     1 UNK         1 GROUP             0       ****    0 ROOT    
