@<TRIPOS>MOLECULE
3R540
247   249    1
SMALL
USER_CHARGES


@<TRIPOS>ATOM
      1 CA         -2.1500  -11.7047  -43.8427 C.3       0 UNK        -0.1800 
      2 C          -1.1050  -11.0672  -44.7479 C.2       0 UNK         0.5000 
      3 O          -1.2851   -9.9294  -45.1834 O.2       0 UNK        -0.5000 
      4 N          -0.0228  -11.7978  -45.0419 N.am      1 UNK        -0.5000 
      5 CA          1.1006  -11.3371  -45.8656 C.3       1 UNK         0.1400 
      6 C6          1.9764  -12.5135  -46.3665 C.3       23 UNK        -0.0398 
      7 S7          1.0136  -13.7848  -47.2474 S.3       23 UNK        -0.2404 
      8 C8          2.1124  -14.1776  -48.6359 C.3       23 UNK        -0.0205 
      9 C9          1.5287  -15.3032  -49.4714 C.ar      23 UNK        -0.0193 
     10 C10         0.6357  -15.0193  -50.5074 C.ar      23 UNK        -0.1150 
     11 C11         0.0977  -16.0528  -51.2773 C.ar      23 UNK        -0.0193 
     12 C12         0.4642  -17.3746  -51.0103 C.ar      23 UNK        -0.1150 
     13 C13         1.3416  -17.6776  -49.9609 C.ar      23 UNK        -0.0193 
     14 C14         1.8728  -16.6307  -49.2024 C.ar      23 UNK        -0.1150 
     15 C15         1.7616  -19.1103  -49.6286 C.3       23 UNK        -0.0205 
     16 S16         0.5935  -20.4093  -50.1555 S.3       23 UNK        -0.2404 
     17 C17        -0.8668  -20.0674  -49.1155 C.3       23 UNK        -0.0398 
     18 CA         -1.2082  -21.2843  -48.2167 C.3       11 UNK         0.1400 
     19 N          -0.6517  -21.1673  -46.8640 N.am      11 UNK        -0.5000 
     20 C          -0.5747  -22.1930  -46.0035 C.2       10 UNK         0.5000 
     21 O          -0.9434  -23.3360  -46.2706 O.2       10 UNK        -0.5000 
     22 CA         -0.0499  -21.8867  -44.5911 C.3       10 UNK         0.1400 
     23 CB          1.4764  -21.7146  -44.5980 C.3       10 UNK        -0.1800 
     24 N          -0.6858  -20.7094  -44.0006 N.am      10 UNK        -0.5000 
     25 C          -1.9965  -20.6060  -43.7368 C.2       9 UNK         0.5000 
     26 O          -2.8037  -21.5154  -43.9233 O.2       9 UNK        -0.5000 
     27 CA         -2.5037  -19.2464  -43.2230 C.3       9 UNK         0.1400 
     28 CB         -2.2867  -19.1204  -41.7086 C.3       9 UNK        -0.1800 
     29 N          -1.8857  -18.1098  -43.9062 N.am      9 UNK        -0.5000 
     30 C          -1.9763  -17.8663  -45.2225 C.2       8 UNK         0.5000 
     31 O          -2.6040  -18.5698  -46.0131 O.2       8 UNK        -0.5000 
     32 CA         -1.1877  -16.6570  -45.7477 C.3       8 UNK         0.1400 
     33 CB         -1.9337  -15.3504  -45.4336 C.3       8 UNK        -0.1800 
     34 N           0.1620  -16.6173  -45.1856 N.am      8 UNK        -0.5000 
     35 C           1.1126  -17.5253  -45.4508 C.2       7 UNK         0.5000 
     36 O           0.9637  -18.4670  -46.2307 O.2       7 UNK        -0.5000 
     37 CA          2.4263  -17.3911  -44.6596 C.3       7 UNK         0.1400 
     38 CB          3.3431  -16.3268  -45.2805 C.3       7 UNK        -0.1800 
     39 N           2.1883  -17.0682  -43.2516 N.am      7 UNK        -0.5000 
     40 C           1.6317  -17.9164  -42.3732 C.2       6 UNK         0.5000 
     41 O           1.2907  -19.0626  -42.6589 O.2       6 UNK        -0.5000 
     42 CA          1.3791  -17.3966  -40.9450 C.3       6 UNK         0.1400 
     43 CB          2.5901  -17.6910  -40.0476 C.3       6 UNK        -0.1800 
     44 N           1.0793  -15.9672  -40.8863 N.am      6 UNK        -0.5000 
     45 C           0.0535  -15.3562  -41.4963 C.2       5 UNK         0.5000 
     46 O          -0.8035  -15.9494  -42.1520 O.2       5 UNK        -0.5000 
     47 CA          0.0144  -13.8174  -41.4004 C.3       5 UNK         0.1400 
     48 CB         -0.9683  -13.3647  -40.3116 C.3       5 UNK        -0.1800 
     49 N           1.3316  -13.2200  -41.1493 N.am      5 UNK        -0.5000 
     50 C           2.3496  -13.2606  -42.0184 C.2       4 UNK         0.5000 
     51 O           2.2657  -13.7680  -43.1401 O.2       4 UNK        -0.5000 
     52 CA          3.7012  -12.7312  -41.5238 C.3       4 UNK         0.1400 
     53 CB          4.4495  -13.8559  -40.7781 C.3       4 UNK        -0.1800 
     54 N           4.4613  -12.2740  -42.6818 N.am      4 UNK        -0.5000 
     55 C           5.6447  -11.6494  -42.6723 C.2       3 UNK         0.5000 
     56 O           6.2805  -11.3840  -41.6514 O.2       3 UNK        -0.5000 
     57 CA          6.1935  -11.2210  -44.0459 C.3       3 UNK         0.1400 
     58 CB          6.6017  -12.4431  -44.8856 C.3       3 UNK        -0.1800 
     59 N           5.2222  -10.4201  -44.7913 N.am      3 UNK        -0.5000 
     60 C           4.8447   -9.1758  -44.4608 C.2       2 UNK         0.5000 
     61 O           5.3487   -8.5274  -43.5430 O.2       2 UNK        -0.5000 
     62 CA          3.7023   -8.5505  -45.2881 C.3       2 UNK         0.1400 
     63 CB          4.2710   -7.7067  -46.4393 C.3       2 UNK        -0.1800 
     64 N           2.7618   -9.5350  -45.8341 N.am      2 UNK        -0.5000 
     65 C           1.9701  -10.3227  -45.0929 C.2       1 UNK         0.5000 
     66 O           1.9487  -10.2973  -43.8594 O.2       1 UNK        -0.5000 
     67 C          -2.7214  -21.5872  -48.2068 C.2       11 UNK         0.5000 
     68 O          -3.1757  -22.3627  -49.0462 O.2       11 UNK        -0.5000 
     69 N          -3.4681  -21.0120  -47.2532 N.am      12 UNK        -0.5000 
     70 CA         -4.8908  -21.2878  -47.0433 C.3       12 UNK         0.1400 
     71 CB         -5.4767  -20.2738  -46.0502 C.3       12 UNK        -0.1800 
     72 C          -5.1569  -22.7315  -46.5758 C.2       12 UNK         0.5000 
     73 O          -6.1102  -23.3525  -47.0444 O.2       12 UNK        -0.5000 
     74 N          -4.3019  -23.2552  -45.6868 N.am      13 UNK        -0.5000 
     75 CA         -4.3429  -24.6430  -45.2220 C.3       13 UNK         0.1400 
     76 CB         -3.4277  -24.8012  -43.9983 C.3       13 UNK        -0.1800 
     77 C          -3.9557  -25.6446  -46.3263 C.2       13 UNK         0.5000 
     78 O          -4.5766  -26.7019  -46.4383 O.2       13 UNK        -0.5000 
     79 N          -2.9544  -25.2815  -47.1375 N.am      14 UNK        -0.5000 
     80 CA         -2.4373  -26.0762  -48.2519 C.3       14 UNK         0.1400 
     81 CB         -0.9776  -25.6689  -48.5128 C.3       14 UNK        -0.1800 
     82 C          -3.2640  -25.9577  -49.5477 C.2       14 UNK         0.5000 
     83 O          -2.8640  -26.5504  -50.5495 O.2       14 UNK        -0.5000 
     84 N          -4.3769  -25.2081  -49.5322 N.am      15 UNK        -0.5000 
     85 CA         -5.1690  -24.8031  -50.7018 C.3       15 UNK         0.1400 
     86 CB         -6.3253  -23.9028  -50.2458 C.3       15 UNK        -0.1800 
     87 C          -5.7071  -25.9404  -51.5959 C.2       15 UNK         0.5000 
     88 O          -6.0430  -25.6872  -52.7541 O.2       15 UNK        -0.5000 
     89 N          -5.7886  -27.1629  -51.0559 N.am      16 UNK        -0.5000 
     90 CA         -6.1535  -28.3717  -51.7948 C.3       16 UNK         0.1400 
     91 CB         -6.5819  -29.4554  -50.7936 C.3       16 UNK        -0.1800 
     92 C          -5.0158  -28.8935  -52.6969 C.2       16 UNK         0.5000 
     93 O          -5.3001  -29.5211  -53.7177 O.2       16 UNK        -0.5000 
     94 N          -3.7599  -28.6382  -52.3062 N.am      17 UNK        -0.5000 
     95 CA         -2.5544  -29.0332  -53.0352 C.3       17 UNK         0.1400 
     96 CB         -1.5068  -29.5566  -52.0389 C.3       17 UNK        -0.1800 
     97 C          -2.0043  -27.8431  -53.8344 C.2       17 UNK         0.5000 
     98 O          -1.7682  -27.9656  -55.0372 O.2       17 UNK        -0.5000 
     99 N          -1.8577  -26.6953  -53.1615 N.am      18 UNK        -0.5000 
    100 CA        -1.5448  -25.3983  -53.7513 C.3       18 UNK         0.1400 
    101 CB        -0.8186  -24.5392  -52.6987 C.3       18 UNK        -0.1800 
    102 C         -2.8653  -24.7674  -54.2199 C.2       18 UNK         0.5000 
    103 O         -3.4090  -23.9151  -53.5209 O.2       18 UNK        -0.5000 
    104 N         -3.3818  -25.2815  -55.3453 N.am      19 UNK        -0.5000 
    105 CA        -4.7285  -25.1063  -55.8997 C.3       19 UNK         0.1400 
    106 CB        -4.7074  -25.5254  -57.3793 C.3       19 UNK        -0.1800 
    107 C         -5.3484  -23.7038  -55.7277 C.2       19 UNK         0.5000 
    108 O         -4.9997  -22.7810  -56.4666 O.2       19 UNK        -0.5000 
    109 N         -6.2567  -23.5960  -54.7480 N.am      20 UNK        -0.5000 
    110 CA        -7.0254  -22.4087  -54.3610 C.3       20 UNK         0.1400 
    111 CB        -7.9301  -21.9283  -55.5158 C.3       20 UNK        -0.1800 
    112 C         -6.1701  -21.2763  -53.7531 C.2       20 UNK         0.5000 
    113 O         -6.5466  -20.1061  -53.8549 O.2       20 UNK        -0.5000 
    114 N         -5.0507  -21.6412  -53.1102 N.am      21 UNK        -0.5000 
    115 CA        -4.0943  -20.7708  -52.4231 C.3       21 UNK         0.1400 
    116 CB        -4.7323  -20.1536  -51.1565 C.3       21 UNK        -0.1800 
    117 C         -3.4918  -19.7365  -53.3940 C.2       21 UNK         0.5000 
    118 O         -2.7044  -20.1130  -54.2634 O.2       21 UNK        -0.5000 
    119 N         -3.8801  -18.4659  -53.2415 N.am      22 UNK        -0.5000 
    120 CA        -3.4916  -17.3562  -54.1245 C.3       22 UNK         0.1400 
    121 C         -4.3095  -17.2820  -55.4479 C.2       22 UNK         0.5000 
    122 N         -5.3727  -18.0580  -55.6277 N.am      22 UNK        -0.7600 
    123 O         -3.9672  -16.5056  -56.3356 O.2       22 UNK        -0.5000 
    124 C124       -3.5092  -15.9897  -53.3880 C.3       23 UNK        -0.0398 
    125 S125       -2.5953  -16.0072  -51.8082 S.3       23 UNK        -0.2404 
    126 C126       -0.8920  -15.7530  -52.3894 C.3       23 UNK        -0.0205 
    127 H127       -2.0701  -12.7909  -43.8384 H         1 UNK         0.0600 
    128 H128       -3.1529  -11.4468  -44.1830 H         1 UNK         0.0600 
    129 H129       -2.0321  -11.3445  -42.8208 H         1 UNK         0.0600 
    130 H130        0.0935  -12.7145  -44.6374 H         1 UNK         0.3000 
    131 H131        0.6882  -10.8266  -46.7387 H         1 UNK         0.0600 
    132 H132        2.7562  -12.1429  -47.0337 H         1 UNK         0.0800 
    133 H133        2.4950  -12.9963  -45.5397 H         1 UNK         0.0800 
    134 H134        3.0949  -14.4611  -48.2551 H         1 UNK         0.0800 
    135 H135        2.2584  -13.2892  -49.2522 H         1 UNK         0.0800 
    136 H136        0.3529  -13.9951  -50.7069 H         1 UNK         0.1150 
    137 H137        0.0464  -18.1628  -51.6196 H         1 UNK         0.1150 
    138 H138        2.5552  -16.8516  -48.3948 H         1 UNK         0.1150 
    139 H139        2.7230  -19.3012  -50.1066 H         1 UNK         0.0800 
    140 H140        1.9271  -19.2141  -48.5558 H         1 UNK         0.0800 
    141 H141       -1.6783  -19.8267  -49.8047 H         1 UNK         0.0800 
    142 H142       -0.7151  -19.1659  -48.5189 H         1 UNK         0.0800 
    143 H143       -0.7546  -22.1737  -48.6601 H         1 UNK         0.0600 
    144 H144       -0.3229  -20.2532  -46.5749 H         1 UNK         0.3000 
    145 H145       -0.2889  -22.7436  -43.9579 H         1 UNK         0.0600 
    146 H146        1.7826  -20.8355  -45.1653 H         1 UNK         0.0600 
    147 H147        1.8644  -21.6099  -43.5848 H         1 UNK         0.0600 
    148 H148        1.9656  -22.5812  -45.0444 H         1 UNK         0.0600 
    149 H149       -0.0723  -19.9377  -43.7571 H         1 UNK         0.3000 
    150 H150       -3.5770  -19.1970  -43.4153 H         1 UNK         0.0600 
    151 H151       -2.8198  -19.9072  -41.1735 H         1 UNK         0.0600 
    152 H152       -2.6520  -18.1643  -41.3330 H         1 UNK         0.0600 
    153 H153       -1.2328  -19.2047  -41.4464 H         1 UNK         0.0600 
    154 H154       -1.3719  -17.4527  -43.3271 H         1 UNK         0.3000 
    155 H155       -1.1011  -16.7504  -46.8327 H         1 UNK         0.0600 
    156 H156       -2.0583  -15.2008  -44.3615 H         1 UNK         0.0600 
    157 H157       -1.4114  -14.4836  -45.8343 H         1 UNK         0.0600 
    158 H158       -2.9295  -15.3582  -45.8783 H         1 UNK         0.0600 
    159 H159        0.3530  -15.9020  -44.5003 H         1 UNK         0.3000 
    160 H160        2.9435  -18.3519  -44.7056 H         1 UNK         0.0600 
    161 H161        3.5941  -16.5796  -46.3104 H         1 UNK         0.0600 
    162 H162        4.2801  -16.2420  -44.7300 H         1 UNK         0.0600 
    163 H163        2.8710  -15.3453  -45.2886 H         1 UNK         0.0600 
    164 H164        2.4064  -16.1256  -42.9575 H         1 UNK         0.3000 
    165 H165        0.5177  -17.9315  -40.5423 H         1 UNK         0.0600 
    166 H166        2.3947  -17.4056  -39.0138 H         1 UNK         0.0600 
    167 H167        2.8277  -18.7558  -40.0496 H         1 UNK         0.0600 
    168 H168        3.4795  -17.1555  -40.3824 H         1 UNK         0.0600 
    169 H169        1.7248  -15.3947  -40.3644 H         1 UNK         0.3000 
    170 H170       -0.3430  -13.4457  -42.3608 H         1 UNK         0.0600 
    171 H171       -1.9641  -13.7727  -40.4910 H         1 UNK         0.0600 
    172 H172       -0.6518  -13.6931  -39.3209 H         1 UNK         0.0600 
    173 H173       -1.0628  -12.2788  -40.2929 H         1 UNK         0.0600 
    174 H174        1.4698  -12.7935  -40.2441 H         1 UNK         0.3000 
    175 H175        3.5320  -11.8841  -40.8565 H         1 UNK         0.0600 
    176 H176        4.6731  -14.6944  -41.4391 H         1 UNK         0.0600 
    177 H177        5.3903  -13.5056  -40.3548 H         1 UNK         0.0600 
    178 H178        3.8563  -14.2412  -39.9481 H         1 UNK         0.0600 
    179 H179        3.9913  -12.4415  -43.5611 H         1 UNK         0.3000 
    180 H180        7.0849  -10.6126  -43.8780 H         1 UNK         0.0600 
    181 H181        5.7473  -13.0760  -45.1292 H         1 UNK         0.0600 
    182 H182        7.3241  -13.0598  -44.3493 H         1 UNK         0.0600 
    183 H183        7.0692  -12.1378  -45.8219 H         1 UNK         0.0600 
    184 H184        4.7699  -10.8633  -45.5756 H         1 UNK         0.3000 
    185 H185        3.1436   -7.8879  -44.6237 H         1 UNK         0.0600 
    186 H186        3.4778   -7.1892  -46.9792 H         1 UNK         0.0600 
    187 H187        4.9562   -6.9453  -46.0640 H         1 UNK         0.0600 
    188 H188        4.8214   -8.3194  -47.1544 H         1 UNK         0.0600 
    189 H189        2.7217   -9.6005  -46.8413 H         1 UNK         0.3000 
    190 H190       -3.0413  -20.3241  -46.6383 H         1 UNK         0.3000 
    191 H191       -5.4007  -21.1517  -47.9989 H         1 UNK         0.0600 
    192 H192       -5.0031  -20.3482  -45.0717 H         1 UNK         0.0600 
    193 H193       -6.5458  -20.4380  -45.9106 H         1 UNK         0.0600 
    194 H194       -5.3482  -19.2521  -46.4079 H         1 UNK         0.0600 
    195 H195       -3.5814  -22.6603  -45.2870 H         1 UNK         0.3000 
    196 H196       -5.3653  -24.8679  -44.9112 H         1 UNK         0.0600 
    197 H197       -3.4491  -25.8251  -43.6232 H         1 UNK         0.0600 
    198 H198       -3.7441  -24.1492  -43.1840 H         1 UNK         0.0600 
    199 H199       -2.3914  -24.5586  -44.2356 H         1 UNK         0.0600 
    200 H200       -2.4609  -24.4156  -46.9406 H         1 UNK         0.3000 
    201 H201       -2.4448  -27.1293  -47.9640 H         1 UNK         0.0600 
    202 H202       -0.3702  -25.7784  -47.6143 H         1 UNK         0.0600 
    203 H203       -0.9060  -24.6318  -48.8420 H         1 UNK         0.0600 
    204 H204       -0.5241  -26.2903  -49.2861 H         1 UNK         0.0600 
    205 H205       -4.6121  -24.7480  -48.6641 H         1 UNK         0.3000 
    206 H206       -4.5085  -24.1946  -51.3166 H         1 UNK         0.0600 
    207 H207       -5.9520  -23.0161  -49.7355 H         1 UNK         0.0600 
    208 H208       -6.9167  -23.5576  -51.0947 H         1 UNK         0.0600 
    209 H209       -6.9969  -24.4265  -49.5645 H         1 UNK         0.0600 
    210 H210       -5.5065  -27.2789  -50.0936 H         1 UNK         0.3000 
    211 H211       -7.0080  -28.1443  -52.4359 H         1 UNK         0.0600 
    212 H212       -5.7708  -29.7190  -50.1136 H         1 UNK         0.0600 
    213 H213       -6.8862  -30.3664  -51.3107 H         1 UNK         0.0600 
    214 H214       -7.4299  -29.1249  -50.1935 H         1 UNK         0.0600 
    215 H215       -3.6145  -28.0433  -51.4966 H         1 UNK         0.3000 
    216 H216       -2.7808  -29.8375  -53.7382 H         1 UNK         0.0600 
    217 H217       -0.5898  -29.8465  -52.5534 H         1 UNK         0.0600 
    218 H218       -1.8751  -30.4360  -51.5105 H         1 UNK         0.0600 
    219 H219       -1.2426  -28.8063  -51.2925 H         1 UNK         0.0600 
    220 H220       -2.1364  -26.6716  -52.1825 H         1 UNK         0.3000 
    221 H221       -0.8845  -25.5202  -54.6126 H         1 UNK         0.0600 
    222 H222       -1.4214  -24.3995  -51.8000 H         1 UNK         0.0600 
    223 H223        0.1228  -24.9990  -52.3981 H         1 UNK         0.0600 
    224 H224       -0.5876  -23.5499  -53.0954 H         1 UNK         0.0600 
    225 H225       -2.8328  -26.0021  -55.7949 H         1 UNK         0.3000 
    226 H226       -5.3681  -25.8199  -55.3773 H         1 UNK         0.0600 
    227 H227       -4.4141  -26.5695  -57.4908 H         1 UNK         0.0600 
    228 H228       -5.6941  -25.4165  -57.8315 H         1 UNK         0.0600 
    229 H229       -4.0112  -24.9176  -57.9587 H         1 UNK         0.0600 
    230 H230       -6.3781  -24.4036  -54.1402 H         1 UNK         0.3000 
    231 H231       -7.6826  -22.7387  -53.5555 H         1 UNK         0.0600 
    232 H232       -8.6252  -21.1605  -55.1742 H         1 UNK         0.0600 
    233 H233       -8.5268  -22.7473  -55.9173 H         1 UNK         0.0600 
    234 H234       -7.3510  -21.5004  -56.3344 H         1 UNK         0.0600 
    235 H235       -4.7438  -22.6070  -53.2002 H         1 UNK         0.3000 
    236 H236       -3.2709  -21.4092  -52.0985 H         1 UNK         0.0600 
    237 H237       -4.0159  -19.5338  -50.6163 H         1 UNK         0.0600 
    238 H238       -5.0580  -20.9345  -50.4714 H         1 UNK         0.0600 
    239 H239       -5.6026  -19.5370  -51.3820 H         1 UNK         0.0600 
    240 H240       -4.5455  -18.2454  -52.5157 H         1 UNK         0.3000 
    241 H241       -2.4607  -17.5341  -54.4353 H         1 UNK         0.0600 
    242 H242       -5.8863  -17.9968  -56.4921 H         1 UNK         0.3800 
    243 H243       -5.6785  -18.7099  -54.9108 H         1 UNK         0.3800 
    244 H244       -3.0968  -15.2035  -54.0230 H         1 UNK         0.0800 
    245 H245       -4.5370  -15.6943  -53.1706 H         1 UNK         0.0800 
    246 H246       -0.6871  -16.4034  -53.2408 H         1 UNK         0.0800 
    247 H247       -0.7763  -14.7280  -52.7450 H         1 UNK         0.0800 
@<TRIPOS>BOND
     1    1    2 1    
     2    1  127 1    
     3    1  128 1    
     4    1  129 1    
     5    2    3 2    
     6    2    4 am   BACKBONE|DICT|INTERRES
     7    4    5 1    
     8    4  130 1    
     9    5    6 1    
    10    5   65 1    
    11    5  131 1    
    12    6    7 1    
    13    6  132 1    
    14    6  133 1    
    15    7    8 1    
    16    8    9 1    
    17    8  134 1    
    18    8  135 1    
    19    9   10 ar   
    20    9   14 ar   
    21   10   11 ar   
    22   10  136 1    
    23   11   12 ar   
    24   11  126 1    
    25   12   13 ar   
    26   12  137 1    
    27   13   14 ar   
    28   13   15 1    
    29   14  138 1    
    30   15   16 1    
    31   15  139 1    
    32   15  140 1    
    33   16   17 1    
    34   17   18 1    
    35   17  141 1    
    36   17  142 1    
    37   18   19 1    
    38   18   67 1    
    39   18  143 1    
    40   19   20 am   BACKBONE|DICT|INTERRES
    41   19  144 1    
    42   20   21 2    
    43   20   22 1    
    44   22   23 1    
    45   22   24 1    
    46   22  145 1    
    47   23  146 1    
    48   23  147 1    
    49   23  148 1    
    50   24   25 am   BACKBONE|DICT|INTERRES
    51   24  149 1    
    52   25   26 2    
    53   25   27 1    
    54   27   28 1    
    55   27   29 1    
    56   27  150 1    
    57   28  151 1    
    58   28  152 1    
    59   28  153 1    
    60   29   30 am   BACKBONE|DICT|INTERRES
    61   29  154 1    
    62   30   31 2    
    63   30   32 1    
    64   32   33 1    
    65   32   34 1    
    66   32  155 1    
    67   33  156 1    
    68   33  157 1    
    69   33  158 1    
    70   34   35 am   BACKBONE|DICT|INTERRES
    71   34  159 1    
    72   35   36 2    
    73   35   37 1    
    74   37   38 1    
    75   37   39 1    
    76   37  160 1    
    77   38  161 1    
    78   38  162 1    
    79   38  163 1    
    80   39   40 am   BACKBONE|DICT|INTERRES
    81   39  164 1    
    82   40   41 2    
    83   40   42 1    
    84   42   43 1    
    85   42   44 1    
    86   42  165 1    
    87   43  166 1    
    88   43  167 1    
    89   43  168 1    
    90   44   45 am   BACKBONE|DICT|INTERRES
    91   44  169 1    
    92   45   46 2    
    93   45   47 1    
    94   47   48 1    
    95   47   49 1    
    96   47  170 1    
    97   48  171 1    
    98   48  172 1    
    99   48  173 1    
   100   49   50 am   BACKBONE|DICT|INTERRES
   101   49  174 1    
   102   50   51 2    
   103   50   52 1    
   104   52   53 1    
   105   52   54 1    
   106   52  175 1    
   107   53  176 1    
   108   53  177 1    
   109   53  178 1    
   110   54   55 am   BACKBONE|DICT|INTERRES
   111   54  179 1    
   112   55   56 2    
   113   55   57 1    
   114   57   58 1    
   115   57   59 1    
   116   57  180 1    
   117   58  181 1    
   118   58  182 1    
   119   58  183 1    
   120   59   60 am   BACKBONE|DICT|INTERRES
   121   59  184 1    
   122   60   61 2    
   123   60   62 1    
   124   62   63 1    
   125   62   64 1    
   126   62  185 1    
   127   63  186 1    
   128   63  187 1    
   129   63  188 1    
   130   64   65 am   BACKBONE|DICT|INTERRES
   131   64  189 1    
   132   65   66 2    
   133   67   68 2    
   134   67   69 am   BACKBONE|DICT|INTERRES
   135   69   70 1    
   136   69  190 1    
   137   70   71 1    
   138   70   72 1    
   139   70  191 1    
   140   71  192 1    
   141   71  193 1    
   142   71  194 1    
   143   72   73 2    
   144   72   74 am   BACKBONE|DICT|INTERRES
   145   74   75 1    
   146   74  195 1    
   147   75   76 1    
   148   75   77 1    
   149   75  196 1    
   150   76  197 1    
   151   76  198 1    
   152   76  199 1    
   153   77   78 2    
   154   77   79 am   BACKBONE|DICT|INTERRES
   155   79   80 1    
   156   79  200 1    
   157   80   81 1    
   158   80   82 1    
   159   80  201 1    
   160   81  202 1    
   161   81  203 1    
   162   81  204 1    
   163   82   83 2    
   164   82   84 am   BACKBONE|DICT|INTERRES
   165   84   85 1    
   166   84  205 1    
   167   85   86 1    
   168   85   87 1    
   169   85  206 1    
   170   86  207 1    
   171   86  208 1    
   172   86  209 1    
   173   87   88 2    
   174   87   89 am   BACKBONE|DICT|INTERRES
   175   89   90 1    
   176   89  210 1    
   177   90   91 1    
   178   90   92 1    
   179   90  211 1    
   180   91  212 1    
   181   91  213 1    
   182   91  214 1    
   183   92   93 2    
   184   92   94 am   BACKBONE|DICT|INTERRES
   185   94   95 1    
   186   94  215 1    
   187   95   96 1    
   188   95   97 1    
   189   95  216 1    
   190   96  217 1    
   191   96  218 1    
   192   96  219 1    
   193   97   98 2    
   194   97   99 am   BACKBONE|DICT|INTERRES
   195   99  100 1    
   196   99  220 1    
   197  100  101 1    
   198  100  102 1    
   199  100  221 1    
   200  101  222 1    
   201  101  223 1    
   202  101  224 1    
   203  102  103 2    
   204  102  104 am   BACKBONE|DICT|INTERRES
   205  104  105 1    
   206  104  225 1    
   207  105  106 1    
   208  105  107 1    
   209  105  226 1    
   210  106  227 1    
   211  106  228 1    
   212  106  229 1    
   213  107  108 2    
   214  107  109 am   BACKBONE|DICT|INTERRES
   215  109  110 1    
   216  109  230 1    
   217  110  111 1    
   218  110  112 1    
   219  110  231 1    
   220  111  232 1    
   221  111  233 1    
   222  111  234 1    
   223  112  113 2    
   224  112  114 am   BACKBONE|DICT|INTERRES
   225  114  115 1    
   226  114  235 1    
   227  115  116 1    
   228  115  117 1    
   229  115  236 1    
   230  116  237 1    
   231  116  238 1    
   232  116  239 1    
   233  117  118 2    
   234  117  119 am   BACKBONE|DICT|INTERRES
   235  119  120 1    
   236  119  240 1    
   237  120  121 1    
   238  120  124 1    
   239  120  241 1    
   240  121  122 am   BACKBONE|DICT|INTERRES
   241  121  123 2    
   242  122  242 1    
   243  122  243 1    
   244  124  125 1    
   245  124  244 1    
   246  124  245 1    
   247  125  126 1    
   248  126  246 1    
   249  126  247 1    
@<TRIPOS>SUBSTRUCTURE
     1 UNK         1 GROUP             0       ****    0 ROOT    
