@<TRIPOS>MOLECULE
3R540
247   249    1
SMALL
USER_CHARGES


@<TRIPOS>ATOM
      1 CA         -2.8066  -16.7247  -50.1205 C.3       0 UNK        -0.1800 
      2 C          -2.6150  -15.6089  -49.1075 C.2       0 UNK         0.5000 
      3 O          -3.5854  -14.9756  -48.6912 O.2       0 UNK        -0.5000 
      4 N          -1.3645  -15.3773  -48.6946 N.am      1 UNK        -0.5000 
      5 CA         -0.9420  -14.3371  -47.7476 C.3       1 UNK         0.1400 
      6 C6          0.5525  -13.9488  -47.9255 C.3       23 UNK        -0.0398 
      7 S7          1.0130  -13.5389  -49.6474 S.3       23 UNK        -0.2404 
      8 C8          2.1886  -14.8719  -50.0601 C.3       23 UNK        -0.0205 
      9 C9          1.4900  -16.2052  -50.2850 C.ar      23 UNK        -0.0193 
     10 C10         1.0407  -16.5636  -51.5604 C.ar      23 UNK        -0.1150 
     11 C11         0.3924  -17.7859  -51.7660 C.ar      23 UNK        -0.0193 
     12 C12         0.1706  -18.6370  -50.6802 C.ar      23 UNK        -0.1150 
     13 C13         0.6207  -18.2929  -49.4047 C.ar      23 UNK        -0.0193 
     14 C14         1.2966  -17.0861  -49.2174 C.ar      23 UNK        -0.1150 
     15 C15         0.3645  -19.2103  -48.2233 C.3       23 UNK        -0.0205 
     16 S16         1.6524  -20.4854  -48.0751 S.3       23 UNK        -0.2404 
     17 C17         0.8625  -21.9444  -48.8489 C.3       23 UNK        -0.0398 
     18 CA          0.1599  -22.9006  -47.8449 C.3       11 UNK         0.1400 
     19 N           0.9457  -23.1163  -46.6249 N.am      11 UNK        -0.5000 
     20 C           0.6291  -23.9284  -45.6051 C.2       10 UNK         0.5000 
     21 O          -0.3748  -24.6378  -45.5828 O.2       10 UNK        -0.5000 
     22 CA          1.5648  -23.9040  -44.3894 C.3       10 UNK         0.1400 
     23 CB          2.7022  -24.9262  -44.5787 C.3       10 UNK        -0.1800 
     24 N           2.0831  -22.5499  -44.2085 N.am      10 UNK        -0.5000 
     25 C           2.8479  -22.0898  -43.2180 C.2       9 UNK         0.5000 
     26 O           3.2075  -22.7617  -42.2507 O.2       9 UNK        -0.5000 
     27 CA          3.3107  -20.6272  -43.3500 C.3       9 UNK         0.1400 
     28 CB          4.1268  -20.4063  -44.6388 C.3       9 UNK        -0.1800 
     29 N           2.2528  -19.6193  -43.2409 N.am      9 UNK        -0.5000 
     30 C           1.1547  -19.4288  -43.9897 C.2       8 UNK         0.5000 
     31 O           0.7414  -20.2089  -44.8509 O.2       8 UNK        -0.5000 
     32 CA          0.4169  -18.0957  -43.7577 C.3       8 UNK         0.1400 
     33 CB         -0.4906  -18.1755  -42.5202 C.3       8 UNK        -0.1800 
     34 N           1.3387  -16.9717  -43.5908 N.am      8 UNK        -0.5000 
     35 C           2.1852  -16.5104  -44.5241 C.2       7 UNK         0.5000 
     36 O           2.2460  -16.9428  -45.6747 O.2       7 UNK        -0.5000 
     37 CA          3.1538  -15.3995  -44.0814 C.3       7 UNK         0.1400 
     38 CB          2.4882  -14.0156  -44.1409 C.3       7 UNK        -0.1800 
     39 N           3.6480  -15.6399  -42.7259 N.am      7 UNK        -0.5000 
     40 C           4.6972  -16.4192  -42.4297 C.2       6 UNK         0.5000 
     41 O           5.3971  -16.9745  -43.2767 O.2       6 UNK        -0.5000 
     42 CA          5.0287  -16.6140  -40.9365 C.3       6 UNK         0.1400 
     43 CB          6.0857  -15.5945  -40.4850 C.3       6 UNK        -0.1800 
     44 N           3.8605  -16.5053  -40.0611 N.am      6 UNK        -0.5000 
     45 C           2.8682  -17.4036  -40.0018 C.2       5 UNK         0.5000 
     46 O           2.8416  -18.4377  -40.6682 O.2       5 UNK        -0.5000 
     47 CA          1.6800  -17.0601  -39.0816 C.3       5 UNK         0.1400 
     48 CB          1.9503  -17.5471  -37.6504 C.3       5 UNK        -0.1800 
     49 N           1.3405  -15.6322  -39.0531 N.am      5 UNK        -0.5000 
     50 C           1.0129  -14.9025  -40.1275 C.2       4 UNK         0.5000 
     51 O           1.0258  -15.3441  -41.2786 O.2       4 UNK        -0.5000 
     52 CA          0.6782  -13.4202  -39.8819 C.3       4 UNK         0.1400 
     53 CB          1.9723  -12.5962  -39.7918 C.3       4 UNK        -0.1800 
     54 N          -0.1487  -12.8712  -40.9564 N.am      4 UNK        -0.5000 
     55 C          -1.4224  -13.2096  -41.1957 C.2       3 UNK         0.5000 
     56 O          -2.0820  -13.9429  -40.4566 O.2       3 UNK        -0.5000 
     57 CA         -2.0676  -12.6517  -42.4778 C.3       3 UNK         0.1400 
     58 CB         -1.2948  -11.4759  -43.1100 C.3       3 UNK        -0.1800 
     59 N          -2.1530  -13.7267  -43.4582 N.am      3 UNK        -0.5000 
     60 C          -3.2095  -14.5122  -43.6859 C.2       2 UNK         0.5000 
     61 O          -4.2993  -14.3675  -43.1287 O.2       2 UNK        -0.5000 
     62 CA         -3.0083  -15.6349  -44.7309 C.3       2 UNK         0.1400 
     63 CB         -4.2904  -16.4459  -44.9898 C.3       2 UNK        -0.1800 
     64 N          -2.5061  -15.1444  -46.0174 N.am      2 UNK        -0.5000 
     65 C          -1.2598  -14.7362  -46.2858 C.2       1 UNK         0.5000 
     66 O          -0.3823  -14.6809  -45.4250 O.2       1 UNK        -0.5000 
     67 C          -1.2899  -22.4599  -47.5592 C.2       11 UNK         0.5000 
     68 O          -2.2062  -22.9504  -48.2185 O.2       11 UNK        -0.5000 
     69 N          -1.4826  -21.5861  -46.5600 N.am      12 UNK        -0.5000 
     70 CA         -2.8038  -21.1196  -46.1378 C.3       12 UNK         0.1400 
     71 CB         -2.6424  -19.9175  -45.1997 C.3       12 UNK        -0.1800 
     72 C          -3.6373  -22.2271  -45.4660 C.2       12 UNK         0.5000 
     73 O          -4.8402  -22.3125  -45.7115 O.2       12 UNK        -0.5000 
     74 N          -2.9794  -23.0746  -44.6616 N.am      13 UNK        -0.5000 
     75 CA         -3.5887  -24.2246  -43.9877 C.3       13 UNK         0.1400 
     76 CB         -2.6527  -24.7216  -42.8752 C.3       13 UNK        -0.1800 
     77 C          -3.9309  -25.3617  -44.9683 C.2       13 UNK         0.5000 
     78 O          -4.9651  -26.0116  -44.8145 O.2       13 UNK        -0.5000 
     79 N          -3.0747  -25.5502  -45.9812 N.am      14 UNK        -0.5000 
     80 CA         -3.2639  -26.4821  -47.0948 C.3       14 UNK         0.1400 
     81 CB         -1.9101  -26.6855  -47.7941 C.3       14 UNK        -0.1800 
     82 C          -4.3277  -26.0210  -48.1143 C.2       14 UNK         0.5000 
     83 O          -4.7060  -26.8105  -48.9804 O.2       14 UNK        -0.5000 
     84 N          -4.7704  -24.7588  -48.0067 N.am      15 UNK        -0.5000 
     85 CA         -5.7052  -24.0534  -48.8891 C.3       15 UNK         0.1400 
     86 CB         -7.0965  -24.7199  -48.8845 C.3       15 UNK        -0.1800 
     87 C          -5.1448  -23.8278  -50.3094 C.2       15 UNK         0.5000 
     88 O          -5.9102  -23.6996  -51.2663 O.2       15 UNK        -0.5000 
     89 N          -3.8146  -23.7253  -50.4188 N.am      16 UNK        -0.5000 
     90 CA         -3.0760  -23.3926  -51.6345 C.3       16 UNK         0.1400 
     91 CB         -1.7088  -24.0985  -51.5904 C.3       16 UNK        -0.1800 
     92 C          -2.9548  -21.8627  -51.7628 C.2       16 UNK         0.5000 
     93 O          -1.8502  -21.3259  -51.8389 O.2       16 UNK        -0.5000 
     94 N          -4.1067  -21.1838  -51.7337 N.am      17 UNK        -0.5000 
     95 CA         -4.2352  -19.7346  -51.8430 C.3       17 UNK         0.1400 
     96 CB         -5.6171  -19.3325  -51.3032 C.3       17 UNK        -0.1800 
     97 C          -4.0640  -19.2571  -53.2939 C.2       17 UNK         0.5000 
     98 O          -4.1225  -20.0635  -54.2242 O.2       17 UNK        -0.5000 
     99 N          -3.9169  -17.9387  -53.4792 N.am      18 UNK        -0.5000 
    100 CA        -3.8142  -17.2874  -54.7914 C.3       18 UNK         0.1400 
    101 CB        -3.5407  -15.7905  -54.5891 C.3       18 UNK        -0.1800 
    102 C         -5.0520  -17.5044  -55.6891 C.2       18 UNK         0.5000 
    103 O         -4.9140  -17.5639  -56.9106 O.2       18 UNK        -0.5000 
    104 N         -6.2247  -17.6919  -55.0652 N.am      19 UNK        -0.5000 
    105 CA        -7.4787  -18.0871  -55.7146 C.3       19 UNK         0.1400 
    106 CB        -8.6254  -17.9432  -54.7024 C.3       19 UNK        -0.1800 
    107 C         -7.4503  -19.5189  -56.2939 C.2       19 UNK         0.5000 
    108 O         -8.2133  -19.8132  -57.2139 O.2       19 UNK        -0.5000 
    109 N         -6.5575  -20.3685  -55.7686 N.am      20 UNK        -0.5000 
    110 CA        -6.2595  -21.7192  -56.2465 C.3       20 UNK         0.1400 
    111 CB        -6.2367  -22.6742  -55.0384 C.3       20 UNK        -0.1800 
    112 C         -4.9237  -21.7385  -57.0216 C.2       20 UNK         0.5000 
    113 O         -4.2480  -22.7690  -57.0587 O.2       20 UNK        -0.5000 
    114 N         -4.5425  -20.5836  -57.5925 N.am      21 UNK        -0.5000 
    115 CA        -3.3252  -20.3168  -58.3681 C.3       21 UNK         0.1400 
    116 CB        -3.3503  -21.1011  -59.6965 C.3       21 UNK        -0.1800 
    117 C         -2.0152  -20.5328  -57.5792 C.2       21 UNK         0.5000 
    118 O         -0.9637  -20.7357  -58.1886 O.2       21 UNK        -0.5000 
    119 N         -2.0962  -20.4873  -56.2421 N.am      22 UNK        -0.5000 
    120 CA        -1.0126  -20.8093  -55.3034 C.3       22 UNK         0.1400 
    121 C         -0.6243  -22.3221  -55.2809 C.2       22 UNK         0.5000 
    122 N         -1.4837  -23.2283  -55.7385 N.am      22 UNK        -0.7600 
    123 O          0.4571  -22.6928  -54.8340 O.2       22 UNK        -0.5000 
    124 C124        0.1895  -19.8288  -55.4338 C.3       23 UNK        -0.0398 
    125 S125        1.0156  -19.4843  -53.8451 S.3       23 UNK        -0.2404 
    126 C126       -0.0702  -18.1968  -53.1544 C.3       23 UNK        -0.0205 
    127 H127       -3.8557  -16.8081  -50.4026 H         1 UNK         0.0600 
    128 H128       -2.4888  -17.6764  -49.6948 H         1 UNK         0.0600 
    129 H129       -2.2220  -16.5294  -51.0195 H         1 UNK         0.0600 
    130 H130       -0.6121  -15.9339  -49.0783 H         1 UNK         0.3000 
    131 H131       -1.5300  -13.4407  -47.9552 H         1 UNK         0.0600 
    132 H132        1.2067  -14.7361  -47.5506 H         1 UNK         0.0800 
    133 H133        0.7775  -13.0724  -47.3154 H         1 UNK         0.0800 
    134 H134        2.7337  -14.5888  -50.9618 H         1 UNK         0.0800 
    135 H135        2.9382  -14.9615  -49.2722 H         1 UNK         0.0800 
    136 H136        1.2019  -15.8931  -52.3929 H         1 UNK         0.1150 
    137 H137       -0.3393  -19.5761  -50.8334 H         1 UNK         0.1150 
    138 H138        1.6605  -16.8315  -48.2325 H         1 UNK         0.1150 
    139 H139        0.3469  -18.6308  -47.2984 H         1 UNK         0.0800 
    140 H140       -0.6236  -19.6603  -48.3153 H         1 UNK         0.0800 
    141 H141        1.6577  -22.4949  -49.3530 H         1 UNK         0.0800 
    142 H142        0.1879  -21.6301  -49.6479 H         1 UNK         0.0800 
    143 H143        0.0836  -23.8748  -48.3319 H         1 UNK         0.0600 
    144 H144        1.7991  -22.5797  -46.5713 H         1 UNK         0.3000 
    145 H145        0.9803  -24.1721  -43.5073 H         1 UNK         0.0600 
    146 H146        3.3138  -25.0195  -43.6817 H         1 UNK         0.0600 
    147 H147        3.3585  -24.6482  -45.4042 H         1 UNK         0.0600 
    148 H148        2.3028  -25.9179  -44.7954 H         1 UNK         0.0600 
    149 H149        1.7106  -21.8449  -44.8390 H         1 UNK         0.3000 
    150 H150        3.9808  -20.4385  -42.5096 H         1 UNK         0.0600 
    151 H151        4.9342  -21.1347  -44.7222 H         1 UNK         0.0600 
    152 H152        4.5809  -19.4152  -44.6465 H         1 UNK         0.0600 
    153 H153        3.5118  -20.4924  -45.5349 H         1 UNK         0.0600 
    154 H154        2.4165  -18.9489  -42.4954 H         1 UNK         0.3000 
    155 H155       -0.2010  -17.8936  -44.6346 H         1 UNK         0.0600 
    156 H156       -1.2225  -18.9767  -42.6099 H         1 UNK         0.0600 
    157 H157       -1.0401  -17.2457  -42.3719 H         1 UNK         0.0600 
    158 H158        0.0858  -18.3659  -41.6152 H         1 UNK         0.0600 
    159 H159        1.3118  -16.4937  -42.6937 H         1 UNK         0.3000 
    160 H160        3.9969  -15.3923  -44.7757 H         1 UNK         0.0600 
    161 H161        1.5980  -13.9642  -43.5134 H         1 UNK         0.0600 
    162 H162        2.1835  -13.7781  -45.1603 H         1 UNK         0.0600 
    163 H163        3.1735  -13.2325  -43.8166 H         1 UNK         0.0600 
    164 H164        3.0797  -15.2785  -41.9718 H         1 UNK         0.3000 
    165 H165        5.4491  -17.6154  -40.8209 H         1 UNK         0.0600 
    166 H166        6.3870  -15.7694  -39.4520 H         1 UNK         0.0600 
    167 H167        6.9838  -15.6644  -41.1003 H         1 UNK         0.0600 
    168 H168        5.7157  -14.5711  -40.5594 H         1 UNK         0.0600 
    169 H169        3.7988  -15.6813  -39.4816 H         1 UNK         0.3000 
    170 H170        0.8075  -17.5950  -39.4608 H         1 UNK         0.0600 
    171 H171        2.7903  -17.0196  -37.1968 H         1 UNK         0.0600 
    172 H172        2.1860  -18.6122  -37.6381 H         1 UNK         0.0600 
    173 H173        1.0781  -17.4023  -37.0126 H         1 UNK         0.0600 
    174 H174        1.3269  -15.1945  -38.1431 H         1 UNK         0.3000 
    175 H175        0.1313  -13.3330  -38.9409 H         1 UNK         0.0600 
    176 H176        2.5548  -12.6585  -40.7123 H         1 UNK         0.0600 
    177 H177        1.7573  -11.5444  -39.6020 H         1 UNK         0.0600 
    178 H178        2.6073  -12.9470  -38.9773 H         1 UNK         0.0600 
    179 H179        0.3235  -12.2853  -41.6282 H         1 UNK         0.3000 
    180 H180       -3.0661  -12.2969  -42.2145 H         1 UNK         0.0600 
    181 H181       -1.8411  -11.0707  -43.9620 H         1 UNK         0.0600 
    182 H182       -0.3088  -11.7746  -43.4688 H         1 UNK         0.0600 
    183 H183       -1.1639  -10.6601  -42.3977 H         1 UNK         0.0600 
    184 H184       -1.3015  -13.9465  -43.9692 H         1 UNK         0.3000 
    185 H185       -2.2653  -16.3200  -44.3190 H         1 UNK         0.0600 
    186 H186       -4.1137  -17.2448  -45.7097 H         1 UNK         0.0600 
    187 H187       -4.6535  -16.9101  -44.0721 H         1 UNK         0.0600 
    188 H188       -5.0904  -15.8167  -45.3821 H         1 UNK         0.0600 
    189 H189       -3.1691  -15.1265  -46.7865 H         1 UNK         0.3000 
    190 H190       -0.6800  -21.2183  -46.0596 H         1 UNK         0.3000 
    191 H191       -3.3469  -20.7861  -47.0249 H         1 UNK         0.0600 
    192 H192       -2.1203  -19.0974  -45.6928 H         1 UNK         0.0600 
    193 H193       -2.0803  -20.1923  -44.3086 H         1 UNK         0.0600 
    194 H194       -3.6126  -19.5413  -44.8735 H         1 UNK         0.0600 
    195 H195       -1.9818  -22.9645  -44.5570 H         1 UNK         0.3000 
    196 H196       -4.5204  -23.8941  -43.5233 H         1 UNK         0.0600 
    197 H197       -2.4463  -23.9328  -42.1516 H         1 UNK         0.0600 
    198 H198       -1.6994  -25.0712  -43.2719 H         1 UNK         0.0600 
    199 H199       -3.1038  -25.5519  -42.3304 H         1 UNK         0.0600 
    200 H200       -2.2043  -25.0252  -45.9777 H         1 UNK         0.3000 
    201 H201       -3.5905  -27.4419  -46.6897 H         1 UNK         0.0600 
    202 H202       -1.1544  -27.0459  -47.0958 H         1 UNK         0.0600 
    203 H203       -1.5441  -25.7575  -48.2342 H         1 UNK         0.0600 
    204 H204       -1.9883  -27.4204  -48.5962 H         1 UNK         0.0600 
    205 H205       -4.3702  -24.1953  -47.2690 H         1 UNK         0.3000 
    206 H206       -5.8215  -23.0585  -48.4571 H         1 UNK         0.0600 
    207 H207       -7.0855  -25.6896  -49.3824 H         1 UNK         0.0600 
    208 H208       -7.4592  -24.8676  -47.8672 H         1 UNK         0.0600 
    209 H209       -7.8283  -24.0982  -49.4016 H         1 UNK         0.0600 
    210 H210       -3.2682  -23.7128  -49.5608 H         1 UNK         0.3000 
    211 H211       -3.6163  -23.7571  -52.5108 H         1 UNK         0.0600 
    212 H212       -1.1099  -23.7653  -50.7425 H         1 UNK         0.0600 
    213 H213       -1.1364  -23.8982  -52.4971 H         1 UNK         0.0600 
    214 H214       -1.8266  -25.1793  -51.5120 H         1 UNK         0.0600 
    215 H215       -4.9659  -21.7169  -51.6989 H         1 UNK         0.3000 
    216 H216       -3.4596  -19.2703  -51.2328 H         1 UNK         0.0600 
    217 H217       -5.7547  -18.2509  -51.3197 H         1 UNK         0.0600 
    218 H218       -5.7431  -19.6550  -50.2693 H         1 UNK         0.0600 
    219 H219       -6.4229  -19.7749  -51.8910 H         1 UNK         0.0600 
    220 H220       -3.9001  -17.3262  -52.6778 H         1 UNK         0.3000 
    221 H221       -2.9569  -17.7220  -55.3100 H         1 UNK         0.0600 
    222 H222       -4.3516  -15.3023  -54.0471 H         1 UNK         0.0600 
    223 H223       -2.6180  -15.6301  -54.0308 H         1 UNK         0.0600 
    224 H224       -3.4319  -15.2804  -55.5472 H         1 UNK         0.0600 
    225 H225       -6.2458  -17.6144  -54.0595 H         1 UNK         0.3000 
    226 H226       -7.6625  -17.4005  -56.5436 H         1 UNK         0.0600 
    227 H227       -8.7059  -16.9183  -54.3397 H         1 UNK         0.0600 
    228 H228       -9.5830  -18.2013  -55.1569 H         1 UNK         0.0600 
    229 H229       -8.4850  -18.5959  -53.8397 H         1 UNK         0.0600 
    230 H230       -5.9242  -20.0296  -55.0528 H         1 UNK         0.3000 
    231 H231       -7.0358  -22.0590  -56.9345 H         1 UNK         0.0600 
    232 H232       -6.0995  -23.7082  -55.3567 H         1 UNK         0.0600 
    233 H233       -7.1733  -22.6298  -54.4825 H         1 UNK         0.0600 
    234 H234       -5.4277  -22.4342  -54.3476 H         1 UNK         0.0600 
    235 H235       -5.1395  -19.7779  -57.4578 H         1 UNK         0.3000 
    236 H236       -3.3523  -19.2543  -58.6134 H         1 UNK         0.0600 
    237 H237       -3.2546  -22.1750  -59.5341 H         1 UNK         0.0600 
    238 H238       -4.2781  -20.9251  -60.2408 H         1 UNK         0.0600 
    239 H239       -2.5317  -20.7955  -60.3491 H         1 UNK         0.0600 
    240 H240       -3.0024  -20.3422  -55.8084 H         1 UNK         0.3000 
    241 H241       -1.4621  -20.6402  -54.3272 H         1 UNK         0.0600 
    242 H242       -1.2251  -24.2016  -55.7229 H         1 UNK         0.3800 
    243 H243       -2.3760  -22.9555  -56.1348 H         1 UNK         0.3800 
    244 H244        0.9259  -20.2112  -56.1423 H         1 UNK         0.0800 
    245 H245       -0.1395  -18.8726  -55.8430 H         1 UNK         0.0800 
    246 H246       -0.0932  -17.3364  -53.8249 H         1 UNK         0.0800 
    247 H247       -1.0905  -18.5754  -53.0942 H         1 UNK         0.0800 
@<TRIPOS>BOND
     1    1    2 1    
     2    1  127 1    
     3    1  128 1    
     4    1  129 1    
     5    2    3 2    
     6    2    4 am   BACKBONE|DICT|INTERRES
     7    4    5 1    
     8    4  130 1    
     9    5    6 1    
    10    5   65 1    
    11    5  131 1    
    12    6    7 1    
    13    6  132 1    
    14    6  133 1    
    15    7    8 1    
    16    8    9 1    
    17    8  134 1    
    18    8  135 1    
    19    9   10 ar   
    20    9   14 ar   
    21   10   11 ar   
    22   10  136 1    
    23   11   12 ar   
    24   11  126 1    
    25   12   13 ar   
    26   12  137 1    
    27   13   14 ar   
    28   13   15 1    
    29   14  138 1    
    30   15   16 1    
    31   15  139 1    
    32   15  140 1    
    33   16   17 1    
    34   17   18 1    
    35   17  141 1    
    36   17  142 1    
    37   18   19 1    
    38   18   67 1    
    39   18  143 1    
    40   19   20 am   BACKBONE|DICT|INTERRES
    41   19  144 1    
    42   20   21 2    
    43   20   22 1    
    44   22   23 1    
    45   22   24 1    
    46   22  145 1    
    47   23  146 1    
    48   23  147 1    
    49   23  148 1    
    50   24   25 am   BACKBONE|DICT|INTERRES
    51   24  149 1    
    52   25   26 2    
    53   25   27 1    
    54   27   28 1    
    55   27   29 1    
    56   27  150 1    
    57   28  151 1    
    58   28  152 1    
    59   28  153 1    
    60   29   30 am   BACKBONE|DICT|INTERRES
    61   29  154 1    
    62   30   31 2    
    63   30   32 1    
    64   32   33 1    
    65   32   34 1    
    66   32  155 1    
    67   33  156 1    
    68   33  157 1    
    69   33  158 1    
    70   34   35 am   BACKBONE|DICT|INTERRES
    71   34  159 1    
    72   35   36 2    
    73   35   37 1    
    74   37   38 1    
    75   37   39 1    
    76   37  160 1    
    77   38  161 1    
    78   38  162 1    
    79   38  163 1    
    80   39   40 am   BACKBONE|DICT|INTERRES
    81   39  164 1    
    82   40   41 2    
    83   40   42 1    
    84   42   43 1    
    85   42   44 1    
    86   42  165 1    
    87   43  166 1    
    88   43  167 1    
    89   43  168 1    
    90   44   45 am   BACKBONE|DICT|INTERRES
    91   44  169 1    
    92   45   46 2    
    93   45   47 1    
    94   47   48 1    
    95   47   49 1    
    96   47  170 1    
    97   48  171 1    
    98   48  172 1    
    99   48  173 1    
   100   49   50 am   BACKBONE|DICT|INTERRES
   101   49  174 1    
   102   50   51 2    
   103   50   52 1    
   104   52   53 1    
   105   52   54 1    
   106   52  175 1    
   107   53  176 1    
   108   53  177 1    
   109   53  178 1    
   110   54   55 am   BACKBONE|DICT|INTERRES
   111   54  179 1    
   112   55   56 2    
   113   55   57 1    
   114   57   58 1    
   115   57   59 1    
   116   57  180 1    
   117   58  181 1    
   118   58  182 1    
   119   58  183 1    
   120   59   60 am   BACKBONE|DICT|INTERRES
   121   59  184 1    
   122   60   61 2    
   123   60   62 1    
   124   62   63 1    
   125   62   64 1    
   126   62  185 1    
   127   63  186 1    
   128   63  187 1    
   129   63  188 1    
   130   64   65 am   BACKBONE|DICT|INTERRES
   131   64  189 1    
   132   65   66 2    
   133   67   68 2    
   134   67   69 am   BACKBONE|DICT|INTERRES
   135   69   70 1    
   136   69  190 1    
   137   70   71 1    
   138   70   72 1    
   139   70  191 1    
   140   71  192 1    
   141   71  193 1    
   142   71  194 1    
   143   72   73 2    
   144   72   74 am   BACKBONE|DICT|INTERRES
   145   74   75 1    
   146   74  195 1    
   147   75   76 1    
   148   75   77 1    
   149   75  196 1    
   150   76  197 1    
   151   76  198 1    
   152   76  199 1    
   153   77   78 2    
   154   77   79 am   BACKBONE|DICT|INTERRES
   155   79   80 1    
   156   79  200 1    
   157   80   81 1    
   158   80   82 1    
   159   80  201 1    
   160   81  202 1    
   161   81  203 1    
   162   81  204 1    
   163   82   83 2    
   164   82   84 am   BACKBONE|DICT|INTERRES
   165   84   85 1    
   166   84  205 1    
   167   85   86 1    
   168   85   87 1    
   169   85  206 1    
   170   86  207 1    
   171   86  208 1    
   172   86  209 1    
   173   87   88 2    
   174   87   89 am   BACKBONE|DICT|INTERRES
   175   89   90 1    
   176   89  210 1    
   177   90   91 1    
   178   90   92 1    
   179   90  211 1    
   180   91  212 1    
   181   91  213 1    
   182   91  214 1    
   183   92   93 2    
   184   92   94 am   BACKBONE|DICT|INTERRES
   185   94   95 1    
   186   94  215 1    
   187   95   96 1    
   188   95   97 1    
   189   95  216 1    
   190   96  217 1    
   191   96  218 1    
   192   96  219 1    
   193   97   98 2    
   194   97   99 am   BACKBONE|DICT|INTERRES
   195   99  100 1    
   196   99  220 1    
   197  100  101 1    
   198  100  102 1    
   199  100  221 1    
   200  101  222 1    
   201  101  223 1    
   202  101  224 1    
   203  102  103 2    
   204  102  104 am   BACKBONE|DICT|INTERRES
   205  104  105 1    
   206  104  225 1    
   207  105  106 1    
   208  105  107 1    
   209  105  226 1    
   210  106  227 1    
   211  106  228 1    
   212  106  229 1    
   213  107  108 2    
   214  107  109 am   BACKBONE|DICT|INTERRES
   215  109  110 1    
   216  109  230 1    
   217  110  111 1    
   218  110  112 1    
   219  110  231 1    
   220  111  232 1    
   221  111  233 1    
   222  111  234 1    
   223  112  113 2    
   224  112  114 am   BACKBONE|DICT|INTERRES
   225  114  115 1    
   226  114  235 1    
   227  115  116 1    
   228  115  117 1    
   229  115  236 1    
   230  116  237 1    
   231  116  238 1    
   232  116  239 1    
   233  117  118 2    
   234  117  119 am   BACKBONE|DICT|INTERRES
   235  119  120 1    
   236  119  240 1    
   237  120  121 1    
   238  120  124 1    
   239  120  241 1    
   240  121  122 am   BACKBONE|DICT|INTERRES
   241  121  123 2    
   242  122  242 1    
   243  122  243 1    
   244  124  125 1    
   245  124  244 1    
   246  124  245 1    
   247  125  126 1    
   248  126  246 1    
   249  126  247 1    
@<TRIPOS>SUBSTRUCTURE
     1 UNK         1 GROUP             0       ****    0 ROOT    
