@<TRIPOS>MOLECULE
3R540
247   249    1
SMALL
USER_CHARGES


@<TRIPOS>ATOM
      1 CA          3.8593  -14.1728  -54.3174 C.3       0 UNK        -0.1800 
      2 C           3.7130  -13.7004  -52.8775 C.2       0 UNK         0.5000 
      3 O           4.1525  -12.5985  -52.5467 O.2       0 UNK        -0.5000 
      4 N           3.1076  -14.5318  -52.0213 N.am      1 UNK        -0.5000 
      5 CA          2.8324  -14.2362  -50.6121 C.3       1 UNK         0.1400 
      6 C6          2.3747  -15.4981  -49.8387 C.3       23 UNK        -0.0398 
      7 S7          3.7012  -16.7444  -49.7048 S.3       23 UNK        -0.2404 
      8 C8          3.2400  -17.6144  -48.1715 C.3       23 UNK        -0.0205 
      9 C9          2.4071  -18.8628  -48.4384 C.ar      23 UNK        -0.0193 
     10 C10         1.0872  -18.7660  -48.8938 C.ar      23 UNK        -0.1150 
     11 C11         0.3188  -19.9156  -49.1074 C.ar      23 UNK        -0.0193 
     12 C12         0.8832  -21.1698  -48.8560 C.ar      23 UNK        -0.1150 
     13 C13         2.1957  -21.2821  -48.3971 C.ar      23 UNK        -0.0193 
     14 C14         2.9555  -20.1264  -48.2000 C.ar      23 UNK        -0.1150 
     15 C15         2.7883  -22.6475  -48.0938 C.3       23 UNK        -0.0205 
     16 S16         2.7762  -22.9542  -46.3025 S.3       23 UNK        -0.2404 
     17 C17         1.7506  -24.4565  -46.1308 C.3       23 UNK        -0.0398 
     18 CA          0.2272  -24.2326  -45.8944 C.3       11 UNK         0.1400 
     19 N          -0.0634  -23.0306  -45.1015 N.am      11 UNK        -0.5000 
     20 C          -1.0937  -22.8606  -44.2629 C.2       10 UNK         0.5000 
     21 O          -1.9771  -23.7082  -44.1223 O.2       10 UNK        -0.5000 
     22 CA         -1.1823  -21.5361  -43.4680 C.3       10 UNK         0.1400 
     23 CB         -1.5669  -21.7782  -41.9945 C.3       10 UNK        -0.1800 
     24 N          -0.0049  -20.6611  -43.5472 N.am      10 UNK        -0.5000 
     25 C           1.2428  -20.9093  -43.1208 C.2       9 UNK         0.5000 
     26 O           1.6167  -21.9888  -42.6618 O.2       9 UNK        -0.5000 
     27 CA          2.2351  -19.7347  -43.2011 C.3       9 UNK         0.1400 
     28 CB          2.6590  -19.4620  -44.6532 C.3       9 UNK        -0.1800 
     29 N           1.6969  -18.5077  -42.6131 N.am      9 UNK        -0.5000 
     30 C           1.4454  -18.3263  -41.3086 C.2       8 UNK         0.5000 
     31 O           1.6658  -19.1746  -40.4434 O.2       8 UNK        -0.5000 
     32 CA          0.8487  -16.9670  -40.8961 C.3       8 UNK         0.1400 
     33 CB          1.9476  -15.9009  -40.7679 C.3       8 UNK        -0.1800 
     34 N          -0.1801  -16.5010  -41.8251 N.am      8 UNK        -0.5000 
     35 C          -1.3981  -17.0498  -41.9384 C.2       7 UNK         0.5000 
     36 O          -1.8103  -17.9566  -41.2145 O.2       7 UNK        -0.5000 
     37 CA         -2.3048  -16.5113  -43.0617 C.3       7 UNK         0.1400 
     38 CB         -3.0968  -15.2873  -42.5791 C.3       7 UNK        -0.1800 
     39 N          -1.5705  -16.1695  -44.2807 N.am      7 UNK        -0.5000 
     40 C          -0.8900  -17.0530  -45.0233 C.2       6 UNK         0.5000 
     41 O          -0.8271  -18.2551  -44.7681 O.2       6 UNK        -0.5000 
     42 CA         -0.1011  -16.4990  -46.2204 C.3       6 UNK         0.1400 
     43 CB         -1.0268  -16.1646  -47.3967 C.3       6 UNK        -0.1800 
     44 N           0.6731  -15.3118  -45.8768 N.am      6 UNK        -0.5000 
     45 C           1.6614  -15.2660  -44.9757 C.2       5 UNK         0.5000 
     46 O           2.0693  -16.2447  -44.3542 O.2       5 UNK        -0.5000 
     47 CA          2.2578  -13.8793  -44.6903 C.3       5 UNK         0.1400 
     48 CB          3.2716  -13.4857  -45.7763 C.3       5 UNK        -0.1800 
     49 N           1.2177  -12.8550  -44.5874 N.am      5 UNK        -0.5000 
     50 C           0.3194  -12.7858  -43.5942 C.2       4 UNK         0.5000 
     51 O           0.2950  -13.5605  -42.6376 O.2       4 UNK        -0.5000 
     52 CA         -0.7511  -11.6850  -43.7099 C.3       4 UNK         0.1400 
     53 CB         -0.2043  -10.3411  -43.2058 C.3       4 UNK        -0.1800 
     54 N          -1.2494  -11.5247  -45.0776 N.am      4 UNK        -0.5000 
     55 C          -1.9861  -12.4406  -45.7217 C.2       3 UNK         0.5000 
     56 O          -2.3385  -13.5078  -45.2218 O.2       3 UNK        -0.5000 
     57 CA         -2.3435  -12.1367  -47.1897 C.3       3 UNK         0.1400 
     58 CB         -3.5952  -11.2510  -47.2721 C.3       3 UNK        -0.1800 
     59 N          -1.2526  -11.5184  -47.9527 N.am      3 UNK        -0.5000 
     60 C          -0.0474  -12.0744  -48.1292 C.2       2 UNK         0.5000 
     61 O           0.2937  -13.1347  -47.6009 O.2       2 UNK        -0.5000 
     62 CA          0.9634  -11.3067  -49.0006 C.3       2 UNK         0.1400 
     63 CB          1.6544  -10.2123  -48.1722 C.3       2 UNK        -0.1800 
     64 N           1.9839  -12.2215  -49.5130 N.am      2 UNK        -0.5000 
     65 C           1.7675  -13.1297  -50.4725 C.2       1 UNK         0.5000 
     66 O           0.7594  -13.1529  -51.1837 O.2       1 UNK        -0.5000 
     67 C          -0.6449  -24.3336  -47.1681 C.2       11 UNK         0.5000 
     68 O          -0.1366  -24.5507  -48.2707 O.2       11 UNK        -0.5000 
     69 N          -1.9681  -24.2343  -46.9831 N.am      12 UNK        -0.5000 
     70 CA         -2.9965  -24.3826  -48.0163 C.3       12 UNK         0.1400 
     71 CB         -4.3764  -24.1399  -47.3898 C.3       12 UNK        -0.1800 
     72 C          -2.9648  -25.7434  -48.7335 C.2       12 UNK         0.5000 
     73 O          -3.2729  -25.8063  -49.9219 O.2       12 UNK        -0.5000 
     74 N          -2.5505  -26.7976  -48.0176 N.am      13 UNK        -0.5000 
     75 CA         -2.3637  -28.1463  -48.5540 C.3       13 UNK         0.1400 
     76 CB         -2.1265  -29.1193  -47.3892 C.3       13 UNK        -0.1800 
     77 C          -1.2172  -28.2449  -49.5805 C.2       13 UNK         0.5000 
     78 O          -1.2937  -29.0753  -50.4864 O.2       13 UNK        -0.5000 
     79 N          -0.1862  -27.4002  -49.4310 N.am      14 UNK        -0.5000 
     80 CA          0.9443  -27.3177  -50.3560 C.3       14 UNK         0.1400 
     81 CB          2.1822  -26.7899  -49.6147 C.3       14 UNK        -0.1800 
     82 C           0.6129  -26.4279  -51.5649 C.2       14 UNK         0.5000 
     83 O           0.9849  -26.7677  -52.6886 O.2       14 UNK        -0.5000 
     84 N          -0.0903  -25.3136  -51.3155 N.am      15 UNK        -0.5000 
     85 CA         -0.5380  -24.3729  -52.3452 C.3       15 UNK         0.1400 
     86 CB         -0.9470  -23.0551  -51.6745 C.3       15 UNK        -0.1800 
     87 C          -1.6837  -24.9166  -53.2216 C.2       15 UNK         0.5000 
     88 O          -1.8197  -24.4878  -54.3682 O.2       15 UNK        -0.5000 
     89 N          -2.4916  -25.8287  -52.6635 N.am      16 UNK        -0.5000 
     90 CA         -3.6503  -26.5263  -53.2317 C.3       16 UNK         0.1400 
     91 CB         -3.2731  -27.3395  -54.4849 C.3       16 UNK        -0.1800 
     92 C          -4.8591  -25.6068  -53.4841 C.2       16 UNK         0.5000 
     93 O          -5.9368  -25.8595  -52.9446 O.2       16 UNK        -0.5000 
     94 N          -4.6600  -24.5507  -54.2816 N.am      17 UNK        -0.5000 
     95 CA         -5.6529  -23.5084  -54.5489 C.3       17 UNK         0.1400 
     96 CB         -5.2724  -22.7753  -55.8442 C.3       17 UNK        -0.1800 
     97 C          -5.7743  -22.5090  -53.3833 C.2       17 UNK         0.5000 
     98 O          -6.8393  -21.9220  -53.1934 O.2       17 UNK        -0.5000 
     99 N          -4.6696  -22.3220  -52.6441 N.am      18 UNK        -0.5000 
    100 CA        -4.4944  -21.4904  -51.4439 C.3       18 UNK         0.1400 
    101 CB        -5.4150  -21.9797  -50.3093 C.3       18 UNK        -0.1800 
    102 C         -4.6210  -19.9659  -51.6563 C.2       18 UNK         0.5000 
    103 O         -4.4719  -19.2097  -50.6925 O.2       18 UNK        -0.5000 
    104 N         -4.9152  -19.5359  -52.8935 N.am      19 UNK        -0.5000 
    105 CA        -5.0982  -18.1535  -53.3627 C.3       19 UNK         0.1400 
    106 CB        -3.7491  -17.4064  -53.3223 C.3       19 UNK        -0.1800 
    107 C         -6.2106  -17.3646  -52.6320 C.2       19 UNK         0.5000 
    108 O         -6.2593  -16.1391  -52.7465 O.2       19 UNK        -0.5000 
    109 N         -7.0516  -18.0750  -51.8621 N.am      20 UNK        -0.5000 
    110 CA        -7.9773  -17.5661  -50.8422 C.3       20 UNK         0.1400 
    111 CB        -9.1403  -16.7909  -51.4956 C.3       20 UNK        -0.1800 
    112 C         -7.2657  -16.7588  -49.7279 C.2       20 UNK         0.5000 
    113 O         -7.8897  -15.8964  -49.1067 O.2       20 UNK        -0.5000 
    114 N         -5.9724  -17.0388  -49.5085 N.am      21 UNK        -0.5000 
    115 CA        -5.0809  -16.2711  -48.6446 C.3       21 UNK         0.1400 
    116 CB        -3.8897  -15.7748  -49.4817 C.3       21 UNK        -0.1800 
    117 C         -4.6130  -17.1128  -47.4494 C.2       21 UNK         0.5000 
    118 O         -4.7586  -16.6663  -46.3116 O.2       21 UNK        -0.5000 
    119 N         -4.0757  -18.3121  -47.7167 N.am      22 UNK        -0.5000 
    120 CA        -3.6125  -19.2541  -46.6789 C.3       22 UNK         0.1400 
    121 C         -4.6960  -20.2600  -46.1970 C.2       22 UNK         0.5000 
    122 N         -5.8879  -20.2855  -46.7814 N.am      22 UNK        -0.7600 
    123 O         -4.4602  -21.0121  -45.2561 O.2       22 UNK        -0.5000 
    124 C124       -2.2807  -19.9553  -47.0574 C.3       23 UNK        -0.0398 
    125 S125       -2.2958  -20.8045  -48.6644 S.3       23 UNK        -0.2404 
    126 C126       -1.1123  -19.8020  -49.6233 C.3       23 UNK        -0.0205 
    127 H127        3.3489  -13.4849  -54.9915 H         1 UNK         0.0600 
    128 H128        4.9125  -14.2069  -54.5962 H         1 UNK         0.0600 
    129 H129        3.4369  -15.1674  -54.4629 H         1 UNK         0.0600 
    130 H130        2.7632  -15.4204  -52.3543 H         1 UNK         0.3000 
    131 H131        3.7600  -13.8753  -50.1618 H         1 UNK         0.0600 
    132 H132        1.5082  -15.9528  -50.3216 H         1 UNK         0.0800 
    133 H133        2.0555  -15.2240  -48.8311 H         1 UNK         0.0800 
    134 H134        2.7094  -16.9483  -47.4922 H         1 UNK         0.0800 
    135 H135        4.1600  -17.8850  -47.6511 H         1 UNK         0.0800 
    136 H136        0.6593  -17.7939  -49.0847 H         1 UNK         0.1150 
    137 H137        0.2936  -22.0619  -49.0058 H         1 UNK         0.1150 
    138 H138        3.9701  -20.2146  -47.8376 H         1 UNK         0.1150 
    139 H139        2.2439  -23.4271  -48.6265 H         1 UNK         0.0800 
    140 H140        3.8161  -22.6910  -48.4563 H         1 UNK         0.0800 
    141 H141        2.1482  -24.9710  -45.2550 H         1 UNK         0.0800 
    142 H142        1.9505  -25.1422  -46.9547 H         1 UNK         0.0800 
    143 H143       -0.0936  -25.0881  -45.2957 H         1 UNK         0.0600 
    144 H144        0.6207  -22.2912  -45.1754 H         1 UNK         0.3000 
    145 H145       -1.9959  -20.9699  -43.9216 H         1 UNK         0.0600 
    146 H146       -1.6595  -20.8366  -41.4527 H         1 UNK         0.0600 
    147 H147       -2.5269  -22.2898  -41.9174 H         1 UNK         0.0600 
    148 H148       -0.8272  -22.3908  -41.4784 H         1 UNK         0.0600 
    149 H149       -0.1957  -19.7356  -43.9303 H         1 UNK         0.3000 
    150 H150        3.1282  -20.0113  -42.6370 H         1 UNK         0.0600 
    151 H151        3.1319  -20.3394  -45.0916 H         1 UNK         0.0600 
    152 H152        3.3833  -18.6494  -44.7076 H         1 UNK         0.0600 
    153 H153        1.8103  -19.1942  -45.2836 H         1 UNK         0.0600 
    154 H154        1.5499  -17.7299  -43.2503 H         1 UNK         0.3000 
    155 H155        0.3878  -17.0912  -39.9138 H         1 UNK         0.0600 
    156 H156        2.4388  -15.7084  -41.7218 H         1 UNK         0.0600 
    157 H157        2.7158  -16.2155  -40.0604 H         1 UNK         0.0600 
    158 H158        1.5394  -14.9567  -40.4070 H         1 UNK         0.0600 
    159 H159        0.0640  -15.7220  -42.4251 H         1 UNK         0.3000 
    160 H160       -3.0178  -17.2984  -43.3162 H         1 UNK         0.0600 
    161 H161       -3.8156  -14.9640  -43.3323 H         1 UNK         0.0600 
    162 H162       -2.4398  -14.4451  -42.3592 H         1 UNK         0.0600 
    163 H163       -3.6571  -15.5154  -41.6717 H         1 UNK         0.0600 
    164 H164       -1.6204  -15.2007  -44.5833 H         1 UNK         0.3000 
    165 H165        0.5967  -17.2741  -46.5368 H         1 UNK         0.0600 
    166 H166       -0.4691  -15.7596  -48.2409 H         1 UNK         0.0600 
    167 H167       -1.5512  -17.0487  -47.7521 H         1 UNK         0.0600 
    168 H168       -1.7771  -15.4283  -47.1106 H         1 UNK         0.0600 
    169 H169        0.4326  -14.4564  -46.3744 H         1 UNK         0.3000 
    170 H170        2.7835  -13.9299  -43.7343 H         1 UNK         0.0600 
    171 H171        4.0765  -14.2192  -45.8390 H         1 UNK         0.0600 
    172 H172        2.8102  -13.4245  -46.7617 H         1 UNK         0.0600 
    173 H173        3.7280  -12.5201  -45.5585 H         1 UNK         0.0600 
    174 H174        1.1283  -12.2183  -45.3645 H         1 UNK         0.3000 
    175 H175       -1.5911  -11.9710  -43.0731 H         1 UNK         0.0600 
    176 H176       -0.9792   -9.5743  -43.2091 H         1 UNK         0.0600 
    177 H177        0.1605  -10.4284  -42.1815 H         1 UNK         0.0600 
    178 H178        0.6236   -9.9849  -43.8201 H         1 UNK         0.0600 
    179 H179       -0.9979  -10.6768  -45.5636 H         1 UNK         0.3000 
    180 H180       -2.5747  -13.0898  -47.6687 H         1 UNK         0.0600 
    181 H181       -3.4185  -10.2620  -46.8475 H         1 UNK         0.0600 
    182 H182       -4.4269  -11.6992  -46.7267 H         1 UNK         0.0600 
    183 H183       -3.9191  -11.1210  -48.3049 H         1 UNK         0.0600 
    184 H184       -1.4590  -10.6376  -48.4016 H         1 UNK         0.3000 
    185 H185        0.4366  -10.8466  -49.8391 H         1 UNK         0.0600 
    186 H186        2.1841  -10.6281  -47.3139 H         1 UNK         0.0600 
    187 H187        2.3757   -9.6597  -48.7747 H         1 UNK         0.0600 
    188 H188        0.9306   -9.4898  -47.7929 H         1 UNK         0.0600 
    189 H189        2.8314  -12.2827  -48.9689 H         1 UNK         0.3000 
    190 H190       -2.2931  -24.0638  -46.0362 H         1 UNK         0.3000 
    191 H191       -2.8237  -23.6204  -48.7759 H         1 UNK         0.0600 
    192 H192       -4.5621  -24.8120  -46.5513 H         1 UNK         0.0600 
    193 H193       -5.1750  -24.2941  -48.1160 H         1 UNK         0.0600 
    194 H194       -4.4638  -23.1173  -47.0262 H         1 UNK         0.0600 
    195 H195       -2.3261  -26.6584  -47.0437 H         1 UNK         0.3000 
    196 H196       -3.2859  -28.4380  -49.0614 H         1 UNK         0.0600 
    197 H197       -2.0085  -30.1413  -47.7519 H         1 UNK         0.0600 
    198 H198       -2.9676  -29.1176  -46.6957 H         1 UNK         0.0600 
    199 H199       -1.2266  -28.8643  -46.8280 H         1 UNK         0.0600 
    200 H200       -0.2215  -26.7055  -48.6971 H         1 UNK         0.3000 
    201 H201        1.1790  -28.3185  -50.7253 H         1 UNK         0.0600 
    202 H202        2.4152  -27.4037  -48.7446 H         1 UNK         0.0600 
    203 H203        2.0443  -25.7637  -49.2766 H         1 UNK         0.0600 
    204 H204        3.0572  -26.8018  -50.2656 H         1 UNK         0.0600 
    205 H205       -0.3136  -25.0856  -50.3537 H         1 UNK         0.3000 
    206 H206        0.3034  -24.1648  -53.0094 H         1 UNK         0.0600 
    207 H207       -0.0842  -22.5742  -51.2165 H         1 UNK         0.0600 
    208 H208       -1.3573  -22.3506  -52.3991 H         1 UNK         0.0600 
    209 H209       -1.6955  -23.2149  -50.8986 H         1 UNK         0.0600 
    210 H210       -2.3631  -26.0038  -51.6719 H         1 UNK         0.3000 
    211 H211       -3.9575  -27.2407  -52.4660 H         1 UNK         0.0600 
    212 H212       -2.9606  -26.7028  -55.3127 H         1 UNK         0.0600 
    213 H213       -4.1215  -27.9300  -54.8326 H         1 UNK         0.0600 
    214 H214       -2.4598  -28.0332  -54.2711 H         1 UNK         0.0600 
    215 H215       -3.7250  -24.4183  -54.6574 H         1 UNK         0.3000 
    216 H216       -6.6292  -23.9760  -54.6930 H         1 UNK         0.0600 
    217 H217       -6.0007  -21.9991  -56.0832 H         1 UNK         0.0600 
    218 H218       -5.2424  -23.4624  -56.6900 H         1 UNK         0.0600 
    219 H219       -4.2948  -22.2978  -55.7662 H         1 UNK         0.0600 
    220 H220       -3.8534  -22.8462  -52.9225 H         1 UNK         0.3000 
    221 H221       -3.4667  -21.6561  -51.1287 H         1 UNK         0.0600 
    222 H222       -6.4649  -21.7743  -50.5187 H         1 UNK         0.0600 
    223 H223       -5.3075  -23.0532  -50.1574 H         1 UNK         0.0600 
    224 H224       -5.1708  -21.4928  -49.3650 H         1 UNK         0.0600 
    225 H225       -5.0655  -20.2486  -53.5928 H         1 UNK         0.3000 
    226 H226       -5.4117  -18.2222  -54.4053 H         1 UNK         0.0600 
    227 H227       -2.9766  -17.9586  -53.8575 H         1 UNK         0.0600 
    228 H228       -3.8264  -16.4250  -53.7914 H         1 UNK         0.0600 
    229 H229       -3.4030  -17.2532  -52.2998 H         1 UNK         0.0600 
    230 H230       -6.9274  -19.0777  -51.8681 H         1 UNK         0.3000 
    231 H231       -8.4007  -18.4439  -50.3524 H         1 UNK         0.0600 
    232 H232       -9.6174  -17.3814  -52.2776 H         1 UNK         0.0600 
    233 H233       -8.8044  -15.8538  -51.9402 H         1 UNK         0.0600 
    234 H234       -9.9089  -16.5462  -50.7617 H         1 UNK         0.0600 
    235 H235       -5.5382  -17.7876  -50.0416 H         1 UNK         0.3000 
    236 H236       -5.5949  -15.3924  -48.2494 H         1 UNK         0.0600 
    237 H237       -3.2552  -15.1072  -48.9009 H         1 UNK         0.0600 
    238 H238       -3.2695  -16.5973  -49.8401 H         1 UNK         0.0600 
    239 H239       -4.2303  -15.2142  -50.3526 H         1 UNK         0.0600 
    240 H240       -4.0142  -18.6386  -48.6748 H         1 UNK         0.3000 
    241 H241       -3.3841  -18.6768  -45.7815 H         1 UNK         0.0600 
    242 H242       -6.5868  -20.9310  -46.4506 H         1 UNK         0.3800 
    243 H243       -6.0980  -19.6578  -47.5391 H         1 UNK         0.3800 
    244 H244       -1.4753  -19.2251  -47.0648 H         1 UNK         0.0800 
    245 H245       -1.9909  -20.6808  -46.2979 H         1 UNK         0.0800 
    246 H246       -1.1349  -20.1338  -50.6616 H         1 UNK         0.0800 
    247 H247       -1.4493  -18.7645  -49.6258 H         1 UNK         0.0800 
@<TRIPOS>BOND
     1    1    2 1    
     2    1  127 1    
     3    1  128 1    
     4    1  129 1    
     5    2    3 2    
     6    2    4 am   BACKBONE|DICT|INTERRES
     7    4    5 1    
     8    4  130 1    
     9    5    6 1    
    10    5   65 1    
    11    5  131 1    
    12    6    7 1    
    13    6  132 1    
    14    6  133 1    
    15    7    8 1    
    16    8    9 1    
    17    8  134 1    
    18    8  135 1    
    19    9   10 ar   
    20    9   14 ar   
    21   10   11 ar   
    22   10  136 1    
    23   11   12 ar   
    24   11  126 1    
    25   12   13 ar   
    26   12  137 1    
    27   13   14 ar   
    28   13   15 1    
    29   14  138 1    
    30   15   16 1    
    31   15  139 1    
    32   15  140 1    
    33   16   17 1    
    34   17   18 1    
    35   17  141 1    
    36   17  142 1    
    37   18   19 1    
    38   18   67 1    
    39   18  143 1    
    40   19   20 am   BACKBONE|DICT|INTERRES
    41   19  144 1    
    42   20   21 2    
    43   20   22 1    
    44   22   23 1    
    45   22   24 1    
    46   22  145 1    
    47   23  146 1    
    48   23  147 1    
    49   23  148 1    
    50   24   25 am   BACKBONE|DICT|INTERRES
    51   24  149 1    
    52   25   26 2    
    53   25   27 1    
    54   27   28 1    
    55   27   29 1    
    56   27  150 1    
    57   28  151 1    
    58   28  152 1    
    59   28  153 1    
    60   29   30 am   BACKBONE|DICT|INTERRES
    61   29  154 1    
    62   30   31 2    
    63   30   32 1    
    64   32   33 1    
    65   32   34 1    
    66   32  155 1    
    67   33  156 1    
    68   33  157 1    
    69   33  158 1    
    70   34   35 am   BACKBONE|DICT|INTERRES
    71   34  159 1    
    72   35   36 2    
    73   35   37 1    
    74   37   38 1    
    75   37   39 1    
    76   37  160 1    
    77   38  161 1    
    78   38  162 1    
    79   38  163 1    
    80   39   40 am   BACKBONE|DICT|INTERRES
    81   39  164 1    
    82   40   41 2    
    83   40   42 1    
    84   42   43 1    
    85   42   44 1    
    86   42  165 1    
    87   43  166 1    
    88   43  167 1    
    89   43  168 1    
    90   44   45 am   BACKBONE|DICT|INTERRES
    91   44  169 1    
    92   45   46 2    
    93   45   47 1    
    94   47   48 1    
    95   47   49 1    
    96   47  170 1    
    97   48  171 1    
    98   48  172 1    
    99   48  173 1    
   100   49   50 am   BACKBONE|DICT|INTERRES
   101   49  174 1    
   102   50   51 2    
   103   50   52 1    
   104   52   53 1    
   105   52   54 1    
   106   52  175 1    
   107   53  176 1    
   108   53  177 1    
   109   53  178 1    
   110   54   55 am   BACKBONE|DICT|INTERRES
   111   54  179 1    
   112   55   56 2    
   113   55   57 1    
   114   57   58 1    
   115   57   59 1    
   116   57  180 1    
   117   58  181 1    
   118   58  182 1    
   119   58  183 1    
   120   59   60 am   BACKBONE|DICT|INTERRES
   121   59  184 1    
   122   60   61 2    
   123   60   62 1    
   124   62   63 1    
   125   62   64 1    
   126   62  185 1    
   127   63  186 1    
   128   63  187 1    
   129   63  188 1    
   130   64   65 am   BACKBONE|DICT|INTERRES
   131   64  189 1    
   132   65   66 2    
   133   67   68 2    
   134   67   69 am   BACKBONE|DICT|INTERRES
   135   69   70 1    
   136   69  190 1    
   137   70   71 1    
   138   70   72 1    
   139   70  191 1    
   140   71  192 1    
   141   71  193 1    
   142   71  194 1    
   143   72   73 2    
   144   72   74 am   BACKBONE|DICT|INTERRES
   145   74   75 1    
   146   74  195 1    
   147   75   76 1    
   148   75   77 1    
   149   75  196 1    
   150   76  197 1    
   151   76  198 1    
   152   76  199 1    
   153   77   78 2    
   154   77   79 am   BACKBONE|DICT|INTERRES
   155   79   80 1    
   156   79  200 1    
   157   80   81 1    
   158   80   82 1    
   159   80  201 1    
   160   81  202 1    
   161   81  203 1    
   162   81  204 1    
   163   82   83 2    
   164   82   84 am   BACKBONE|DICT|INTERRES
   165   84   85 1    
   166   84  205 1    
   167   85   86 1    
   168   85   87 1    
   169   85  206 1    
   170   86  207 1    
   171   86  208 1    
   172   86  209 1    
   173   87   88 2    
   174   87   89 am   BACKBONE|DICT|INTERRES
   175   89   90 1    
   176   89  210 1    
   177   90   91 1    
   178   90   92 1    
   179   90  211 1    
   180   91  212 1    
   181   91  213 1    
   182   91  214 1    
   183   92   93 2    
   184   92   94 am   BACKBONE|DICT|INTERRES
   185   94   95 1    
   186   94  215 1    
   187   95   96 1    
   188   95   97 1    
   189   95  216 1    
   190   96  217 1    
   191   96  218 1    
   192   96  219 1    
   193   97   98 2    
   194   97   99 am   BACKBONE|DICT|INTERRES
   195   99  100 1    
   196   99  220 1    
   197  100  101 1    
   198  100  102 1    
   199  100  221 1    
   200  101  222 1    
   201  101  223 1    
   202  101  224 1    
   203  102  103 2    
   204  102  104 am   BACKBONE|DICT|INTERRES
   205  104  105 1    
   206  104  225 1    
   207  105  106 1    
   208  105  107 1    
   209  105  226 1    
   210  106  227 1    
   211  106  228 1    
   212  106  229 1    
   213  107  108 2    
   214  107  109 am   BACKBONE|DICT|INTERRES
   215  109  110 1    
   216  109  230 1    
   217  110  111 1    
   218  110  112 1    
   219  110  231 1    
   220  111  232 1    
   221  111  233 1    
   222  111  234 1    
   223  112  113 2    
   224  112  114 am   BACKBONE|DICT|INTERRES
   225  114  115 1    
   226  114  235 1    
   227  115  116 1    
   228  115  117 1    
   229  115  236 1    
   230  116  237 1    
   231  116  238 1    
   232  116  239 1    
   233  117  118 2    
   234  117  119 am   BACKBONE|DICT|INTERRES
   235  119  120 1    
   236  119  240 1    
   237  120  121 1    
   238  120  124 1    
   239  120  241 1    
   240  121  122 am   BACKBONE|DICT|INTERRES
   241  121  123 2    
   242  122  242 1    
   243  122  243 1    
   244  124  125 1    
   245  124  244 1    
   246  124  245 1    
   247  125  126 1    
   248  126  246 1    
   249  126  247 1    
@<TRIPOS>SUBSTRUCTURE
     1 UNK         1 GROUP             0       ****    0 ROOT    
