@<TRIPOS>MOLECULE
3R540
247   249    1
SMALL
USER_CHARGES


@<TRIPOS>ATOM
      1 CA          6.0885  -17.0274  -48.1990 C.3       0 UNK        -0.1800 
      2 C           4.8340  -16.5656  -47.4715 C.2       0 UNK         0.5000 
      3 O           4.9043  -16.2039  -46.2973 O.2       0 UNK        -0.5000 
      4 N           3.6885  -16.5804  -48.1638 N.am      1 UNK        -0.5000 
      5 CA          2.3855  -16.1540  -47.6430 C.3       1 UNK         0.1400 
      6 C6          1.2143  -16.6543  -48.5236 C.3       23 UNK        -0.0398 
      7 S7          1.3747  -16.2201  -50.2945 S.3       23 UNK        -0.2404 
      8 C8         -0.1492  -16.9286  -51.0107 C.3       23 UNK        -0.0205 
      9 C9         -0.3759  -18.4009  -50.6782 C.ar      23 UNK        -0.0193 
     10 C10        -1.6596  -18.8360  -50.3377 C.ar      23 UNK        -0.1150 
     11 C11        -1.8939  -20.1682  -49.9902 C.ar      23 UNK        -0.0193 
     12 C12        -0.8326  -21.0759  -49.9954 C.ar      23 UNK        -0.1150 
     13 C13         0.4578  -20.6564  -50.3309 C.ar      23 UNK        -0.0193 
     14 C14         0.6759  -19.3249  -50.6944 C.ar      23 UNK        -0.1150 
     15 C15         1.6215  -21.6339  -50.2549 C.3       23 UNK        -0.0205 
     16 S16         2.7761  -21.2654  -48.8887 S.3       23 UNK        -0.2404 
     17 C17         1.6771  -21.1114  -47.4369 C.3       23 UNK        -0.0398 
     18 CA          1.5722  -22.3805  -46.5570 C.3       11 UNK         0.1400 
     19 N           1.0949  -22.0377  -45.2123 N.am      11 UNK        -0.5000 
     20 C           0.9889  -22.8745  -44.1708 C.2       10 UNK         0.5000 
     21 O           1.3205  -24.0586  -44.2088 O.2       10 UNK        -0.5000 
     22 CA          0.3652  -22.2985  -42.8852 C.3       10 UNK         0.1400 
     23 CB          1.3889  -21.4769  -42.0869 C.3       10 UNK        -0.1800 
     24 N          -0.8116  -21.4782  -43.1775 N.am      10 UNK        -0.5000 
     25 C          -1.9944  -21.9796  -43.5611 C.2       9 UNK         0.5000 
     26 O          -2.2408  -23.1851  -43.5939 O.2       9 UNK        -0.5000 
     27 CA         -3.0771  -20.9775  -44.0096 C.3       9 UNK         0.1400 
     28 CB         -3.9522  -20.5538  -42.8212 C.3       9 UNK        -0.1800 
     29 N          -2.5328  -19.7862  -44.6647 N.am      9 UNK        -0.5000 
     30 C          -1.8707  -19.7995  -45.8297 C.2       8 UNK         0.5000 
     31 O          -1.6812  -20.8184  -46.4899 O.2       8 UNK        -0.5000 
     32 CA         -1.2637  -18.4687  -46.3081 C.3       8 UNK         0.1400 
     33 CB         -2.3245  -17.5826  -46.9712 C.3       8 UNK        -0.1800 
     34 N          -0.6183  -17.7237  -45.2276 N.am      8 UNK        -0.5000 
     35 C           0.4250  -18.1663  -44.5127 C.2       7 UNK         0.5000 
     36 O           1.0041  -19.2255  -44.7445 O.2       7 UNK        -0.5000 
     37 CA          0.8572  -17.3225  -43.3026 C.3       7 UNK         0.1400 
     38 CB          1.8029  -16.1908  -43.7165 C.3       7 UNK        -0.1800 
     39 N          -0.2919  -16.7619  -42.5959 N.am      7 UNK        -0.5000 
     40 C          -1.1079  -17.4757  -41.8098 C.2       6 UNK         0.5000 
     41 O          -0.9572  -18.6753  -41.5764 O.2       6 UNK        -0.5000 
     42 CA         -2.3109  -16.7236  -41.2123 C.3       6 UNK         0.1400 
     43 CB         -1.8956  -15.9456  -39.9546 C.3       6 UNK        -0.1800 
     44 N          -2.9362  -15.8059  -42.1680 N.am      6 UNK        -0.5000 
     45 C          -3.5885  -16.2039  -43.2685 C.2       5 UNK         0.5000 
     46 O          -3.7173  -17.3820  -43.5966 O.2       5 UNK        -0.5000 
     47 CA         -4.1653  -15.1048  -44.1771 C.3       5 UNK         0.1400 
     48 CB         -5.5444  -14.6531  -43.6761 C.3       5 UNK        -0.1800 
     49 N          -3.2946  -13.9359  -44.3384 N.am      5 UNK        -0.5000 
     50 C          -2.0636  -13.9664  -44.8659 C.2       4 UNK         0.5000 
     51 O          -1.4816  -15.0052  -45.1828 O.2       4 UNK        -0.5000 
     52 CA         -1.3590  -12.6168  -45.0614 C.3       4 UNK         0.1400 
     53 CB         -0.2096  -12.4534  -44.0554 C.3       4 UNK        -0.1800 
     54 N          -0.8252  -12.5496  -46.4198 N.am      4 UNK        -0.5000 
     55 C          -1.4547  -11.9821  -47.4588 C.2       3 UNK         0.5000 
     56 O          -2.5320  -11.3942  -47.3479 O.2       3 UNK        -0.5000 
     57 CA         -0.8060  -12.1093  -48.8599 C.3       3 UNK         0.1400 
     58 CB         -1.0922  -10.8909  -49.7619 C.3       3 UNK        -0.1800 
     59 N           0.6268  -12.4211  -48.8393 N.am      3 UNK        -0.5000 
     60 C           1.6247  -11.6882  -48.3206 C.2       2 UNK         0.5000 
     61 O           1.4790  -10.5463  -47.8818 O.2       2 UNK        -0.5000 
     62 CA          3.0156  -12.3685  -48.2580 C.3       2 UNK         0.1400 
     63 CB          3.8487  -11.8773  -47.0562 C.3       2 UNK        -0.1800 
     64 N           2.9716  -13.8405  -48.2658 N.am      2 UNK        -0.5000 
     65 C           2.2965  -14.6317  -47.4151 C.2       1 UNK         0.5000 
     66 O           1.5895  -14.2018  -46.5062 O.2       1 UNK        -0.5000 
     67 C           0.7109  -23.4809  -47.2190 C.2       11 UNK         0.5000 
     68 O           1.2637  -24.3964  -47.8301 O.2       11 UNK        -0.5000 
     69 N          -0.6154  -23.4160  -47.0162 N.am      12 UNK        -0.5000 
     70 CA         -1.6196  -24.3731  -47.4957 C.3       12 UNK         0.1400 
     71 CB         -3.0077  -23.9566  -46.9843 C.3       12 UNK        -0.1800 
     72 C          -1.3568  -25.8406  -47.1036 C.2       12 UNK         0.5000 
     73 O          -1.7936  -26.7405  -47.8218 O.2       12 UNK        -0.5000 
     74 N          -0.6500  -26.0608  -45.9847 N.am      13 UNK        -0.5000 
     75 CA         -0.2475  -27.3834  -45.5069 C.3       13 UNK         0.1400 
     76 CB          0.2496  -27.2730  -44.0579 C.3       13 UNK        -0.1800 
     77 C           0.8187  -28.0519  -46.3972 C.2       13 UNK         0.5000 
     78 O           0.8868  -29.2816  -46.4220 O.2       13 UNK        -0.5000 
     79 N           1.6191  -27.2501  -47.1161 N.am      14 UNK        -0.5000 
     80 CA          2.5588  -27.7327  -48.1262 C.3       14 UNK         0.1400 
     81 CB          3.7062  -26.7247  -48.3058 C.3       14 UNK        -0.1800 
     82 C           1.8218  -27.9926  -49.4498 C.2       14 UNK         0.5000 
     83 O           1.8919  -29.1034  -49.9771 O.2       14 UNK        -0.5000 
     84 N           1.0993  -26.9758  -49.9343 N.am      15 UNK        -0.5000 
     85 CA          0.2539  -27.0061  -51.1247 C.3       15 UNK         0.1400 
     86 CB          1.1070  -27.1455  -52.4019 C.3       15 UNK        -0.1800 
     87 C          -0.5574  -25.7060  -51.1756 C.2       15 UNK         0.5000 
     88 O          -0.1015  -24.6863  -50.6584 O.2       15 UNK        -0.5000 
     89 N          -1.7270  -25.7448  -51.8220 N.am      16 UNK        -0.5000 
     90 CA         -2.5240  -24.5537  -52.1174 C.3       16 UNK         0.1400 
     91 CB         -3.9622  -24.9833  -52.4452 C.3       16 UNK        -0.1800 
     92 C          -1.9138  -23.7550  -53.2862 C.2       16 UNK         0.5000 
     93 O          -1.2563  -24.3393  -54.1524 O.2       16 UNK        -0.5000 
     94 N          -2.1700  -22.4445  -53.3027 N.am      17 UNK        -0.5000 
     95 CA         -1.7324  -21.5170  -54.3418 C.3       17 UNK         0.1400 
     96 CB         -0.4979  -20.7388  -53.8466 C.3       17 UNK        -0.1800 
     97 C          -2.9272  -20.6341  -54.7393 C.2       17 UNK         0.5000 
     98 O          -3.9492  -21.1709  -55.1703 O.2       17 UNK        -0.5000 
     99 N          -2.7984  -19.3131  -54.5856 N.am      18 UNK        -0.5000 
    100 CA        -3.8271  -18.3156  -54.8554 C.3       18 UNK         0.1400 
    101 CB        -3.7587  -17.8880  -56.3318 C.3       18 UNK        -0.1800 
    102 C         -3.6068  -17.1194  -53.9188 C.2       18 UNK         0.5000 
    103 O         -2.4901  -16.9340  -53.4292 O.2       18 UNK        -0.5000 
    104 N         -4.6737  -16.3338  -53.7184 N.am      19 UNK        -0.5000 
    105 CA        -4.7910  -15.1634  -52.8379 C.3       19 UNK         0.1400 
    106 CB        -3.7202  -14.0992  -53.1580 C.3       19 UNK        -0.1800 
    107 C         -4.8013  -15.5195  -51.3376 C.2       19 UNK         0.5000 
    108 O         -4.4263  -16.6264  -50.9439 O.2       19 UNK        -0.5000 
    109 N         -5.2669  -14.5635  -50.5199 N.am      20 UNK        -0.5000 
    110 CA        -5.4354  -14.6636  -49.0662 C.3       20 UNK         0.1400 
    111 CB        -4.0547  -14.6754  -48.3767 C.3       20 UNK        -0.1800 
    112 C         -6.3538  -15.8478  -48.6914 C.2       20 UNK         0.5000 
    113 O         -7.4923  -15.8888  -49.1627 O.2       20 UNK        -0.5000 
    114 N         -5.8463  -16.8132  -47.9109 N.am      21 UNK        -0.5000 
    115 CA        -6.5502  -18.0490  -47.5439 C.3       21 UNK         0.1400 
    116 CB        -5.7387  -18.7966  -46.4728 C.3       21 UNK        -0.1800 
    117 C         -6.8513  -18.9784  -48.7416 C.2       21 UNK         0.5000 
    118 O         -7.7443  -19.8200  -48.6395 O.2       21 UNK        -0.5000 
    119 N         -6.1194  -18.7985  -49.8477 N.am      22 UNK        -0.5000 
    120 CA        -6.3156  -19.4800  -51.1339 C.3       22 UNK         0.1400 
    121 C         -7.1185  -18.6115  -52.1510 C.2       22 UNK         0.5000 
    122 N         -7.6947  -17.4763  -51.7683 N.am      22 UNK        -0.7600 
    123 O         -7.2383  -18.9770  -53.3166 O.2       22 UNK        -0.5000 
    124 C124       -4.9602  -19.9642  -51.7190 C.3       23 UNK        -0.0398 
    125 S125       -4.2643  -21.3938  -50.8249 S.3       23 UNK        -0.2404 
    126 C126       -3.2696  -20.6102  -49.5208 C.3       23 UNK        -0.0205 
    127 H127        5.8754  -17.3255  -49.2259 H         1 UNK         0.0600 
    128 H128        6.5290  -17.8802  -47.6824 H         1 UNK         0.0600 
    129 H129        6.8250  -16.2242  -48.2236 H         1 UNK         0.0600 
    130 H130        3.6892  -16.8900  -49.1259 H         1 UNK         0.3000 
    131 H131        2.2638  -16.6187  -46.6629 H         1 UNK         0.0600 
    132 H132        1.1636  -17.7398  -48.4415 H         1 UNK         0.0800 
    133 H133        0.2604  -16.2810  -48.1492 H         1 UNK         0.0800 
    134 H134       -0.9982  -16.3287  -50.6778 H         1 UNK         0.0800 
    135 H135       -0.1066  -16.8224  -52.0950 H         1 UNK         0.0800 
    136 H136       -2.4750  -18.1282  -50.3196 H         1 UNK         0.1150 
    137 H137       -1.0046  -22.1023  -49.7029 H         1 UNK         0.1150 
    138 H138        1.6744  -19.0029  -50.9531 H         1 UNK         0.1150 
    139 H139        1.2604  -22.6531  -50.1321 H         1 UNK         0.0800 
    140 H140        2.1675  -21.6168  -51.1988 H         1 UNK         0.0800 
    141 H141        2.1097  -20.3035  -46.8463 H         1 UNK         0.0800 
    142 H142        0.6903  -20.7514  -47.7212 H         1 UNK         0.0800 
    143 H143        2.5768  -22.7894  -46.4311 H         1 UNK         0.0600 
    144 H144        0.8459  -21.0627  -45.0663 H         1 UNK         0.3000 
    145 H145        0.0531  -23.1382  -42.2604 H         1 UNK         0.0600 
    146 H146        0.9517  -21.0927  -41.1650 H         1 UNK         0.0600 
    147 H147        2.2469  -22.0905  -41.8100 H         1 UNK         0.0600 
    148 H148        1.7657  -20.6275  -42.6557 H         1 UNK         0.0600 
    149 H149       -0.6965  -20.4742  -43.1391 H         1 UNK         0.3000 
    150 H150       -3.7151  -21.4896  -44.7331 H         1 UNK         0.0600 
    151 H151       -4.3775  -21.4228  -42.3177 H         1 UNK         0.0600 
    152 H152       -4.7834  -19.9291  -43.1489 H         1 UNK         0.0600 
    153 H153       -3.3811  -19.9908  -42.0824 H         1 UNK         0.0600 
    154 H154       -2.7068  -18.8970  -44.2043 H         1 UNK         0.3000 
    155 H155       -0.5043  -18.7050  -47.0546 H         1 UNK         0.0600 
    156 H156       -1.8823  -16.6646  -47.3545 H         1 UNK         0.0600 
    157 H157       -3.1080  -17.3047  -46.2684 H         1 UNK         0.0600 
    158 H158       -2.7953  -18.0913  -47.8101 H         1 UNK         0.0600 
    159 H159       -1.0051  -16.8063  -45.0179 H         1 UNK         0.3000 
    160 H160        1.4004  -17.9786  -42.6189 H         1 UNK         0.0600 
    161 H161        1.2953  -15.4752  -44.3594 H         1 UNK         0.0600 
    162 H162        2.6675  -16.5755  -44.2588 H         1 UNK         0.0600 
    163 H163        2.1777  -15.6511  -42.8469 H         1 UNK         0.0600 
    164 H164       -0.5134  -15.7943  -42.7773 H         1 UNK         0.3000 
    165 H165       -3.0548  -17.4685  -40.9213 H         1 UNK         0.0600 
    166 H166       -1.1719  -15.1624  -40.1838 H         1 UNK         0.0600 
    167 H167       -2.7574  -15.4779  -39.4781 H         1 UNK         0.0600 
    168 H168       -1.4394  -16.6092  -39.2187 H         1 UNK         0.0600 
    169 H169       -2.8685  -14.8179  -41.9734 H         1 UNK         0.3000 
    170 H170       -4.3037  -15.5506  -45.1624 H         1 UNK         0.0600 
    171 H171       -6.2178  -15.5045  -43.5657 H         1 UNK         0.0600 
    172 H172       -5.4794  -14.1574  -42.7067 H         1 UNK         0.0600 
    173 H173       -6.0116  -13.9614  -44.3774 H         1 UNK         0.0600 
    174 H174       -3.6967  -13.0429  -44.0917 H         1 UNK         0.3000 
    175 H175       -2.0720  -11.8070  -44.8936 H         1 UNK         0.0600 
    176 H176        0.2882  -11.4921  -44.1832 H         1 UNK         0.0600 
    177 H177       -0.5772  -12.4973  -43.0296 H         1 UNK         0.0600 
    178 H178        0.5435  -13.2330  -44.1689 H         1 UNK         0.0600 
    179 H179        0.0309  -13.0755  -46.5768 H         1 UNK         0.3000 
    180 H180       -1.2829  -12.9727  -49.3254 H         1 UNK         0.0600 
    181 H181       -0.6371  -11.0122  -50.7449 H         1 UNK         0.0600 
    182 H182       -2.1638  -10.7613  -49.9175 H         1 UNK         0.0600 
    183 H183       -0.7121   -9.9663  -49.3270 H         1 UNK         0.0600 
    184 H184        0.8703  -13.3429  -49.1728 H         1 UNK         0.3000 
    185 H185        3.5377  -12.0718  -49.1685 H         1 UNK         0.0600 
    186 H186        4.8269  -12.3577  -47.0320 H         1 UNK         0.0600 
    187 H187        4.0190  -10.8013  -47.1072 H         1 UNK         0.0600 
    188 H188        3.3500  -12.0859  -46.1089 H         1 UNK         0.0600 
    189 H189        3.5036  -14.2907  -48.9975 H         1 UNK         0.3000 
    190 H190       -0.9805  -22.5862  -46.5560 H         1 UNK         0.3000 
    191 H191       -1.6278  -24.3124  -48.5838 H         1 UNK         0.0600 
    192 H192       -3.7892  -24.5539  -47.4555 H         1 UNK         0.0600 
    193 H193       -3.2267  -22.9133  -47.1964 H         1 UNK         0.0600 
    194 H194       -3.0964  -24.0977  -45.9075 H         1 UNK         0.0600 
    195 H195       -0.3091  -25.2653  -45.4604 H         1 UNK         0.3000 
    196 H196       -1.1314  -28.0247  -45.5126 H         1 UNK         0.0600 
    197 H197        0.4527  -28.2602  -43.6412 H         1 UNK         0.0600 
    198 H198       -0.4926  -26.7954  -43.4180 H         1 UNK         0.0600 
    199 H199        1.1726  -26.6966  -43.9923 H         1 UNK         0.0600 
    200 H200        1.4677  -26.2469  -47.0857 H         1 UNK         0.3000 
    201 H201        2.9977  -28.6744  -47.7894 H         1 UNK         0.0600 
    202 H202        4.2291  -26.5530  -47.3649 H         1 UNK         0.0600 
    203 H203        3.3548  -25.7602  -48.6727 H         1 UNK         0.0600 
    204 H204        4.4390  -27.0974  -49.0223 H         1 UNK         0.0600 
    205 H205        1.0844  -26.0882  -49.4404 H         1 UNK         0.3000 
    206 H206       -0.4356  -27.8487  -51.0436 H         1 UNK         0.0600 
    207 H207        1.6334  -28.0988  -52.4363 H         1 UNK         0.0600 
    208 H208        0.4846  -27.0930  -53.2963 H         1 UNK         0.0600 
    209 H209        1.8492  -26.3494  -52.4737 H         1 UNK         0.0600 
    210 H210       -2.0201  -26.6035  -52.2642 H         1 UNK         0.3000 
    211 H211       -2.5465  -23.9166  -51.2302 H         1 UNK         0.0600 
    212 H212       -4.0001  -25.6282  -53.3240 H         1 UNK         0.0600 
    213 H213       -4.5925  -24.1161  -52.6471 H         1 UNK         0.0600 
    214 H214       -4.4119  -25.5225  -51.6112 H         1 UNK         0.0600 
    215 H215       -2.7584  -22.0483  -52.5805 H         1 UNK         0.3000 
    216 H216       -1.4486  -22.0642  -55.2430 H         1 UNK         0.0600 
    217 H217       -0.1048  -20.0819  -54.6232 H         1 UNK         0.0600 
    218 H218        0.3059  -21.4181  -53.5618 H         1 UNK         0.0600 
    219 H219       -0.7348  -20.1273  -52.9774 H         1 UNK         0.0600 
    220 H220       -1.9610  -18.9320  -54.1618 H         1 UNK         0.3000 
    221 H221       -4.8115  -18.7384  -54.6460 H         1 UNK         0.0600 
    222 H222       -2.7868  -17.4593  -56.5796 H         1 UNK         0.0600 
    223 H223       -3.9306  -18.7347  -56.9966 H         1 UNK         0.0600 
    224 H224       -4.5173  -17.1384  -56.5595 H         1 UNK         0.0600 
    225 H225       -5.5395  -16.6083  -54.1609 H         1 UNK         0.3000 
    226 H226       -5.7668  -14.7312  -53.0645 H         1 UNK         0.0600 
    227 H227       -3.6832  -13.8839  -54.2259 H         1 UNK         0.0600 
    228 H228       -3.9356  -13.1603  -52.6471 H         1 UNK         0.0600 
    229 H229       -2.7245  -14.4129  -52.8432 H         1 UNK         0.0600 
    230 H230       -5.5923  -13.7001  -50.9309 H         1 UNK         0.3000 
    231 H231       -5.9575  -13.7608  -48.7464 H         1 UNK         0.0600 
    232 H232       -4.1480  -14.6726  -47.2918 H         1 UNK         0.0600 
    233 H233       -3.4925  -13.7835  -48.6468 H         1 UNK         0.0600 
    234 H234       -3.4555  -15.5365  -48.6700 H         1 UNK         0.0600 
    235 H235       -4.8934  -16.7230  -47.5954 H         1 UNK         0.3000 
    236 H236       -7.5088  -17.7646  -47.1051 H         1 UNK         0.0600 
    237 H237       -5.5285  -18.1600  -45.6132 H         1 UNK         0.0600 
    238 H238       -6.2886  -19.6632  -46.1038 H         1 UNK         0.0600 
    239 H239       -4.7902  -19.1622  -46.8645 H         1 UNK         0.0600 
    240 H240       -5.4441  -18.0419  -49.8736 H         1 UNK         0.3000 
    241 H241       -6.9361  -20.3643  -50.9797 H         1 UNK         0.0600 
    242 H242       -7.6257  -17.1437  -50.8140 H         1 UNK         0.3800 
    243 H243       -8.2349  -16.9518  -52.4373 H         1 UNK         0.3800 
    244 H244       -5.0927  -20.2990  -52.7477 H         1 UNK         0.0800 
    245 H245       -4.2309  -19.1551  -51.7546 H         1 UNK         0.0800 
    246 H246       -3.1484  -21.3260  -48.7114 H         1 UNK         0.0800 
    247 H247       -3.8097  -19.7718  -49.0873 H         1 UNK         0.0800 
@<TRIPOS>BOND
     1    1    2 1    
     2    1  127 1    
     3    1  128 1    
     4    1  129 1    
     5    2    3 2    
     6    2    4 am   BACKBONE|DICT|INTERRES
     7    4    5 1    
     8    4  130 1    
     9    5    6 1    
    10    5   65 1    
    11    5  131 1    
    12    6    7 1    
    13    6  132 1    
    14    6  133 1    
    15    7    8 1    
    16    8    9 1    
    17    8  134 1    
    18    8  135 1    
    19    9   10 ar   
    20    9   14 ar   
    21   10   11 ar   
    22   10  136 1    
    23   11   12 ar   
    24   11  126 1    
    25   12   13 ar   
    26   12  137 1    
    27   13   14 ar   
    28   13   15 1    
    29   14  138 1    
    30   15   16 1    
    31   15  139 1    
    32   15  140 1    
    33   16   17 1    
    34   17   18 1    
    35   17  141 1    
    36   17  142 1    
    37   18   19 1    
    38   18   67 1    
    39   18  143 1    
    40   19   20 am   BACKBONE|DICT|INTERRES
    41   19  144 1    
    42   20   21 2    
    43   20   22 1    
    44   22   23 1    
    45   22   24 1    
    46   22  145 1    
    47   23  146 1    
    48   23  147 1    
    49   23  148 1    
    50   24   25 am   BACKBONE|DICT|INTERRES
    51   24  149 1    
    52   25   26 2    
    53   25   27 1    
    54   27   28 1    
    55   27   29 1    
    56   27  150 1    
    57   28  151 1    
    58   28  152 1    
    59   28  153 1    
    60   29   30 am   BACKBONE|DICT|INTERRES
    61   29  154 1    
    62   30   31 2    
    63   30   32 1    
    64   32   33 1    
    65   32   34 1    
    66   32  155 1    
    67   33  156 1    
    68   33  157 1    
    69   33  158 1    
    70   34   35 am   BACKBONE|DICT|INTERRES
    71   34  159 1    
    72   35   36 2    
    73   35   37 1    
    74   37   38 1    
    75   37   39 1    
    76   37  160 1    
    77   38  161 1    
    78   38  162 1    
    79   38  163 1    
    80   39   40 am   BACKBONE|DICT|INTERRES
    81   39  164 1    
    82   40   41 2    
    83   40   42 1    
    84   42   43 1    
    85   42   44 1    
    86   42  165 1    
    87   43  166 1    
    88   43  167 1    
    89   43  168 1    
    90   44   45 am   BACKBONE|DICT|INTERRES
    91   44  169 1    
    92   45   46 2    
    93   45   47 1    
    94   47   48 1    
    95   47   49 1    
    96   47  170 1    
    97   48  171 1    
    98   48  172 1    
    99   48  173 1    
   100   49   50 am   BACKBONE|DICT|INTERRES
   101   49  174 1    
   102   50   51 2    
   103   50   52 1    
   104   52   53 1    
   105   52   54 1    
   106   52  175 1    
   107   53  176 1    
   108   53  177 1    
   109   53  178 1    
   110   54   55 am   BACKBONE|DICT|INTERRES
   111   54  179 1    
   112   55   56 2    
   113   55   57 1    
   114   57   58 1    
   115   57   59 1    
   116   57  180 1    
   117   58  181 1    
   118   58  182 1    
   119   58  183 1    
   120   59   60 am   BACKBONE|DICT|INTERRES
   121   59  184 1    
   122   60   61 2    
   123   60   62 1    
   124   62   63 1    
   125   62   64 1    
   126   62  185 1    
   127   63  186 1    
   128   63  187 1    
   129   63  188 1    
   130   64   65 am   BACKBONE|DICT|INTERRES
   131   64  189 1    
   132   65   66 2    
   133   67   68 2    
   134   67   69 am   BACKBONE|DICT|INTERRES
   135   69   70 1    
   136   69  190 1    
   137   70   71 1    
   138   70   72 1    
   139   70  191 1    
   140   71  192 1    
   141   71  193 1    
   142   71  194 1    
   143   72   73 2    
   144   72   74 am   BACKBONE|DICT|INTERRES
   145   74   75 1    
   146   74  195 1    
   147   75   76 1    
   148   75   77 1    
   149   75  196 1    
   150   76  197 1    
   151   76  198 1    
   152   76  199 1    
   153   77   78 2    
   154   77   79 am   BACKBONE|DICT|INTERRES
   155   79   80 1    
   156   79  200 1    
   157   80   81 1    
   158   80   82 1    
   159   80  201 1    
   160   81  202 1    
   161   81  203 1    
   162   81  204 1    
   163   82   83 2    
   164   82   84 am   BACKBONE|DICT|INTERRES
   165   84   85 1    
   166   84  205 1    
   167   85   86 1    
   168   85   87 1    
   169   85  206 1    
   170   86  207 1    
   171   86  208 1    
   172   86  209 1    
   173   87   88 2    
   174   87   89 am   BACKBONE|DICT|INTERRES
   175   89   90 1    
   176   89  210 1    
   177   90   91 1    
   178   90   92 1    
   179   90  211 1    
   180   91  212 1    
   181   91  213 1    
   182   91  214 1    
   183   92   93 2    
   184   92   94 am   BACKBONE|DICT|INTERRES
   185   94   95 1    
   186   94  215 1    
   187   95   96 1    
   188   95   97 1    
   189   95  216 1    
   190   96  217 1    
   191   96  218 1    
   192   96  219 1    
   193   97   98 2    
   194   97   99 am   BACKBONE|DICT|INTERRES
   195   99  100 1    
   196   99  220 1    
   197  100  101 1    
   198  100  102 1    
   199  100  221 1    
   200  101  222 1    
   201  101  223 1    
   202  101  224 1    
   203  102  103 2    
   204  102  104 am   BACKBONE|DICT|INTERRES
   205  104  105 1    
   206  104  225 1    
   207  105  106 1    
   208  105  107 1    
   209  105  226 1    
   210  106  227 1    
   211  106  228 1    
   212  106  229 1    
   213  107  108 2    
   214  107  109 am   BACKBONE|DICT|INTERRES
   215  109  110 1    
   216  109  230 1    
   217  110  111 1    
   218  110  112 1    
   219  110  231 1    
   220  111  232 1    
   221  111  233 1    
   222  111  234 1    
   223  112  113 2    
   224  112  114 am   BACKBONE|DICT|INTERRES
   225  114  115 1    
   226  114  235 1    
   227  115  116 1    
   228  115  117 1    
   229  115  236 1    
   230  116  237 1    
   231  116  238 1    
   232  116  239 1    
   233  117  118 2    
   234  117  119 am   BACKBONE|DICT|INTERRES
   235  119  120 1    
   236  119  240 1    
   237  120  121 1    
   238  120  124 1    
   239  120  241 1    
   240  121  122 am   BACKBONE|DICT|INTERRES
   241  121  123 2    
   242  122  242 1    
   243  122  243 1    
   244  124  125 1    
   245  124  244 1    
   246  124  245 1    
   247  125  126 1    
   248  126  246 1    
   249  126  247 1    
@<TRIPOS>SUBSTRUCTURE
     1 UNK         1 GROUP             0       ****    0 ROOT    
