@<TRIPOS>MOLECULE
3R540
247   249    1
SMALL
USER_CHARGES


@<TRIPOS>ATOM
      1 CA          3.7411  -10.0133  -50.2682 C.3       0 UNK        -0.1800 
      2 C           2.9985  -11.2004  -49.6717 C.2       0 UNK         0.5000 
      3 O           3.2658  -11.5830  -48.5330 O.2       0 UNK        -0.5000 
      4 N           2.0572  -11.7783  -50.4277 N.am      1 UNK        -0.5000 
      5 CA          1.2224  -12.9203  -50.0336 C.3       1 UNK         0.1400 
      6 C6          0.8506  -13.7812  -51.2720 C.3       23 UNK        -0.0398 
      7 S7          0.5610  -15.5333  -50.8496 S.3       23 UNK        -0.2404 
      8 C8          1.7620  -16.3555  -51.9409 C.3       23 UNK        -0.0205 
      9 C9          1.6904  -17.8651  -51.7885 C.ar      23 UNK        -0.0193 
     10 C10         0.8200  -18.6152  -52.5836 C.ar      23 UNK        -0.1150 
     11 C11         0.7283  -20.0060  -52.4357 C.ar      23 UNK        -0.0193 
     12 C12         1.5264  -20.6349  -51.4749 C.ar      23 UNK        -0.1150 
     13 C13         2.4021  -19.8951  -50.6731 C.ar      23 UNK        -0.0193 
     14 C14         2.4862  -18.5115  -50.8416 C.ar      23 UNK        -0.1150 
     15 C15         3.2276  -20.5844  -49.5956 C.3       23 UNK        -0.0205 
     16 S16         2.7293  -20.0784  -47.9150 S.3       23 UNK        -0.2404 
     17 C17         0.9696  -20.5574  -47.8927 C.3       23 UNK        -0.0398 
     18 CA          0.7524  -21.9452  -47.2498 C.3       11 UNK         0.1400 
     19 N           0.8029  -21.8922  -45.7877 N.am      11 UNK        -0.5000 
     20 C           0.7398  -22.9518  -44.9709 C.2       10 UNK         0.5000 
     21 O           0.7019  -24.1180  -45.3634 O.2       10 UNK        -0.5000 
     22 CA          0.6423  -22.6534  -43.4632 C.3       10 UNK         0.1400 
     23 CB          2.0203  -22.3168  -42.8743 C.3       10 UNK        -0.1800 
     24 N          -0.3022  -21.5730  -43.1683 N.am      10 UNK        -0.5000 
     25 C          -1.6205  -21.6401  -43.4068 C.2       9 UNK         0.5000 
     26 O          -2.1828  -22.6391  -43.8555 O.2       9 UNK        -0.5000 
     27 CA         -2.4459  -20.3683  -43.1402 C.3       9 UNK         0.1400 
     28 CB         -2.7565  -20.2239  -41.6431 C.3       9 UNK        -0.1800 
     29 N          -1.7930  -19.1539  -43.6309 N.am      9 UNK        -0.5000 
     30 C          -1.5257  -18.9038  -44.9208 C.2       8 UNK         0.5000 
     31 O          -1.8445  -19.6551  -45.8402 O.2       8 UNK        -0.5000 
     32 CA         -0.7138  -17.6345  -45.2374 C.3       8 UNK         0.1400 
     33 CB         -1.6127  -16.3899  -45.2455 C.3       8 UNK        -0.1800 
     34 N           0.4026  -17.4359  -44.3132 N.am      8 UNK        -0.5000 
     35 C           1.4167  -18.2972  -44.1471 C.2       7 UNK         0.5000 
     36 O           1.5377  -19.3429  -44.7811 O.2       7 UNK        -0.5000 
     37 CA          2.4323  -17.9672  -43.0431 C.3       7 UNK         0.1400 
     38 CB          3.4506  -16.9224  -43.5229 C.3       7 UNK        -0.1800 
     39 N           1.7657  -17.4997  -41.8289 N.am      7 UNK        -0.5000 
     40 C           1.0306  -18.2833  -41.0269 C.2       6 UNK         0.5000 
     41 O           0.8771  -19.4924  -41.2041 O.2       6 UNK        -0.5000 
     42 CA          0.3161  -17.5879  -39.8535 C.3       6 UNK         0.1400 
     43 CB          1.2718  -17.4084  -38.6646 C.3       6 UNK        -0.1800 
     44 N          -0.2460  -16.2882  -40.2272 N.am      6 UNK        -0.5000 
     45 C          -1.2625  -16.1278  -41.0859 C.2       5 UNK         0.5000 
     46 O          -1.8467  -17.0619  -41.6328 O.2       5 UNK        -0.5000 
     47 CA         -1.6708  -14.6824  -41.4240 C.3       5 UNK         0.1400 
     48 CB         -2.6723  -14.1487  -40.3895 C.3       5 UNK        -0.1800 
     49 N          -0.5481  -13.7474  -41.5358 N.am      5 UNK        -0.5000 
     50 C           0.4942  -13.8733  -42.3672 C.2       4 UNK         0.5000 
     51 O           0.6669  -14.8477  -43.1005 O.2       4 UNK        -0.5000 
     52 CA          1.4778  -12.6886  -42.4055 C.3       4 UNK         0.1400 
     53 CB          2.8211  -13.0584  -43.0580 C.3       4 UNK        -0.1800 
     54 N           0.8931  -11.5690  -43.1389 N.am      4 UNK        -0.5000 
     55 C          -0.0374  -10.7273  -42.6773 C.2       3 UNK         0.5000 
     56 O          -0.4713  -10.7662  -41.5246 O.2       3 UNK        -0.5000 
     57 CA         -0.6017   -9.6842  -43.6624 C.3       3 UNK         0.1400 
     58 CB          0.3050   -8.4405  -43.7338 C.3       3 UNK        -0.1800 
     59 N          -0.9171  -10.2004  -45.0048 N.am      3 UNK        -0.5000 
     60 C          -0.0864  -10.6363  -45.9625 C.2       2 UNK         0.5000 
     61 O           1.1375  -10.7222  -45.8301 O.2       2 UNK        -0.5000 
     62 CA         -0.7430  -11.0362  -47.2932 C.3       2 UNK         0.1400 
     63 CB         -1.3304   -9.8039  -48.0107 C.3       2 UNK        -0.1800 
     64 N           0.2491  -11.6791  -48.1496 N.am      2 UNK        -0.5000 
     65 C          -0.0056  -12.4391  -49.2205 C.2       1 UNK         0.5000 
     66 O          -1.1485  -12.7174  -49.5877 O.2       1 UNK        -0.5000 
     67 C          -0.5594  -22.5686  -47.7586 C.2       11 UNK         0.5000 
     68 O          -0.5090  -23.4385  -48.6263 O.2       11 UNK        -0.5000 
     69 N          -1.7004  -22.1404  -47.2024 N.am      12 UNK        -0.5000 
     70 CA         -3.0228  -22.6619  -47.5424 C.3       12 UNK         0.1400 
     71 CB         -4.1078  -21.8127  -46.8632 C.3       12 UNK        -0.1800 
     72 C          -3.1838  -24.1525  -47.1929 C.2       12 UNK         0.5000 
     73 O          -3.7198  -24.9140  -47.9985 O.2       12 UNK        -0.5000 
     74 N          -2.6701  -24.5559  -46.0223 N.am      13 UNK        -0.5000 
     75 CA         -2.6233  -25.9489  -45.5773 C.3       13 UNK         0.1400 
     76 CB         -2.1503  -26.0082  -44.1170 C.3       13 UNK        -0.1800 
     77 C          -1.7414  -26.8347  -46.4783 C.2       13 UNK         0.5000 
     78 O          -2.1288  -27.9646  -46.7772 O.2       13 UNK        -0.5000 
     79 N          -0.5914  -26.3010  -46.9141 N.am      14 UNK        -0.5000 
     80 CA          0.3290  -26.9596  -47.8415 C.3       14 UNK         0.1400 
     81 CB          1.6698  -26.2090  -47.8551 C.3       14 UNK        -0.1800 
     82 C          -0.2459  -27.0826  -49.2655 C.2       14 UNK         0.5000 
     83 O          -0.1124  -28.1398  -49.8833 O.2       14 UNK        -0.5000 
     84 N          -0.8781  -26.0079  -49.7573 N.am      15 UNK        -0.5000 
     85 CA         -1.5119  -25.9428  -51.0757 C.3       15 UNK         0.1400 
     86 CB         -1.8073  -24.4732  -51.4237 C.3       15 UNK        -0.1800 
     87 C          -2.8022  -26.7775  -51.1765 C.2       15 UNK         0.5000 
     88 O          -3.1368  -27.2312  -52.2713 O.2       15 UNK        -0.5000 
     89 N          -3.5061  -26.9372  -50.0449 N.am      16 UNK        -0.5000 
     90 CA         -4.8471  -27.5169  -49.9037 C.3       16 UNK         0.1400 
     91 CB         -4.8531  -29.0164  -50.2666 C.3       16 UNK        -0.1800 
     92 C          -5.9060  -26.6911  -50.6668 C.2       16 UNK         0.5000 
     93 O          -6.8110  -27.2477  -51.2915 O.2       16 UNK        -0.5000 
     94 N          -5.7483  -25.3655  -50.6084 N.am      17 UNK        -0.5000 
     95 CA         -6.5201  -24.3440  -51.3062 C.3       17 UNK         0.1400 
     96 CB         -6.1514  -24.3395  -52.8023 C.3       17 UNK        -0.1800 
     97 C          -6.1967  -22.9916  -50.6530 C.2       17 UNK         0.5000 
     98 O          -5.3261  -22.9306  -49.7843 O.2       17 UNK        -0.5000 
     99 N          -6.8854  -21.9236  -51.0701 N.am      18 UNK        -0.5000 
    100 CA        -6.6216  -20.5601  -50.6050 C.3       18 UNK         0.1400 
    101 CB        -7.7160  -19.6256  -51.1425 C.3       18 UNK        -0.1800 
    102 C         -5.2290  -20.0626  -51.0396 C.2       18 UNK         0.5000 
    103 O         -4.8373  -20.2794  -52.1891 O.2       18 UNK        -0.5000 
    104 N         -4.5229  -19.3765  -50.1310 N.am      19 UNK        -0.5000 
    105 CA        -3.2467  -18.7125  -50.4085 C.3       19 UNK         0.1400 
    106 CB        -2.6384  -18.2081  -49.0907 C.3       19 UNK        -0.1800 
    107 C         -3.4140  -17.5615  -51.4206 C.2       19 UNK         0.5000 
    108 O         -4.5116  -17.0146  -51.5565 O.2       19 UNK        -0.5000 
    109 N         -2.3310  -17.2470  -52.1410 N.am      20 UNK        -0.5000 
    110 CA        -2.2256  -16.3047  -53.2664 C.3       20 UNK         0.1400 
    111 CB        -2.6879  -14.8848  -52.8838 C.3       20 UNK        -0.1800 
    112 C         -2.9198  -16.7979  -54.5531 C.2       20 UNK         0.5000 
    113 O         -2.3486  -16.6539  -55.6342 O.2       20 UNK        -0.5000 
    114 N         -4.1169  -17.3840  -54.4221 N.am      21 UNK        -0.5000 
    115 CA        -4.8532  -18.0444  -55.4992 C.3       21 UNK         0.1400 
    116 CB        -6.3174  -18.2319  -55.0716 C.3       21 UNK        -0.1800 
    117 C         -4.2152  -19.3927  -55.8801 C.2       21 UNK         0.5000 
    118 O         -4.0215  -19.6623  -57.0659 O.2       21 UNK        -0.5000 
    119 N         -3.8909  -20.1981  -54.8596 N.am      22 UNK        -0.5000 
    120 CA        -3.2207  -21.5079  -54.9383 C.3       22 UNK         0.1400 
    121 C         -4.0794  -22.6502  -55.5619 C.2       22 UNK         0.5000 
    122 N         -5.3840  -22.4800  -55.7379 N.am      22 UNK        -0.7600 
    123 O         -3.5632  -23.7220  -55.8664 O.2       22 UNK        -0.5000 
    124 C124       -1.7904  -21.4466  -55.5499 C.3       23 UNK        -0.0398 
    125 S125       -0.7297  -20.1311  -54.8577 S.3       23 UNK        -0.2404 
    126 C126       -0.2423  -20.8579  -53.2563 C.3       23 UNK        -0.0205 
    127 H127        4.8102  -10.2215  -50.3083 H         1 UNK         0.0600 
    128 H128        3.5878   -9.1274  -49.6519 H         1 UNK         0.0600 
    129 H129        3.4003   -9.7877  -51.2790 H         1 UNK         0.0600 
    130 H130        1.8578  -11.3897  -51.3387 H         1 UNK         0.3000 
    131 H131        1.8138  -13.5476  -49.3627 H         1 UNK         0.0600 
    132 H132       -0.0172  -13.3845  -51.8013 H         1 UNK         0.0800 
    133 H133        1.6642  -13.7445  -51.9976 H         1 UNK         0.0800 
    134 H134        2.7681  -16.0029  -51.7078 H         1 UNK         0.0800 
    135 H135        1.5663  -16.0756  -52.9773 H         1 UNK         0.0800 
    136 H136        0.2146  -18.1045  -53.3161 H         1 UNK         0.1150 
    137 H137        1.4510  -21.7048  -51.3368 H         1 UNK         0.1150 
    138 H138        3.1523  -17.9353  -50.2145 H         1 UNK         0.1150 
    139 H139        3.1479  -21.6694  -49.6786 H         1 UNK         0.0800 
    140 H140        4.2809  -20.3414  -49.7415 H         1 UNK         0.0800 
    141 H141        0.5724  -20.5218  -48.9065 H         1 UNK         0.0800 
    142 H142        0.4150  -19.7934  -47.3485 H         1 UNK         0.0800 
    143 H143        1.5556  -22.6088  -47.5774 H         1 UNK         0.0600 
    144 H144        0.8979  -20.9653  -45.3773 H         1 UNK         0.3000 
    145 H145        0.2773  -23.5570  -42.9708 H         1 UNK         0.0600 
    146 H146        1.9618  -22.1694  -41.7957 H         1 UNK         0.0600 
    147 H147        2.7291  -23.1256  -43.0552 H         1 UNK         0.0600 
    148 H148        2.4383  -21.4104  -43.3121 H         1 UNK         0.0600 
    149 H149        0.0837  -20.7232  -42.7727 H         1 UNK         0.3000 
    150 H150       -3.3935  -20.4727  -43.6724 H         1 UNK         0.0600 
    151 H151       -3.2453  -21.1192  -41.2567 H         1 UNK         0.0600 
    152 H152       -3.4262  -19.3836  -41.4599 H         1 UNK         0.0600 
    153 H153       -1.8513  -20.0634  -41.0568 H         1 UNK         0.0600 
    154 H154       -1.5508  -18.4554  -42.9339 H         1 UNK         0.3000 
    155 H155       -0.2929  -17.7495  -46.2381 H         1 UNK         0.0600 
    156 H156       -2.0783  -16.2236  -44.2746 H         1 UNK         0.0600 
    157 H157       -1.0463  -15.4948  -45.5037 H         1 UNK         0.0600 
    158 H158       -2.4125  -16.4935  -45.9799 H         1 UNK         0.0600 
    159 H159        0.4047  -16.5738  -43.7730 H         1 UNK         0.3000 
    160 H160        2.9772  -18.8825  -42.8019 H         1 UNK         0.0600 
    161 H161        2.9676  -15.9949  -43.8291 H         1 UNK         0.0600 
    162 H162        4.0097  -17.2953  -44.3819 H         1 UNK         0.0600 
    163 H163        4.1732  -16.6851  -42.7421 H         1 UNK         0.0600 
    164 H164        1.7834  -16.5056  -41.6551 H         1 UNK         0.3000 
    165 H165       -0.5050  -18.2342  -39.5356 H         1 UNK         0.0600 
    166 H166        0.7534  -16.9892  -37.8021 H         1 UNK         0.0600 
    167 H167        1.6931  -18.3659  -38.3554 H         1 UNK         0.0600 
    168 H168        2.1040  -16.7475  -38.9106 H         1 UNK         0.0600 
    169 H169        0.1804  -15.4669  -39.8241 H         1 UNK         0.3000 
    170 H170       -2.1692  -14.7037  -42.3947 H         1 UNK         0.0600 
    171 H171       -3.5340  -14.8118  -40.3009 H         1 UNK         0.0600 
    172 H172       -2.2213  -14.0612  -39.4003 H         1 UNK         0.0600 
    173 H173       -3.0481  -13.1659  -40.6751 H         1 UNK         0.0600 
    174 H174       -0.6343  -12.8758  -41.0266 H         1 UNK         0.3000 
    175 H175        1.6778  -12.3802  -41.3773 H         1 UNK         0.0600 
    176 H176        2.6966  -13.3596  -44.0992 H         1 UNK         0.0600 
    177 H177        3.5132  -12.2165  -43.0360 H         1 UNK         0.0600 
    178 H178        3.2981  -13.8835  -42.5282 H         1 UNK         0.0600 
    179 H179        1.1768  -11.4564  -44.1087 H         1 UNK         0.3000 
    180 H180       -1.5573   -9.3595  -43.2474 H         1 UNK         0.0600 
    181 H181        1.2973   -8.6779  -44.1181 H         1 UNK         0.0600 
    182 H182        0.4379   -8.0003  -42.7447 H         1 UNK         0.0600 
    183 H183       -0.1285   -7.6731  -44.3751 H         1 UNK         0.0600 
    184 H184       -1.9050  -10.2068  -45.2183 H         1 UNK         0.3000 
    185 H185       -1.5397  -11.7503  -47.0749 H         1 UNK         0.0600 
    186 H186       -2.0759   -9.3006  -47.3942 H         1 UNK         0.0600 
    187 H187       -0.5552   -9.0747  -48.2495 H         1 UNK         0.0600 
    188 H188       -1.8244  -10.0812  -48.9419 H         1 UNK         0.0600 
    189 H189        1.2143  -11.5122  -47.8776 H         1 UNK         0.3000 
    190 H190       -1.6726  -21.3773  -46.5301 H         1 UNK         0.3000 
    191 H191       -3.1318  -22.5594  -48.6224 H         1 UNK         0.0600 
    192 H192       -4.0112  -21.8278  -45.7777 H         1 UNK         0.0600 
    193 H193       -5.1037  -22.1819  -47.1108 H         1 UNK         0.0600 
    194 H194       -4.0559  -20.7746  -47.1908 H         1 UNK         0.0600 
    195 H195       -2.2856  -23.8599  -45.3897 H         1 UNK         0.3000 
    196 H196       -3.6403  -26.3441  -45.6193 H         1 UNK         0.0600 
    197 H197       -2.1291  -27.0366  -43.7545 H         1 UNK         0.0600 
    198 H198       -2.8183  -25.4463  -43.4640 H         1 UNK         0.0600 
    199 H199       -1.1473  -25.5974  -44.0006 H         1 UNK         0.0600 
    200 H200       -0.3197  -25.3831  -46.5765 H         1 UNK         0.3000 
    201 H201        0.5144  -27.9698  -47.4704 H         1 UNK         0.0600 
    202 H202        2.1172  -26.1853  -46.8613 H         1 UNK         0.0600 
    203 H203        1.5536  -25.1789  -48.1924 H         1 UNK         0.0600 
    204 H204        2.3829  -26.6949  -48.5221 H         1 UNK         0.0600 
    205 H205       -0.8837  -25.1497  -49.2097 H         1 UNK         0.3000 
    206 H206       -0.8065  -26.3322  -51.8127 H         1 UNK         0.0600 
    207 H207       -0.8944  -23.8773  -51.4315 H         1 UNK         0.0600 
    208 H208       -2.2609  -24.3865  -52.4121 H         1 UNK         0.0600 
    209 H209       -2.4951  -24.0218  -50.7069 H         1 UNK         0.0600 
    210 H210       -3.1691  -26.4528  -49.2196 H         1 UNK         0.3000 
    211 H211       -5.1008  -27.4343  -48.8459 H         1 UNK         0.0600 
    212 H212       -4.6789  -29.1803  -51.3302 H         1 UNK         0.0600 
    213 H213       -5.8130  -29.4715  -50.0206 H         1 UNK         0.0600 
    214 H214       -4.0858  -29.5575  -49.7129 H         1 UNK         0.0600 
    215 H215       -5.0268  -24.9803  -50.0055 H         1 UNK         0.3000 
    216 H216       -7.5852  -24.5470  -51.1804 H         1 UNK         0.0600 
    217 H217       -6.7151  -23.5821  -53.3471 H         1 UNK         0.0600 
    218 H218       -6.3693  -25.2985  -53.2719 H         1 UNK         0.0600 
    219 H219       -5.0909  -24.1308  -52.9502 H         1 UNK         0.0600 
    220 H220       -7.5669  -22.0281  -51.8068 H         1 UNK         0.3000 
    221 H221       -6.6714  -20.5584  -49.5139 H         1 UNK         0.0600 
    222 H222       -7.7445  -19.6247  -52.2326 H         1 UNK         0.0600 
    223 H223       -8.7008  -19.9218  -50.7809 H         1 UNK         0.0600 
    224 H224       -7.5460  -18.5978  -50.8187 H         1 UNK         0.0600 
    225 H225       -4.9263  -19.2076  -49.2221 H         1 UNK         0.3000 
    226 H226       -2.5704  -19.4538  -50.8402 H         1 UNK         0.0600 
    227 H227       -1.6745  -17.7262  -49.2609 H         1 UNK         0.0600 
    228 H228       -3.2863  -17.4820  -48.5984 H         1 UNK         0.0600 
    229 H229       -2.4678  -19.0322  -48.3981 H         1 UNK         0.0600 
    230 H230       -1.4788  -17.7517  -51.9423 H         1 UNK         0.3000 
    231 H231       -1.1609  -16.2383  -53.4924 H         1 UNK         0.0600 
    232 H232       -2.4118  -14.1686  -53.6583 H         1 UNK         0.0600 
    233 H233       -2.2260  -14.5540  -51.9537 H         1 UNK         0.0600 
    234 H234       -3.7691  -14.8233  -52.7596 H         1 UNK         0.0600 
    235 H235       -4.5157  -17.4279  -53.4899 H         1 UNK         0.3000 
    236 H236       -4.8347  -17.3991  -56.3800 H         1 UNK         0.0600 
    237 H237       -6.7925  -17.2727  -54.8654 H         1 UNK         0.0600 
    238 H238       -6.8950  -18.7186  -55.8584 H         1 UNK         0.0600 
    239 H239       -6.4005  -18.8450  -54.1737 H         1 UNK         0.0600 
    240 H240       -4.1622  -19.9290  -53.9177 H         1 UNK         0.3000 
    241 H241       -3.1029  -21.8128  -53.8983 H         1 UNK         0.0600 
    242 H242       -5.8227  -21.6096  -55.4866 H         1 UNK         0.3800 
    243 H243       -5.9317  -23.2249  -56.1382 H         1 UNK         0.3800 
    244 H244       -1.2781  -22.4013  -55.4206 H         1 UNK         0.0800 
    245 H245       -1.8528  -21.2859  -56.6271 H         1 UNK         0.0800 
    246 H246        0.2024  -21.8365  -53.4443 H         1 UNK         0.0800 
    247 H247       -1.1374  -21.0294  -52.6572 H         1 UNK         0.0800 
@<TRIPOS>BOND
     1    1    2 1    
     2    1  127 1    
     3    1  128 1    
     4    1  129 1    
     5    2    3 2    
     6    2    4 am   BACKBONE|DICT|INTERRES
     7    4    5 1    
     8    4  130 1    
     9    5    6 1    
    10    5   65 1    
    11    5  131 1    
    12    6    7 1    
    13    6  132 1    
    14    6  133 1    
    15    7    8 1    
    16    8    9 1    
    17    8  134 1    
    18    8  135 1    
    19    9   10 ar   
    20    9   14 ar   
    21   10   11 ar   
    22   10  136 1    
    23   11   12 ar   
    24   11  126 1    
    25   12   13 ar   
    26   12  137 1    
    27   13   14 ar   
    28   13   15 1    
    29   14  138 1    
    30   15   16 1    
    31   15  139 1    
    32   15  140 1    
    33   16   17 1    
    34   17   18 1    
    35   17  141 1    
    36   17  142 1    
    37   18   19 1    
    38   18   67 1    
    39   18  143 1    
    40   19   20 am   BACKBONE|DICT|INTERRES
    41   19  144 1    
    42   20   21 2    
    43   20   22 1    
    44   22   23 1    
    45   22   24 1    
    46   22  145 1    
    47   23  146 1    
    48   23  147 1    
    49   23  148 1    
    50   24   25 am   BACKBONE|DICT|INTERRES
    51   24  149 1    
    52   25   26 2    
    53   25   27 1    
    54   27   28 1    
    55   27   29 1    
    56   27  150 1    
    57   28  151 1    
    58   28  152 1    
    59   28  153 1    
    60   29   30 am   BACKBONE|DICT|INTERRES
    61   29  154 1    
    62   30   31 2    
    63   30   32 1    
    64   32   33 1    
    65   32   34 1    
    66   32  155 1    
    67   33  156 1    
    68   33  157 1    
    69   33  158 1    
    70   34   35 am   BACKBONE|DICT|INTERRES
    71   34  159 1    
    72   35   36 2    
    73   35   37 1    
    74   37   38 1    
    75   37   39 1    
    76   37  160 1    
    77   38  161 1    
    78   38  162 1    
    79   38  163 1    
    80   39   40 am   BACKBONE|DICT|INTERRES
    81   39  164 1    
    82   40   41 2    
    83   40   42 1    
    84   42   43 1    
    85   42   44 1    
    86   42  165 1    
    87   43  166 1    
    88   43  167 1    
    89   43  168 1    
    90   44   45 am   BACKBONE|DICT|INTERRES
    91   44  169 1    
    92   45   46 2    
    93   45   47 1    
    94   47   48 1    
    95   47   49 1    
    96   47  170 1    
    97   48  171 1    
    98   48  172 1    
    99   48  173 1    
   100   49   50 am   BACKBONE|DICT|INTERRES
   101   49  174 1    
   102   50   51 2    
   103   50   52 1    
   104   52   53 1    
   105   52   54 1    
   106   52  175 1    
   107   53  176 1    
   108   53  177 1    
   109   53  178 1    
   110   54   55 am   BACKBONE|DICT|INTERRES
   111   54  179 1    
   112   55   56 2    
   113   55   57 1    
   114   57   58 1    
   115   57   59 1    
   116   57  180 1    
   117   58  181 1    
   118   58  182 1    
   119   58  183 1    
   120   59   60 am   BACKBONE|DICT|INTERRES
   121   59  184 1    
   122   60   61 2    
   123   60   62 1    
   124   62   63 1    
   125   62   64 1    
   126   62  185 1    
   127   63  186 1    
   128   63  187 1    
   129   63  188 1    
   130   64   65 am   BACKBONE|DICT|INTERRES
   131   64  189 1    
   132   65   66 2    
   133   67   68 2    
   134   67   69 am   BACKBONE|DICT|INTERRES
   135   69   70 1    
   136   69  190 1    
   137   70   71 1    
   138   70   72 1    
   139   70  191 1    
   140   71  192 1    
   141   71  193 1    
   142   71  194 1    
   143   72   73 2    
   144   72   74 am   BACKBONE|DICT|INTERRES
   145   74   75 1    
   146   74  195 1    
   147   75   76 1    
   148   75   77 1    
   149   75  196 1    
   150   76  197 1    
   151   76  198 1    
   152   76  199 1    
   153   77   78 2    
   154   77   79 am   BACKBONE|DICT|INTERRES
   155   79   80 1    
   156   79  200 1    
   157   80   81 1    
   158   80   82 1    
   159   80  201 1    
   160   81  202 1    
   161   81  203 1    
   162   81  204 1    
   163   82   83 2    
   164   82   84 am   BACKBONE|DICT|INTERRES
   165   84   85 1    
   166   84  205 1    
   167   85   86 1    
   168   85   87 1    
   169   85  206 1    
   170   86  207 1    
   171   86  208 1    
   172   86  209 1    
   173   87   88 2    
   174   87   89 am   BACKBONE|DICT|INTERRES
   175   89   90 1    
   176   89  210 1    
   177   90   91 1    
   178   90   92 1    
   179   90  211 1    
   180   91  212 1    
   181   91  213 1    
   182   91  214 1    
   183   92   93 2    
   184   92   94 am   BACKBONE|DICT|INTERRES
   185   94   95 1    
   186   94  215 1    
   187   95   96 1    
   188   95   97 1    
   189   95  216 1    
   190   96  217 1    
   191   96  218 1    
   192   96  219 1    
   193   97   98 2    
   194   97   99 am   BACKBONE|DICT|INTERRES
   195   99  100 1    
   196   99  220 1    
   197  100  101 1    
   198  100  102 1    
   199  100  221 1    
   200  101  222 1    
   201  101  223 1    
   202  101  224 1    
   203  102  103 2    
   204  102  104 am   BACKBONE|DICT|INTERRES
   205  104  105 1    
   206  104  225 1    
   207  105  106 1    
   208  105  107 1    
   209  105  226 1    
   210  106  227 1    
   211  106  228 1    
   212  106  229 1    
   213  107  108 2    
   214  107  109 am   BACKBONE|DICT|INTERRES
   215  109  110 1    
   216  109  230 1    
   217  110  111 1    
   218  110  112 1    
   219  110  231 1    
   220  111  232 1    
   221  111  233 1    
   222  111  234 1    
   223  112  113 2    
   224  112  114 am   BACKBONE|DICT|INTERRES
   225  114  115 1    
   226  114  235 1    
   227  115  116 1    
   228  115  117 1    
   229  115  236 1    
   230  116  237 1    
   231  116  238 1    
   232  116  239 1    
   233  117  118 2    
   234  117  119 am   BACKBONE|DICT|INTERRES
   235  119  120 1    
   236  119  240 1    
   237  120  121 1    
   238  120  124 1    
   239  120  241 1    
   240  121  122 am   BACKBONE|DICT|INTERRES
   241  121  123 2    
   242  122  242 1    
   243  122  243 1    
   244  124  125 1    
   245  124  244 1    
   246  124  245 1    
   247  125  126 1    
   248  126  246 1    
   249  126  247 1    
@<TRIPOS>SUBSTRUCTURE
     1 UNK         1 GROUP             0       ****    0 ROOT    
