@<TRIPOS>MOLECULE
3R540
247   249    1
SMALL
USER_CHARGES


@<TRIPOS>ATOM
      1 CA          4.3865  -10.9085  -48.6539 C.3       0 UNK        -0.1800 
      2 C           4.2001  -12.3859  -48.3396 C.2       0 UNK         0.5000 
      3 O           3.1385  -12.7771  -47.8568 O.2       0 UNK        -0.5000 
      4 N           5.2354  -13.1986  -48.5928 N.am      1 UNK        -0.5000 
      5 CA          5.3162  -14.6613  -48.4221 C.3       1 UNK         0.1400 
      6 C6          4.2265  -15.4550  -49.1886 C.3       23 UNK        -0.0398 
      7 S7          4.3002  -15.1794  -50.9919 S.3       23 UNK        -0.2404 
      8 C8          4.7773  -16.8310  -51.6001 C.3       23 UNK        -0.0205 
      9 C9          3.7153  -17.8821  -51.3051 C.ar      23 UNK        -0.0193 
     10 C10         2.4356  -17.7578  -51.8526 C.ar      23 UNK        -0.1150 
     11 C11         1.4453  -18.7004  -51.5669 C.ar      23 UNK        -0.0193 
     12 C12         1.7496  -19.7903  -50.7483 C.ar      23 UNK        -0.1150 
     13 C13         3.0261  -19.9292  -50.1955 C.ar      23 UNK        -0.0193 
     14 C14         4.0057  -18.9726  -50.4788 C.ar      23 UNK        -0.1150 
     15 C15         3.3518  -21.1215  -49.3081 C.3       23 UNK        -0.0205 
     16 S16         3.4512  -20.6928  -47.5375 S.3       23 UNK        -0.2404 
     17 C17         1.7793  -20.0723  -47.1443 C.3       23 UNK        -0.0398 
     18 CA          0.7599  -21.1998  -46.8261 C.3       11 UNK         0.1400 
     19 N          -0.1472  -20.8516  -45.7280 N.am      11 UNK        -0.5000 
     20 C          -1.0274  -21.6916  -45.1624 C.2       10 UNK         0.5000 
     21 O          -1.1010  -22.8887  -45.4379 O.2       10 UNK        -0.5000 
     22 CA         -2.0379  -21.0818  -44.1709 C.3       10 UNK         0.1400 
     23 CB         -1.4552  -21.0182  -42.7517 C.3       10 UNK        -0.1800 
     24 N          -2.4966  -19.7545  -44.5887 N.am      10 UNK        -0.5000 
     25 C          -3.2092  -19.5273  -45.7018 C.2       9 UNK         0.5000 
     26 O          -3.6241  -20.4252  -46.4326 O.2       9 UNK        -0.5000 
     27 CA         -3.4507  -18.0608  -46.1030 C.3       9 UNK         0.1400 
     28 CB         -4.6799  -17.4910  -45.3813 C.3       9 UNK        -0.1800 
     29 N          -2.2850  -17.2093  -45.8575 N.am      9 UNK        -0.5000 
     30 C          -1.1058  -17.3347  -46.4840 C.2       8 UNK         0.5000 
     31 O          -0.9007  -18.1445  -47.3878 O.2       8 UNK        -0.5000 
     32 CA          0.0565  -16.4610  -45.9722 C.3       8 UNK         0.1400 
     33 CB          0.0099  -15.0532  -46.5825 C.3       8 UNK        -0.1800 
     34 N           0.0773  -16.3713  -44.5106 N.am      8 UNK        -0.5000 
     35 C           0.3185  -17.4107  -43.6988 C.2       7 UNK         0.5000 
     36 O           0.6226  -18.5305  -44.1069 O.2       7 UNK        -0.5000 
     37 CA          0.1298  -17.1827  -42.1879 C.3       7 UNK         0.1400 
     38 CB          1.4004  -16.6266  -41.5303 C.3       7 UNK        -0.1800 
     39 N          -0.9959  -16.2935  -41.9084 N.am      7 UNK        -0.5000 
     40 C          -2.2816  -16.6461  -42.0418 C.2       6 UNK         0.5000 
     41 O          -2.6481  -17.7730  -42.3732 O.2       6 UNK        -0.5000 
     42 CA         -3.3279  -15.5411  -41.8057 C.3       6 UNK         0.1400 
     43 CB         -3.6574  -15.4188  -40.3107 C.3       6 UNK        -0.1800 
     44 N          -2.8917  -14.2392  -42.3142 N.am      6 UNK        -0.5000 
     45 C          -2.7109  -13.9562  -43.6122 C.2       5 UNK         0.5000 
     46 O          -2.9417  -14.7520  -44.5207 O.2       5 UNK        -0.5000 
     47 CA         -2.1243  -12.5725  -43.9479 C.3       5 UNK         0.1400 
     48 CB         -3.2459  -11.5359  -44.1083 C.3       5 UNK        -0.1800 
     49 N          -1.1605  -12.0972  -42.9513 N.am      5 UNK        -0.5000 
     50 C           0.0026  -12.6980  -42.6695 C.2       4 UNK         0.5000 
     51 O           0.3918  -13.7345  -43.2148 O.2       4 UNK        -0.5000 
     52 CA          0.8361  -12.0664  -41.5497 C.3       4 UNK         0.1400 
     53 CB          0.3271  -12.5247  -40.1715 C.3       4 UNK        -0.1800 
     54 N           2.2318  -12.4587  -41.7068 N.am      4 UNK        -0.5000 
     55 C           3.2855  -11.7258  -41.3299 C.2       3 UNK         0.5000 
     56 O           3.1851  -10.6222  -40.7914 O.2       3 UNK        -0.5000 
     57 CA          4.6916  -12.3137  -41.5705 C.3       3 UNK         0.1400 
     58 CB          5.3199  -12.7542  -40.2384 C.3       3 UNK        -0.1800 
     59 N           4.7271  -13.4481  -42.4977 N.am      3 UNK        -0.5000 
     60 C           4.5732  -13.3609  -43.8242 C.2       2 UNK         0.5000 
     61 O           4.3324  -12.3079  -44.4206 O.2       2 UNK        -0.5000 
     62 CA          4.7155  -14.6783  -44.6011 C.3       2 UNK         0.1400 
     63 CB          3.5537  -15.6384  -44.2994 C.3       2 UNK        -0.1800 
     64 N           4.7513  -14.4007  -46.0303 N.am      2 UNK        -0.5000 
     65 C           5.3868  -15.1287  -46.9514 C.2       1 UNK         0.5000 
     66 O           6.0315  -16.1430  -46.6809 O.2       1 UNK        -0.5000 
     67 C          -0.0277  -21.6177  -48.0845 C.2       11 UNK         0.5000 
     68 O           0.2605  -22.6671  -48.6567 O.2       11 UNK        -0.5000 
     69 N          -1.0350  -20.8179  -48.4681 N.am      12 UNK        -0.5000 
     70 CA         -1.9431  -21.0952  -49.5844 C.3       12 UNK         0.1400 
     71 CB         -2.9098  -19.9156  -49.7797 C.3       12 UNK        -0.1800 
     72 C          -2.7156  -22.4141  -49.4025 C.2       12 UNK         0.5000 
     73 O          -2.7793  -23.2110  -50.3374 O.2       12 UNK        -0.5000 
     74 N          -3.2354  -22.6428  -48.1887 N.am      13 UNK        -0.5000 
     75 CA         -3.9101  -23.8770  -47.7895 C.3       13 UNK         0.1400 
     76 CB         -4.5328  -23.7036  -46.3975 C.3       13 UNK        -0.1800 
     77 C          -3.0028  -25.1184  -47.8381 C.2       13 UNK         0.5000 
     78 O          -3.4741  -26.1881  -48.2185 O.2       13 UNK        -0.5000 
     79 N          -1.7215  -24.9631  -47.4836 N.am      14 UNK        -0.5000 
     80 CA         -0.7141  -26.0158  -47.6040 C.3       14 UNK         0.1400 
     81 CB          0.5220  -25.6452  -46.7696 C.3       14 UNK        -0.1800 
     82 C          -0.3297  -26.2891  -49.0709 C.2       14 UNK         0.5000 
     83 O          -0.2190  -27.4510  -49.4633 O.2       14 UNK        -0.5000 
     84 N          -0.1312  -25.2169  -49.8486 N.am      15 UNK        -0.5000 
     85 CA          0.3169  -25.2619  -51.2390 C.3       15 UNK         0.1400 
     86 CB          0.7885  -23.8615  -51.6659 C.3       15 UNK        -0.1800 
     87 C          -0.7471  -25.7915  -52.2160 C.2       15 UNK         0.5000 
     88 O          -0.4313  -26.6445  -53.0468 O.2       15 UNK        -0.5000 
     89 N          -1.9724  -25.2611  -52.1202 N.am      16 UNK        -0.5000 
     90 CA         -3.0499  -25.4797  -53.0897 C.3       16 UNK         0.1400 
     91 CB         -3.5703  -24.1061  -53.5449 C.3       16 UNK        -0.1800 
     92 C          -4.1911  -26.3579  -52.5432 C.2       16 UNK         0.5000 
     93 O          -5.2062  -26.5077  -53.2231 O.2       16 UNK        -0.5000 
     94 N          -4.0236  -26.9066  -51.3304 N.am      17 UNK        -0.5000 
     95 CA         -4.9627  -27.7477  -50.5670 C.3       17 UNK         0.1400 
     96 CB         -5.3980  -28.9924  -51.3676 C.3       17 UNK        -0.1800 
     97 C          -6.1758  -26.9910  -49.9784 C.2       17 UNK         0.5000 
     98 O          -6.9177  -27.5675  -49.1814 O.2       17 UNK        -0.5000 
     99 N          -6.3425  -25.7168  -50.3416 N.am      18 UNK        -0.5000 
    100 CA        -7.3311  -24.7736  -49.8403 C.3       18 UNK         0.1400 
    101 CB        -8.7045  -25.0395  -50.4807 C.3       18 UNK        -0.1800 
    102 C         -6.8218  -23.3730  -50.1969 C.2       18 UNK         0.5000 
    103 O         -6.1610  -23.2139  -51.2257 O.2       18 UNK        -0.5000 
    104 N         -7.1375  -22.3731  -49.3664 N.am      19 UNK        -0.5000 
    105 CA        -6.6883  -20.9832  -49.5163 C.3       19 UNK         0.1400 
    106 CB        -6.7311  -20.2933  -48.1413 C.3       19 UNK        -0.1800 
    107 C         -7.4654  -20.2000  -50.6009 C.2       19 UNK         0.5000 
    108 O         -7.8022  -19.0310  -50.4062 O.2       19 UNK        -0.5000 
    109 N         -7.7331  -20.8513  -51.7378 N.am      20 UNK        -0.5000 
    110 CA        -8.4995  -20.3485  -52.8774 C.3       20 UNK         0.1400 
    111 CB        -9.1119  -21.5531  -53.6155 C.3       20 UNK        -0.1800 
    112 C         -7.6442  -19.4527  -53.7982 C.2       20 UNK         0.5000 
    113 O         -7.5567  -19.7062  -55.0004 O.2       20 UNK        -0.5000 
    114 N         -7.0247  -18.4231  -53.2034 N.am      21 UNK        -0.5000 
    115 CA        -6.1356  -17.4358  -53.8269 C.3       21 UNK         0.1400 
    116 CB        -6.9059  -16.5605  -54.8386 C.3       21 UNK        -0.1800 
    117 C         -4.8494  -18.0590  -54.4142 C.2       21 UNK         0.5000 
    118 O         -4.3922  -17.6449  -55.4816 O.2       21 UNK        -0.5000 
    119 N         -4.2740  -19.0224  -53.6802 N.am      22 UNK        -0.5000 
    120 CA        -3.0454  -19.7591  -54.0266 C.3       22 UNK         0.1400 
    121 C         -3.2239  -20.7554  -55.2154 C.2       22 UNK         0.5000 
    122 N         -2.1404  -21.2891  -55.7638 N.am      22 UNK        -0.7600 
    123 O         -4.3336  -21.0883  -55.6236 O.2       22 UNK        -0.5000 
    124 C124       -1.8213  -18.8068  -54.1896 C.3       23 UNK        -0.0398 
    125 S125       -0.2488  -19.5252  -53.5991 S.3       23 UNK        -0.2404 
    126 C126        0.0410  -18.5167  -52.1146 C.3       23 UNK        -0.0205 
    127 H127        4.2719  -10.3156  -47.7464 H         1 UNK         0.0600 
    128 H128        3.6363  -10.5814  -49.3735 H         1 UNK         0.0600 
    129 H129        5.3718  -10.7030  -49.0727 H         1 UNK         0.0600 
    130 H130        6.0785  -12.7834  -48.9640 H         1 UNK         0.3000 
    131 H131        6.2779  -14.9396  -48.8568 H         1 UNK         0.0600 
    132 H132        4.3308  -16.5222  -48.9874 H         1 UNK         0.0800 
    133 H133        3.2276  -15.1904  -48.8398 H         1 UNK         0.0800 
    134 H134        4.9339  -16.7791  -52.6783 H         1 UNK         0.0800 
    135 H135        5.7373  -17.1099  -51.1625 H         1 UNK         0.0800 
    136 H136        2.2068  -16.9118  -52.4857 H         1 UNK         0.1150 
    137 H137        0.9895  -20.5285  -50.5421 H         1 UNK         0.1150 
    138 H138        4.9922  -19.0778  -50.0493 H         1 UNK         0.1150 
    139 H139        2.6263  -21.9213  -49.4514 H         1 UNK         0.0800 
    140 H140        4.3118  -21.5384  -49.6158 H         1 UNK         0.0800 
    141 H141        1.4313  -19.3975  -47.9278 H         1 UNK         0.0800 
    142 H142        1.9085  -19.4367  -46.2680 H         1 UNK         0.0800 
    143 H143        1.3118  -22.0787  -46.4857 H         1 UNK         0.0600 
    144 H144       -0.1094  -19.8959  -45.3897 H         1 UNK         0.3000 
    145 H145       -2.9102  -21.7376  -44.1428 H         1 UNK         0.0600 
    146 H146       -2.1788  -20.6107  -42.0456 H         1 UNK         0.0600 
    147 H147       -1.1826  -22.0141  -42.4006 H         1 UNK         0.0600 
    148 H148       -0.5589  -20.4014  -42.7066 H         1 UNK         0.0600 
    149 H149       -2.2518  -18.9720  -43.9920 H         1 UNK         0.3000 
    150 H150       -3.6535  -18.0424  -47.1756 H         1 UNK         0.0600 
    151 H151       -5.5648  -18.0962  -45.5826 H         1 UNK         0.0600 
    152 H152       -4.8970  -16.4761  -45.7149 H         1 UNK         0.0600 
    153 H153       -4.5384  -17.4648  -44.3011 H         1 UNK         0.0600 
    154 H154       -2.4006  -16.4645  -45.1759 H         1 UNK         0.3000 
    155 H155        0.9896  -16.9309  -46.2905 H         1 UNK         0.0600 
    156 H156        0.0650  -15.1004  -47.6707 H         1 UNK         0.0600 
    157 H157        0.8489  -14.4457  -46.2415 H         1 UNK         0.0600 
    158 H158       -0.9102  -14.5305  -46.3236 H         1 UNK         0.0600 
    159 H159       -0.1042  -15.4618  -44.0991 H         1 UNK         0.3000 
    160 H160       -0.0796  -18.1531  -41.7330 H         1 UNK         0.0600 
    161 H161        1.6548  -15.6371  -41.9074 H         1 UNK         0.0600 
    162 H162        2.2515  -17.2834  -41.7136 H         1 UNK         0.0600 
    163 H163        1.2800  -16.5484  -40.4497 H         1 UNK         0.0600 
    164 H164       -0.7740  -15.3348  -41.6866 H         1 UNK         0.3000 
    165 H165       -4.2395  -15.8261  -42.3353 H         1 UNK         0.0600 
    166 H166       -4.4509  -14.6909  -40.1404 H         1 UNK         0.0600 
    167 H167       -4.0010  -16.3726  -39.9081 H         1 UNK         0.0600 
    168 H168       -2.7878  -15.1106  -39.7288 H         1 UNK         0.0600 
    169 H169       -2.6852  -13.5255  -41.6314 H         1 UNK         0.3000 
    170 H170       -1.6012  -12.6585  -44.9022 H         1 UNK         0.0600 
    171 H171       -3.9678  -11.8558  -44.8612 H         1 UNK         0.0600 
    172 H172       -3.7903  -11.3822  -43.1758 H         1 UNK         0.0600 
    173 H173       -2.8497  -10.5724  -44.4294 H         1 UNK         0.0600 
    174 H174       -1.4111  -11.2558  -42.4518 H         1 UNK         0.3000 
    175 H175        0.7466  -10.9810  -41.6322 H         1 UNK         0.0600 
    176 H176        0.4055  -13.6064  -40.0537 H         1 UNK         0.0600 
    177 H177        0.8974  -12.0604  -39.3669 H         1 UNK         0.0600 
    178 H178       -0.7184  -12.2512  -40.0246 H         1 UNK         0.0600 
    179 H179        2.3771  -13.3248  -42.2076 H         1 UNK         0.3000 
    180 H180        5.3072  -11.5138  -41.9875 H         1 UNK         0.0600 
    181 H181        4.7533  -13.5629  -39.7749 H         1 UNK         0.0600 
    182 H182        5.3526  -11.9275  -39.5273 H         1 UNK         0.0600 
    183 H183        6.3448  -13.0981  -40.3791 H         1 UNK         0.0600 
    184 H184        4.9180  -14.3504  -42.0862 H         1 UNK         0.3000 
    185 H185        5.6576  -15.1411  -44.2994 H         1 UNK         0.0600 
    186 H186        3.5914  -15.9740  -43.2644 H         1 UNK         0.0600 
    187 H187        2.5893  -15.1573  -44.4629 H         1 UNK         0.0600 
    188 H188        3.5936  -16.5303  -44.9252 H         1 UNK         0.0600 
    189 H189        4.2478  -13.5686  -46.3231 H         1 UNK         0.3000 
    190 H190       -1.1772  -19.9447  -47.9671 H         1 UNK         0.3000 
    191 H191       -1.3350  -21.1877  -50.4861 H         1 UNK         0.0600 
    192 H192       -2.3809  -18.9647  -49.8307 H         1 UNK         0.0600 
    193 H193       -3.4742  -20.0279  -50.7054 H         1 UNK         0.0600 
    194 H194       -3.6302  -19.8410  -48.9664 H         1 UNK         0.0600 
    195 H195       -3.1801  -21.9059  -47.4892 H         1 UNK         0.3000 
    196 H196       -4.7173  -24.0502  -48.4984 H         1 UNK         0.0600 
    197 H197       -5.0809  -24.5988  -46.1013 H         1 UNK         0.0600 
    198 H198       -5.2355  -22.8710  -46.3793 H         1 UNK         0.0600 
    199 H199       -3.7732  -23.5174  -45.6386 H         1 UNK         0.0600 
    200 H200       -1.4136  -24.0669  -47.1221 H         1 UNK         0.3000 
    201 H201       -1.1302  -26.9372  -47.1911 H         1 UNK         0.0600 
    202 H202        0.2608  -25.5084  -45.7201 H         1 UNK         0.0600 
    203 H203        0.9877  -24.7236  -47.1188 H         1 UNK         0.0600 
    204 H204        1.2754  -26.4323  -46.8184 H         1 UNK         0.0600 
    205 H205       -0.1974  -24.2935  -49.4259 H         1 UNK         0.3000 
    206 H206        1.1765  -25.9333  -51.2921 H         1 UNK         0.0600 
    207 H207        1.6234  -23.5243  -51.0522 H         1 UNK         0.0600 
    208 H208        1.1266  -23.8593  -52.7028 H         1 UNK         0.0600 
    209 H209       -0.0090  -23.1225  -51.5786 H         1 UNK         0.0600 
    210 H210       -2.1578  -24.5604  -51.4032 H         1 UNK         0.3000 
    211 H211       -2.6667  -25.9920  -53.9742 H         1 UNK         0.0600 
    212 H212       -3.9982  -23.5406  -52.7178 H         1 UNK         0.0600 
    213 H213       -4.3414  -24.2035  -54.3099 H         1 UNK         0.0600 
    214 H214       -2.7652  -23.5097  -53.9726 H         1 UNK         0.0600 
    215 H215       -3.1637  -26.6868  -50.8459 H         1 UNK         0.3000 
    216 H216       -4.3944  -28.1121  -49.7107 H         1 UNK         0.0600 
    217 H217       -5.9372  -29.6933  -50.7294 H         1 UNK         0.0600 
    218 H218       -4.5371  -29.5222  -51.7751 H         1 UNK         0.0600 
    219 H219       -6.0611  -28.7374  -52.1944 H         1 UNK         0.0600 
    220 H220       -5.6955  -25.3105  -51.0065 H         1 UNK         0.3000 
    221 H221       -7.3986  -24.8662  -48.7544 H         1 UNK         0.0600 
    222 H222       -8.6594  -24.9687  -51.5684 H         1 UNK         0.0600 
    223 H223       -9.0770  -26.0316  -50.2257 H         1 UNK         0.0600 
    224 H224       -9.4441  -24.3167  -50.1342 H         1 UNK         0.0600 
    225 H225       -7.7258  -22.5647  -48.5681 H         1 UNK         0.3000 
    226 H226       -5.6458  -21.0005  -49.8373 H         1 UNK         0.0600 
    227 H227       -6.1476  -20.8454  -47.4052 H         1 UNK         0.0600 
    228 H228       -6.3105  -19.2881  -48.1910 H         1 UNK         0.0600 
    229 H229       -7.7512  -20.2074  -47.7656 H         1 UNK         0.0600 
    230 H230       -7.3389  -21.7819  -51.8352 H         1 UNK         0.3000 
    231 H231       -9.3222  -19.7341  -52.5058 H         1 UNK         0.0600 
    232 H232       -8.3410  -22.2127  -54.0163 H         1 UNK         0.0600 
    233 H233       -9.7355  -21.2279  -54.4491 H         1 UNK         0.0600 
    234 H234       -9.7434  -22.1428  -52.9507 H         1 UNK         0.0600 
    235 H235       -7.1777  -18.3163  -52.2053 H         1 UNK         0.3000 
    236 H236       -5.8049  -16.7796  -53.0206 H         1 UNK         0.0600 
    237 H237       -7.7962  -16.1245  -54.3855 H         1 UNK         0.0600 
    238 H238       -6.2865  -15.7353  -55.1919 H         1 UNK         0.0600 
    239 H239       -7.2191  -17.1301  -55.7139 H         1 UNK         0.0600 
    240 H240       -4.7514  -19.3282  -52.8464 H         1 UNK         0.3000 
    241 H241       -2.8677  -20.3946  -53.1583 H         1 UNK         0.0600 
    242 H242       -1.2184  -21.0471  -55.4325 H         1 UNK         0.3800 
    243 H243       -2.2439  -21.9429  -56.5237 H         1 UNK         0.3800 
    244 H244       -1.7008  -18.4983  -55.2297 H         1 UNK         0.0800 
    245 H245       -1.9960  -17.8793  -53.6435 H         1 UNK         0.0800 
    246 H246       -0.1246  -17.4634  -52.3466 H         1 UNK         0.0800 
    247 H247       -0.6881  -18.7807  -51.3507 H         1 UNK         0.0800 
@<TRIPOS>BOND
     1    1    2 1    
     2    1  127 1    
     3    1  128 1    
     4    1  129 1    
     5    2    3 2    
     6    2    4 am   BACKBONE|DICT|INTERRES
     7    4    5 1    
     8    4  130 1    
     9    5    6 1    
    10    5   65 1    
    11    5  131 1    
    12    6    7 1    
    13    6  132 1    
    14    6  133 1    
    15    7    8 1    
    16    8    9 1    
    17    8  134 1    
    18    8  135 1    
    19    9   10 ar   
    20    9   14 ar   
    21   10   11 ar   
    22   10  136 1    
    23   11   12 ar   
    24   11  126 1    
    25   12   13 ar   
    26   12  137 1    
    27   13   14 ar   
    28   13   15 1    
    29   14  138 1    
    30   15   16 1    
    31   15  139 1    
    32   15  140 1    
    33   16   17 1    
    34   17   18 1    
    35   17  141 1    
    36   17  142 1    
    37   18   19 1    
    38   18   67 1    
    39   18  143 1    
    40   19   20 am   BACKBONE|DICT|INTERRES
    41   19  144 1    
    42   20   21 2    
    43   20   22 1    
    44   22   23 1    
    45   22   24 1    
    46   22  145 1    
    47   23  146 1    
    48   23  147 1    
    49   23  148 1    
    50   24   25 am   BACKBONE|DICT|INTERRES
    51   24  149 1    
    52   25   26 2    
    53   25   27 1    
    54   27   28 1    
    55   27   29 1    
    56   27  150 1    
    57   28  151 1    
    58   28  152 1    
    59   28  153 1    
    60   29   30 am   BACKBONE|DICT|INTERRES
    61   29  154 1    
    62   30   31 2    
    63   30   32 1    
    64   32   33 1    
    65   32   34 1    
    66   32  155 1    
    67   33  156 1    
    68   33  157 1    
    69   33  158 1    
    70   34   35 am   BACKBONE|DICT|INTERRES
    71   34  159 1    
    72   35   36 2    
    73   35   37 1    
    74   37   38 1    
    75   37   39 1    
    76   37  160 1    
    77   38  161 1    
    78   38  162 1    
    79   38  163 1    
    80   39   40 am   BACKBONE|DICT|INTERRES
    81   39  164 1    
    82   40   41 2    
    83   40   42 1    
    84   42   43 1    
    85   42   44 1    
    86   42  165 1    
    87   43  166 1    
    88   43  167 1    
    89   43  168 1    
    90   44   45 am   BACKBONE|DICT|INTERRES
    91   44  169 1    
    92   45   46 2    
    93   45   47 1    
    94   47   48 1    
    95   47   49 1    
    96   47  170 1    
    97   48  171 1    
    98   48  172 1    
    99   48  173 1    
   100   49   50 am   BACKBONE|DICT|INTERRES
   101   49  174 1    
   102   50   51 2    
   103   50   52 1    
   104   52   53 1    
   105   52   54 1    
   106   52  175 1    
   107   53  176 1    
   108   53  177 1    
   109   53  178 1    
   110   54   55 am   BACKBONE|DICT|INTERRES
   111   54  179 1    
   112   55   56 2    
   113   55   57 1    
   114   57   58 1    
   115   57   59 1    
   116   57  180 1    
   117   58  181 1    
   118   58  182 1    
   119   58  183 1    
   120   59   60 am   BACKBONE|DICT|INTERRES
   121   59  184 1    
   122   60   61 2    
   123   60   62 1    
   124   62   63 1    
   125   62   64 1    
   126   62  185 1    
   127   63  186 1    
   128   63  187 1    
   129   63  188 1    
   130   64   65 am   BACKBONE|DICT|INTERRES
   131   64  189 1    
   132   65   66 2    
   133   67   68 2    
   134   67   69 am   BACKBONE|DICT|INTERRES
   135   69   70 1    
   136   69  190 1    
   137   70   71 1    
   138   70   72 1    
   139   70  191 1    
   140   71  192 1    
   141   71  193 1    
   142   71  194 1    
   143   72   73 2    
   144   72   74 am   BACKBONE|DICT|INTERRES
   145   74   75 1    
   146   74  195 1    
   147   75   76 1    
   148   75   77 1    
   149   75  196 1    
   150   76  197 1    
   151   76  198 1    
   152   76  199 1    
   153   77   78 2    
   154   77   79 am   BACKBONE|DICT|INTERRES
   155   79   80 1    
   156   79  200 1    
   157   80   81 1    
   158   80   82 1    
   159   80  201 1    
   160   81  202 1    
   161   81  203 1    
   162   81  204 1    
   163   82   83 2    
   164   82   84 am   BACKBONE|DICT|INTERRES
   165   84   85 1    
   166   84  205 1    
   167   85   86 1    
   168   85   87 1    
   169   85  206 1    
   170   86  207 1    
   171   86  208 1    
   172   86  209 1    
   173   87   88 2    
   174   87   89 am   BACKBONE|DICT|INTERRES
   175   89   90 1    
   176   89  210 1    
   177   90   91 1    
   178   90   92 1    
   179   90  211 1    
   180   91  212 1    
   181   91  213 1    
   182   91  214 1    
   183   92   93 2    
   184   92   94 am   BACKBONE|DICT|INTERRES
   185   94   95 1    
   186   94  215 1    
   187   95   96 1    
   188   95   97 1    
   189   95  216 1    
   190   96  217 1    
   191   96  218 1    
   192   96  219 1    
   193   97   98 2    
   194   97   99 am   BACKBONE|DICT|INTERRES
   195   99  100 1    
   196   99  220 1    
   197  100  101 1    
   198  100  102 1    
   199  100  221 1    
   200  101  222 1    
   201  101  223 1    
   202  101  224 1    
   203  102  103 2    
   204  102  104 am   BACKBONE|DICT|INTERRES
   205  104  105 1    
   206  104  225 1    
   207  105  106 1    
   208  105  107 1    
   209  105  226 1    
   210  106  227 1    
   211  106  228 1    
   212  106  229 1    
   213  107  108 2    
   214  107  109 am   BACKBONE|DICT|INTERRES
   215  109  110 1    
   216  109  230 1    
   217  110  111 1    
   218  110  112 1    
   219  110  231 1    
   220  111  232 1    
   221  111  233 1    
   222  111  234 1    
   223  112  113 2    
   224  112  114 am   BACKBONE|DICT|INTERRES
   225  114  115 1    
   226  114  235 1    
   227  115  116 1    
   228  115  117 1    
   229  115  236 1    
   230  116  237 1    
   231  116  238 1    
   232  116  239 1    
   233  117  118 2    
   234  117  119 am   BACKBONE|DICT|INTERRES
   235  119  120 1    
   236  119  240 1    
   237  120  121 1    
   238  120  124 1    
   239  120  241 1    
   240  121  122 am   BACKBONE|DICT|INTERRES
   241  121  123 2    
   242  122  242 1    
   243  122  243 1    
   244  124  125 1    
   245  124  244 1    
   246  124  245 1    
   247  125  126 1    
   248  126  246 1    
   249  126  247 1    
@<TRIPOS>SUBSTRUCTURE
     1 UNK         1 GROUP             0       ****    0 ROOT    
