@<TRIPOS>MOLECULE
3R540
247   249    1
SMALL
USER_CHARGES


@<TRIPOS>ATOM
      1 CA          7.5061  -10.4284  -49.6036 C.3       0 UNK        -0.1800 
      2 C           6.9884  -11.8293  -49.3090 C.2       0 UNK         0.5000 
      3 O           7.7857  -12.7434  -49.0999 O.2       0 UNK        -0.5000 
      4 N           5.6593  -11.9983  -49.3005 N.am      1 UNK        -0.5000 
      5 CA          4.9635  -13.2559  -49.0049 C.3       1 UNK         0.1400 
      6 C6          3.4612  -13.1507  -49.3828 C.3       23 UNK        -0.0398 
      7 S7          2.4832  -14.6624  -49.0739 S.3       23 UNK        -0.2404 
      8 C8          2.2420  -15.2798  -50.7646 C.3       23 UNK        -0.0205 
      9 C9          1.4262  -16.5602  -50.7513 C.ar      23 UNK        -0.0193 
     10 C10         0.0301  -16.5032  -50.7751 C.ar      23 UNK        -0.1150 
     11 C11        -0.7272  -17.6767  -50.7485 C.ar      23 UNK        -0.0193 
     12 C12        -0.0770  -18.9132  -50.6809 C.ar      23 UNK        -0.1150 
     13 C13         1.3194  -18.9831  -50.6712 C.ar      23 UNK        -0.0193 
     14 C14         2.0657  -17.8021  -50.7096 C.ar      23 UNK        -0.1150 
     15 C15         2.0190  -20.3356  -50.6328 C.3       23 UNK        -0.0205 
     16 S16         3.0225  -20.5814  -49.1277 S.3       23 UNK        -0.2404 
     17 C17         1.7946  -20.3610  -47.7953 C.3       23 UNK        -0.0398 
     18 CA          1.2134  -21.6845  -47.2453 C.3       11 UNK         0.1400 
     19 N           0.5200  -21.4665  -45.9740 N.am      11 UNK        -0.5000 
     20 C           0.0113  -22.4275  -45.1912 C.2       10 UNK         0.5000 
     21 O           0.1377  -23.6314  -45.4138 O.2       10 UNK        -0.5000 
     22 CA         -0.8241  -21.9610  -43.9847 C.3       10 UNK         0.1400 
     23 CB          0.0825  -21.5904  -42.8020 C.3       10 UNK        -0.1800 
     24 N          -1.7033  -20.8349  -44.3120 N.am      10 UNK        -0.5000 
     25 C          -2.7190  -20.9016  -45.1852 C.2       9 UNK         0.5000 
     26 O          -3.0506  -21.9361  -45.7606 O.2       9 UNK        -0.5000 
     27 CA         -3.4663  -19.5954  -45.5078 C.3       9 UNK         0.1400 
     28 CB         -4.5135  -19.2822  -44.4296 C.3       9 UNK        -0.1800 
     29 N          -2.5683  -18.4535  -45.6765 N.am      9 UNK        -0.5000 
     30 C          -1.6575  -18.3423  -46.6542 C.2       8 UNK         0.5000 
     31 O          -1.5157  -19.1773  -47.5472 O.2       8 UNK        -0.5000 
     32 CA         -0.7066  -17.1303  -46.5851 C.3       8 UNK         0.1400 
     33 CB         -1.3736  -15.8634  -47.1387 C.3       8 UNK        -0.1800 
     34 N          -0.2310  -16.8733  -45.2242 N.am      8 UNK        -0.5000 
     35 C           0.5232  -17.7257  -44.5157 C.2       7 UNK         0.5000 
     36 O           0.9453  -18.7941  -44.9565 O.2       7 UNK        -0.5000 
     37 CA          0.8034  -17.3509  -43.0512 C.3       7 UNK         0.1400 
     38 CB          1.9565  -16.3448  -42.9482 C.3       7 UNK        -0.1800 
     39 N          -0.3833  -16.8088  -42.3913 N.am      7 UNK        -0.5000 
     40 C          -1.4623  -17.5362  -42.0701 C.2       6 UNK         0.5000 
     41 O          -1.5541  -18.7466  -42.2692 O.2       6 UNK        -0.5000 
     42 CA         -2.6539  -16.7751  -41.4625 C.3       6 UNK         0.1400 
     43 CB         -2.4748  -16.6108  -39.9460 C.3       6 UNK        -0.1800 
     44 N          -2.8522  -15.4601  -42.0732 N.am      6 UNK        -0.5000 
     45 C          -3.2022  -15.2624  -43.3522 C.2       5 UNK         0.5000 
     46 O          -3.4233  -16.1726  -44.1490 O.2       5 UNK        -0.5000 
     47 CA         -3.2704  -13.8025  -43.8321 C.3       5 UNK         0.1400 
     48 CB         -4.6669  -13.2155  -43.5790 C.3       5 UNK        -0.1800 
     49 N          -2.2602  -12.9470  -43.2037 N.am      5 UNK        -0.5000 
     50 C          -0.9406  -13.0739  -43.3910 C.2       4 UNK         0.5000 
     51 O          -0.4263  -13.9445  -44.0990 O.2       4 UNK        -0.5000 
     52 CA         -0.0441  -12.0786  -42.6471 C.3       4 UNK         0.1400 
     53 CB          0.6713  -12.7529  -41.4646 C.3       4 UNK        -0.1800 
     54 N           0.9363  -11.5601  -43.5916 N.am      4 UNK        -0.5000 
     55 C           1.4279  -10.3150  -43.5957 C.2       3 UNK         0.5000 
     56 O           1.1483   -9.4699  -42.7430 O.2       3 UNK        -0.5000 
     57 CA          2.3715   -9.9568  -44.7648 C.3       3 UNK         0.1400 
     58 CB          3.2265   -8.6988  -44.4995 C.3       3 UNK        -0.1800 
     59 N           3.2005  -11.0897  -45.1963 N.am      3 UNK        -0.5000 
     60 C           4.1687  -11.7027  -44.4934 C.2       2 UNK         0.5000 
     61 O           4.5434  -11.3518  -43.3746 O.2       2 UNK        -0.5000 
     62 CA          4.8237  -12.9252  -45.1560 C.3       2 UNK         0.1400 
     63 CB          4.0690  -14.1921  -44.6991 C.3       2 UNK        -0.1800 
     64 N           4.8123  -12.7717  -46.6147 N.am      2 UNK        -0.5000 
     65 C           5.1754  -13.6764  -47.5331 C.2       1 UNK         0.5000 
     66 O           5.6635  -14.7775  -47.2749 O.2       1 UNK        -0.5000 
     67 C           0.2989  -22.3870  -48.2711 C.2       11 UNK         0.5000 
     68 O           0.7135  -23.3740  -48.8799 O.2       11 UNK        -0.5000 
     69 N          -0.9426  -21.8991  -48.4084 N.am      12 UNK        -0.5000 
     70 CA         -1.9694  -22.5006  -49.2567 C.3       12 UNK         0.1400 
     71 CB         -3.2099  -21.6045  -49.2903 C.3       12 UNK        -0.1800 
     72 C          -2.3473  -23.9217  -48.8096 C.2       12 UNK         0.5000 
     73 O          -2.4275  -24.8114  -49.6526 O.2       12 UNK        -0.5000 
     74 N          -2.5251  -24.1263  -47.4969 N.am      13 UNK        -0.5000 
     75 CA         -2.8235  -25.4258  -46.8935 C.3       13 UNK         0.1400 
     76 CB         -3.1112  -25.2525  -45.3951 C.3       13 UNK        -0.1800 
     77 C          -1.7082  -26.4618  -47.1233 C.2       13 UNK         0.5000 
     78 O          -2.0112  -27.6126  -47.4381 O.2       13 UNK        -0.5000 
     79 N          -0.4430  -26.0279  -47.0268 N.am      14 UNK        -0.5000 
     80 CA          0.7390  -26.8316  -47.3509 C.3       14 UNK         0.1400 
     81 CB          2.0043  -26.0851  -46.9024 C.3       14 UNK        -0.1800 
     82 C           0.8226  -27.2078  -48.8449 C.2       14 UNK         0.5000 
     83 O           1.2905  -28.2991  -49.1708 O.2       14 UNK        -0.5000 
     84 N           0.3321  -26.3194  -49.7194 N.am      15 UNK        -0.5000 
     85 CA          0.1873  -26.5385  -51.1608 C.3       15 UNK         0.1400 
     86 CB          0.2099  -25.1738  -51.8709 C.3       15 UNK        -0.1800 
     87 C          -1.0831  -27.3359  -51.5374 C.2       15 UNK         0.5000 
     88 O          -1.2689  -27.6355  -52.7177 O.2       15 UNK        -0.5000 
     89 N          -1.9286  -27.6597  -50.5460 N.am      16 UNK        -0.5000 
     90 CA         -3.2250  -28.3391  -50.6476 C.3       16 UNK         0.1400 
     91 CB         -3.0543  -29.7851  -51.1589 C.3       16 UNK        -0.1800 
     92 C          -4.2777  -27.5300  -51.4378 C.2       16 UNK         0.5000 
     93 O          -5.0912  -28.1107  -52.1597 O.2       16 UNK        -0.5000 
     94 N          -4.2471  -26.2031  -51.2781 N.am      17 UNK        -0.5000 
     95 CA         -5.1559  -25.2389  -51.8896 C.3       17 UNK         0.1400 
     96 CB         -4.3141  -24.2566  -52.7201 C.3       17 UNK        -0.1800 
     97 C          -5.9379  -24.4767  -50.8063 C.2       17 UNK         0.5000 
     98 O          -5.5831  -24.5213  -49.6258 O.2       17 UNK        -0.5000 
     99 N          -6.9813  -23.7579  -51.2363 N.am      18 UNK        -0.5000 
    100 CA        -7.6910  -22.7736  -50.4191 C.3       18 UNK         0.1400 
    101 CB        -9.0453  -22.4661  -51.0763 C.3       18 UNK        -0.1800 
    102 C         -6.8600  -21.4846  -50.2908 C.2       18 UNK         0.5000 
    103 O         -6.0994  -21.1586  -51.2054 O.2       18 UNK        -0.5000 
    104 N         -7.0544  -20.7407  -49.1944 N.am      19 UNK        -0.5000 
    105 CA        -6.3273  -19.5033  -48.8782 C.3       19 UNK         0.1400 
    106 CB        -6.7535  -19.0117  -47.4868 C.3       19 UNK        -0.1800 
    107 C         -6.4833  -18.3780  -49.9220 C.2       19 UNK         0.5000 
    108 O         -5.5805  -17.5540  -50.0579 O.2       19 UNK        -0.5000 
    109 N         -7.6113  -18.3736  -50.6445 N.am      20 UNK        -0.5000 
    110 CA        -7.8848  -17.4529  -51.7487 C.3       20 UNK         0.1400 
    111 CB        -9.4049  -17.2506  -51.8514 C.3       20 UNK        -0.1800 
    112 C         -7.3205  -17.9440  -53.0979 C.2       20 UNK         0.5000 
    113 O         -7.1595  -17.1308  -54.0089 O.2       20 UNK        -0.5000 
    114 N         -7.0588  -19.2529  -53.2200 N.am      21 UNK        -0.5000 
    115 CA        -6.5540  -19.8911  -54.4369 C.3       21 UNK         0.1400 
    116 CB        -7.1432  -21.3063  -54.5470 C.3       21 UNK        -0.1800 
    117 C         -5.0179  -19.9472  -54.4610 C.2       21 UNK         0.5000 
    118 O         -4.4274  -19.8396  -55.5358 O.2       21 UNK        -0.5000 
    119 N         -4.4048  -20.1304  -53.2850 N.am      22 UNK        -0.5000 
    120 CA        -2.9560  -20.1675  -53.0107 C.3       22 UNK         0.1400 
    121 C         -2.1777  -21.3842  -53.5903 C.2       22 UNK         0.5000 
    122 N         -2.6339  -22.0260  -54.6565 N.am      22 UNK        -0.7600 
    123 O         -1.1475  -21.7632  -53.0418 O.2       22 UNK        -0.5000 
    124 C124       -2.2255  -18.8442  -53.3663 C.3       23 UNK        -0.0398 
    125 S125       -2.8848  -17.3824  -52.4924 S.3       23 UNK        -0.2404 
    126 C126       -2.2466  -17.6071  -50.7989 C.3       23 UNK        -0.0205 
    127 H127        6.6933   -9.7234  -49.7800 H         1 UNK         0.0600 
    128 H128        8.1421  -10.4417  -50.4887 H         1 UNK         0.0600 
    129 H129        8.0966  -10.0626  -48.7637 H         1 UNK         0.0600 
    130 H130        5.0687  -11.2030  -49.4982 H         1 UNK         0.3000 
    131 H131        5.4074  -14.0320  -49.6323 H         1 UNK         0.0600 
    132 H132        3.3700  -12.8794  -50.4355 H         1 UNK         0.0800 
    133 H133        2.9865  -12.3375  -48.8319 H         1 UNK         0.0800 
    134 H134        3.2122  -15.4530  -51.2330 H         1 UNK         0.0800 
    135 H135        1.7353  -14.5220  -51.3644 H         1 UNK         0.0800 
    136 H136       -0.4683  -15.5448  -50.8160 H         1 UNK         0.1150 
    137 H137       -0.6596  -19.8233  -50.6524 H         1 UNK         0.1150 
    138 H138        3.1455  -17.8514  -50.6937 H         1 UNK         0.1150 
    139 H139        1.2969  -21.1484  -50.7240 H         1 UNK         0.0800 
    140 H140        2.6714  -20.4168  -51.5031 H         1 UNK         0.0800 
    141 H141        1.0023  -19.6825  -48.1083 H         1 UNK         0.0800 
    142 H142        2.3173  -19.8392  -46.9930 H         1 UNK         0.0800 
    143 H143        2.0465  -22.3586  -47.0352 H         1 UNK         0.0600 
    144 H144        0.4172  -20.4995  -45.6788 H         1 UNK         0.3000 
    145 H145       -1.4550  -22.7967  -43.6757 H         1 UNK         0.0600 
    146 H146       -0.5054  -21.3386  -41.9193 H         1 UNK         0.0600 
    147 H147        0.7327  -22.4237  -42.5327 H         1 UNK         0.0600 
    148 H148        0.7204  -20.7374  -43.0334 H         1 UNK         0.0600 
    149 H149       -1.5279  -19.9623  -43.8234 H         1 UNK         0.3000 
    150 H150       -3.9900  -19.7436  -46.4540 H         1 UNK         0.0600 
    151 H151       -5.2091  -20.1133  -44.3079 H         1 UNK         0.0600 
    152 H152       -5.1006  -18.4028  -44.6946 H         1 UNK         0.0600 
    153 H153       -4.0507  -19.0955  -43.4605 H         1 UNK         0.0600 
    154 H154       -2.6697  -17.6929  -45.0099 H         1 UNK         0.3000 
    155 H155        0.1623  -17.3536  -47.2083 H         1 UNK         0.0600 
    156 H156       -2.2541  -15.5828  -46.5608 H         1 UNK         0.0600 
    157 H157       -1.6906  -16.0103  -48.1702 H         1 UNK         0.0600 
    158 H158       -0.6829  -15.0198  -47.1296 H         1 UNK         0.0600 
    159 H159       -0.5120  -15.9987  -44.7964 H         1 UNK         0.3000 
    160 H160        1.1024  -18.2600  -42.5252 H         1 UNK         0.0600 
    161 H161        1.7104  -15.4035  -43.4381 H         1 UNK         0.0600 
    162 H162        2.8582  -16.7365  -43.4206 H         1 UNK         0.0600 
    163 H163        2.2013  -16.1286  -41.9083 H         1 UNK         0.0600 
    164 H164       -0.4053  -15.8119  -42.2388 H         1 UNK         0.3000 
    165 H165       -3.5532  -17.3691  -41.6385 H         1 UNK         0.0600 
    166 H166       -3.3490  -16.1415  -39.4944 H         1 UNK         0.0600 
    167 H167       -2.3412  -17.5794  -39.4623 H         1 UNK         0.0600 
    168 H168       -1.6034  -16.0005  -39.7054 H         1 UNK         0.0600 
    169 H169       -2.6926  -14.6541  -41.4875 H         1 UNK         0.3000 
    170 H170       -3.0904  -13.8011  -44.9092 H         1 UNK         0.0600 
    171 H171       -5.4375  -13.8245  -44.0538 H         1 UNK         0.0600 
    172 H172       -4.8975  -13.1658  -42.5141 H         1 UNK         0.0600 
    173 H173       -4.7520  -12.2091  -43.9891 H         1 UNK         0.0600 
    174 H174       -2.6047  -12.2075  -42.6083 H         1 UNK         0.3000 
    175 H175       -0.6645  -11.2624  -42.2706 H         1 UNK         0.0600 
    176 H176        1.3298  -13.5559  -41.7967 H         1 UNK         0.0600 
    177 H177        1.2776  -12.0345  -40.9127 H         1 UNK         0.0600 
    178 H178       -0.0460  -13.1806  -40.7631 H         1 UNK         0.0600 
    179 H179        1.1799  -12.1957  -44.3392 H         1 UNK         0.3000 
    180 H180        1.7186   -9.7266  -45.6078 H         1 UNK         0.0600 
    181 H181        3.8489   -8.8074  -43.6112 H         1 UNK         0.0600 
    182 H182        2.5941   -7.8236  -44.3465 H         1 UNK         0.0600 
    183 H183        3.8803   -8.4808  -45.3438 H         1 UNK         0.0600 
    184 H184        2.9292  -11.5020  -46.0767 H         1 UNK         0.3000 
    185 H185        5.8611  -12.9791  -44.8211 H         1 UNK         0.0600 
    186 H186        4.6057  -15.1034  -44.9593 H         1 UNK         0.0600 
    187 H187        3.9468  -14.2044  -43.6150 H         1 UNK         0.0600 
    188 H188        3.0748  -14.2490  -45.1441 H         1 UNK         0.0600 
    189 H189        4.5373  -11.8562  -46.9405 H         1 UNK         0.3000 
    190 H190       -1.2016  -21.0554  -47.9040 H         1 UNK         0.3000 
    191 H191       -1.5659  -22.5598  -50.2698 H         1 UNK         0.0600 
    192 H192       -3.7200  -21.5790  -48.3276 H         1 UNK         0.0600 
    193 H193       -3.9191  -21.9755  -50.0286 H         1 UNK         0.0600 
    194 H194       -2.9553  -20.5824  -49.5596 H         1 UNK         0.0600 
    195 H195       -2.5011  -23.3266  -46.8685 H         1 UNK         0.3000 
    196 H196       -3.7299  -25.8049  -47.3706 H         1 UNK         0.0600 
    197 H197       -3.3697  -26.2067  -44.9346 H         1 UNK         0.0600 
    198 H198       -3.9487  -24.5743  -45.2308 H         1 UNK         0.0600 
    199 H199       -2.2481  -24.8539  -44.8624 H         1 UNK         0.0600 
    200 H200       -0.2757  -25.0759  -46.7136 H         1 UNK         0.3000 
    201 H201        0.6752  -27.7610  -46.7813 H         1 UNK         0.0600 
    202 H202        1.9811  -25.8783  -45.8323 H         1 UNK         0.0600 
    203 H203        2.1183  -25.1343  -47.4231 H         1 UNK         0.0600 
    204 H204        2.8984  -26.6774  -47.1006 H         1 UNK         0.0600 
    205 H205        0.0006  -25.4283  -49.3679 H         1 UNK         0.3000 
    206 H206        1.0452  -27.1137  -51.5146 H         1 UNK         0.0600 
    207 H207        1.1100  -24.6120  -51.6205 H         1 UNK         0.0600 
    208 H208        0.1940  -25.2946  -52.9546 H         1 UNK         0.0600 
    209 H209       -0.6499  -24.5607  -51.6009 H         1 UNK         0.0600 
    210 H210       -1.6890  -27.3435  -49.6149 H         1 UNK         0.3000 
    211 H211       -3.6069  -28.4008  -49.6279 H         1 UNK         0.0600 
    212 H212       -2.7400  -29.8135  -52.2024 H         1 UNK         0.0600 
    213 H213       -3.9916  -30.3379  -51.0861 H         1 UNK         0.0600 
    214 H214       -2.3138  -30.3261  -50.5697 H         1 UNK         0.0600 
    215 H215       -3.5719  -25.7983  -50.6297 H         1 UNK         0.3000 
    216 H216       -5.8729  -25.7389  -52.5436 H         1 UNK         0.0600 
    217 H217       -4.9388  -23.5158  -53.2198 H         1 UNK         0.0600 
    218 H218       -3.7488  -24.7778  -53.4928 H         1 UNK         0.0600 
    219 H219       -3.6011  -23.7152  -52.0966 H         1 UNK         0.0600 
    220 H220       -7.1959  -23.7538  -52.2221 H         1 UNK         0.3000 
    221 H221       -7.8645  -23.1889  -49.4241 H         1 UNK         0.0600 
    222 H222       -8.9254  -22.0319  -52.0696 H         1 UNK         0.0600 
    223 H223       -9.6477  -23.3693  -51.1768 H         1 UNK         0.0600 
    224 H224       -9.6211  -21.7597  -50.4771 H         1 UNK         0.0600 
    225 H225       -7.7135  -21.0598  -48.4988 H         1 UNK         0.3000 
    226 H226       -5.2653  -19.7472  -48.8362 H         1 UNK         0.0600 
    227 H227       -6.5728  -19.7714  -46.7263 H         1 UNK         0.0600 
    228 H228       -6.1904  -18.1233  -47.1968 H         1 UNK         0.0600 
    229 H229       -7.8128  -18.7535  -47.4588 H         1 UNK         0.0600 
    230 H230       -8.3108  -19.0743  -50.4495 H         1 UNK         0.3000 
    231 H231       -7.4288  -16.4840  -51.5337 H         1 UNK         0.0600 
    232 H232       -9.8127  -16.8486  -50.9237 H         1 UNK         0.0600 
    233 H233       -9.9223  -18.1859  -52.0691 H         1 UNK         0.0600 
    234 H234       -9.6530  -16.5456  -52.6460 H         1 UNK         0.0600 
    235 H235       -7.1261  -19.8426  -52.4008 H         1 UNK         0.3000 
    236 H236       -6.8813  -19.3246  -55.3114 H         1 UNK         0.0600 
    237 H237       -6.8079  -21.7981  -55.4611 H         1 UNK         0.0600 
    238 H238       -6.8447  -21.9356  -53.7090 H         1 UNK         0.0600 
    239 H239       -8.2326  -21.2781  -54.5743 H         1 UNK         0.0600 
    240 H240       -4.9945  -20.3075  -52.4768 H         1 UNK         0.3000 
    241 H241       -2.8906  -20.2925  -51.9310 H         1 UNK         0.0600 
    242 H242       -3.4272  -21.6502  -55.1576 H         1 UNK         0.3800 
    243 H243       -2.1265  -22.8157  -55.0210 H         1 UNK         0.3800 
    244 H244       -2.3011  -18.6511  -54.4369 H         1 UNK         0.0800 
    245 H245       -1.1561  -18.9183  -53.1689 H         1 UNK         0.0800 
    246 H246       -2.6896  -18.4971  -50.3555 H         1 UNK         0.0800 
    247 H247       -2.5966  -16.7728  -50.1908 H         1 UNK         0.0800 
@<TRIPOS>BOND
     1    1    2 1    
     2    1  127 1    
     3    1  128 1    
     4    1  129 1    
     5    2    3 2    
     6    2    4 am   BACKBONE|DICT|INTERRES
     7    4    5 1    
     8    4  130 1    
     9    5    6 1    
    10    5   65 1    
    11    5  131 1    
    12    6    7 1    
    13    6  132 1    
    14    6  133 1    
    15    7    8 1    
    16    8    9 1    
    17    8  134 1    
    18    8  135 1    
    19    9   10 ar   
    20    9   14 ar   
    21   10   11 ar   
    22   10  136 1    
    23   11   12 ar   
    24   11  126 1    
    25   12   13 ar   
    26   12  137 1    
    27   13   14 ar   
    28   13   15 1    
    29   14  138 1    
    30   15   16 1    
    31   15  139 1    
    32   15  140 1    
    33   16   17 1    
    34   17   18 1    
    35   17  141 1    
    36   17  142 1    
    37   18   19 1    
    38   18   67 1    
    39   18  143 1    
    40   19   20 am   BACKBONE|DICT|INTERRES
    41   19  144 1    
    42   20   21 2    
    43   20   22 1    
    44   22   23 1    
    45   22   24 1    
    46   22  145 1    
    47   23  146 1    
    48   23  147 1    
    49   23  148 1    
    50   24   25 am   BACKBONE|DICT|INTERRES
    51   24  149 1    
    52   25   26 2    
    53   25   27 1    
    54   27   28 1    
    55   27   29 1    
    56   27  150 1    
    57   28  151 1    
    58   28  152 1    
    59   28  153 1    
    60   29   30 am   BACKBONE|DICT|INTERRES
    61   29  154 1    
    62   30   31 2    
    63   30   32 1    
    64   32   33 1    
    65   32   34 1    
    66   32  155 1    
    67   33  156 1    
    68   33  157 1    
    69   33  158 1    
    70   34   35 am   BACKBONE|DICT|INTERRES
    71   34  159 1    
    72   35   36 2    
    73   35   37 1    
    74   37   38 1    
    75   37   39 1    
    76   37  160 1    
    77   38  161 1    
    78   38  162 1    
    79   38  163 1    
    80   39   40 am   BACKBONE|DICT|INTERRES
    81   39  164 1    
    82   40   41 2    
    83   40   42 1    
    84   42   43 1    
    85   42   44 1    
    86   42  165 1    
    87   43  166 1    
    88   43  167 1    
    89   43  168 1    
    90   44   45 am   BACKBONE|DICT|INTERRES
    91   44  169 1    
    92   45   46 2    
    93   45   47 1    
    94   47   48 1    
    95   47   49 1    
    96   47  170 1    
    97   48  171 1    
    98   48  172 1    
    99   48  173 1    
   100   49   50 am   BACKBONE|DICT|INTERRES
   101   49  174 1    
   102   50   51 2    
   103   50   52 1    
   104   52   53 1    
   105   52   54 1    
   106   52  175 1    
   107   53  176 1    
   108   53  177 1    
   109   53  178 1    
   110   54   55 am   BACKBONE|DICT|INTERRES
   111   54  179 1    
   112   55   56 2    
   113   55   57 1    
   114   57   58 1    
   115   57   59 1    
   116   57  180 1    
   117   58  181 1    
   118   58  182 1    
   119   58  183 1    
   120   59   60 am   BACKBONE|DICT|INTERRES
   121   59  184 1    
   122   60   61 2    
   123   60   62 1    
   124   62   63 1    
   125   62   64 1    
   126   62  185 1    
   127   63  186 1    
   128   63  187 1    
   129   63  188 1    
   130   64   65 am   BACKBONE|DICT|INTERRES
   131   64  189 1    
   132   65   66 2    
   133   67   68 2    
   134   67   69 am   BACKBONE|DICT|INTERRES
   135   69   70 1    
   136   69  190 1    
   137   70   71 1    
   138   70   72 1    
   139   70  191 1    
   140   71  192 1    
   141   71  193 1    
   142   71  194 1    
   143   72   73 2    
   144   72   74 am   BACKBONE|DICT|INTERRES
   145   74   75 1    
   146   74  195 1    
   147   75   76 1    
   148   75   77 1    
   149   75  196 1    
   150   76  197 1    
   151   76  198 1    
   152   76  199 1    
   153   77   78 2    
   154   77   79 am   BACKBONE|DICT|INTERRES
   155   79   80 1    
   156   79  200 1    
   157   80   81 1    
   158   80   82 1    
   159   80  201 1    
   160   81  202 1    
   161   81  203 1    
   162   81  204 1    
   163   82   83 2    
   164   82   84 am   BACKBONE|DICT|INTERRES
   165   84   85 1    
   166   84  205 1    
   167   85   86 1    
   168   85   87 1    
   169   85  206 1    
   170   86  207 1    
   171   86  208 1    
   172   86  209 1    
   173   87   88 2    
   174   87   89 am   BACKBONE|DICT|INTERRES
   175   89   90 1    
   176   89  210 1    
   177   90   91 1    
   178   90   92 1    
   179   90  211 1    
   180   91  212 1    
   181   91  213 1    
   182   91  214 1    
   183   92   93 2    
   184   92   94 am   BACKBONE|DICT|INTERRES
   185   94   95 1    
   186   94  215 1    
   187   95   96 1    
   188   95   97 1    
   189   95  216 1    
   190   96  217 1    
   191   96  218 1    
   192   96  219 1    
   193   97   98 2    
   194   97   99 am   BACKBONE|DICT|INTERRES
   195   99  100 1    
   196   99  220 1    
   197  100  101 1    
   198  100  102 1    
   199  100  221 1    
   200  101  222 1    
   201  101  223 1    
   202  101  224 1    
   203  102  103 2    
   204  102  104 am   BACKBONE|DICT|INTERRES
   205  104  105 1    
   206  104  225 1    
   207  105  106 1    
   208  105  107 1    
   209  105  226 1    
   210  106  227 1    
   211  106  228 1    
   212  106  229 1    
   213  107  108 2    
   214  107  109 am   BACKBONE|DICT|INTERRES
   215  109  110 1    
   216  109  230 1    
   217  110  111 1    
   218  110  112 1    
   219  110  231 1    
   220  111  232 1    
   221  111  233 1    
   222  111  234 1    
   223  112  113 2    
   224  112  114 am   BACKBONE|DICT|INTERRES
   225  114  115 1    
   226  114  235 1    
   227  115  116 1    
   228  115  117 1    
   229  115  236 1    
   230  116  237 1    
   231  116  238 1    
   232  116  239 1    
   233  117  118 2    
   234  117  119 am   BACKBONE|DICT|INTERRES
   235  119  120 1    
   236  119  240 1    
   237  120  121 1    
   238  120  124 1    
   239  120  241 1    
   240  121  122 am   BACKBONE|DICT|INTERRES
   241  121  123 2    
   242  122  242 1    
   243  122  243 1    
   244  124  125 1    
   245  124  244 1    
   246  124  245 1    
   247  125  126 1    
   248  126  246 1    
   249  126  247 1    
@<TRIPOS>SUBSTRUCTURE
     1 UNK         1 GROUP             0       ****    0 ROOT    
