@<TRIPOS>MOLECULE
3R540
247   249    1
SMALL
USER_CHARGES


@<TRIPOS>ATOM
      1 CA          4.4300  -17.7385  -44.9738 C.3       0 UNK        -0.1800 
      2 C           4.2771  -16.3622  -45.6035 C.2       0 UNK         0.5000 
      3 O           3.2475  -15.7156  -45.4253 O.2       0 UNK        -0.5000 
      4 N           5.2932  -15.9014  -46.3419 N.am      1 UNK        -0.5000 
      5 CA          5.2984  -14.6175  -47.0571 C.3       1 UNK         0.1400 
      6 C6          6.0615  -14.7054  -48.4068 C.3       23 UNK        -0.0398 
      7 S7          5.5241  -16.0523  -49.5290 S.3       23 UNK        -0.2404 
      8 C8          3.7036  -16.0303  -49.3864 C.3       23 UNK        -0.0205 
      9 C9          3.0395  -17.2342  -50.0344 C.ar      23 UNK        -0.0193 
     10 C10         1.9746  -17.0506  -50.9183 C.ar      23 UNK        -0.1150 
     11 C11         1.2823  -18.1488  -51.4320 C.ar      23 UNK        -0.0193 
     12 C12         1.6739  -19.4419  -51.0704 C.ar      23 UNK        -0.1150 
     13 C13         2.7509  -19.6435  -50.2008 C.ar      23 UNK        -0.0193 
     14 C14         3.4286  -18.5322  -49.6882 C.ar      23 UNK        -0.1150 
     15 C15         3.1678  -21.0645  -49.8257 C.3       23 UNK        -0.0205 
     16 S16         3.5377  -21.3049  -48.0498 S.3       23 UNK        -0.2404 
     17 C17         2.0112  -20.7064  -47.2491 C.3       23 UNK        -0.0398 
     18 CA          1.0152  -21.8201  -46.8516 C.3       11 UNK         0.1400 
     19 N          -0.0166  -21.3056  -45.9475 N.am      11 UNK        -0.5000 
     20 C          -0.9379  -22.0510  -45.3231 C.2       10 UNK         0.5000 
     21 O          -0.9663  -23.2799  -45.3707 O.2       10 UNK        -0.5000 
     22 CA         -2.0400  -21.2982  -44.5546 C.3       10 UNK         0.1400 
     23 CB         -1.5651  -20.9340  -43.1406 C.3       10 UNK        -0.1800 
     24 N          -2.4977  -20.0939  -45.2521 N.am      10 UNK        -0.5000 
     25 C          -3.1217  -20.0968  -46.4397 C.2       9 UNK         0.5000 
     26 O          -3.4262  -21.1246  -47.0419 O.2       9 UNK        -0.5000 
     27 CA         -3.4031  -18.7300  -47.0931 C.3       9 UNK         0.1400 
     28 CB         -4.6621  -18.0831  -46.4992 C.3       9 UNK        -0.1800 
     29 N          -2.2696  -17.8108  -46.9798 N.am      9 UNK        -0.5000 
     30 C          -1.0619  -18.0348  -47.5183 C.2       8 UNK         0.5000 
     31 O          -0.7983  -19.0188  -48.2076 O.2       8 UNK        -0.5000 
     32 CA          0.0537  -17.0354  -47.1622 C.3       8 UNK         0.1400 
     33 CB         -0.0129  -15.7790  -48.0426 C.3       8 UNK        -0.1800 
     34 N           0.0035  -16.6539  -45.7506 N.am      8 UNK        -0.5000 
     35 C           0.2988  -17.4788  -44.7362 C.2       7 UNK         0.5000 
     36 O           0.6898  -18.6356  -44.8919 O.2       7 UNK        -0.5000 
     37 CA          0.0572  -16.9461  -43.3112 C.3       7 UNK         0.1400 
     38 CB          1.2595  -16.1361  -42.8076 C.3       7 UNK        -0.1800 
     39 N          -1.1557  -16.1315  -43.2217 N.am      7 UNK        -0.5000 
     40 C          -2.3979  -16.6307  -43.3177 C.2       6 UNK         0.5000 
     41 O          -2.6370  -17.8299  -43.4488 O.2       6 UNK        -0.5000 
     42 CA         -3.5719  -15.6307  -43.3114 C.3       6 UNK         0.1400 
     43 CB         -4.0670  -15.3936  -41.8771 C.3       6 UNK        -0.1800 
     44 N          -3.2408  -14.3438  -43.9211 N.am      6 UNK        -0.5000 
     45 C          -2.8156  -14.1695  -45.1800 C.2       5 UNK         0.5000 
     46 O          -2.7627  -15.0787  -46.0081 O.2       5 UNK        -0.5000 
     47 CA         -2.3164  -12.7613  -45.5655 C.3       5 UNK         0.1400 
     48 CB         -3.3561  -12.0469  -46.4415 C.3       5 UNK        -0.1800 
     49 N          -1.9779  -11.8987  -44.4249 N.am      5 UNK        -0.5000 
     50 C          -1.0361  -12.1523  -43.5048 C.2       4 UNK         0.5000 
     51 O          -0.3617  -13.1843  -43.4836 O.2       4 UNK        -0.5000 
     52 CA         -0.9012  -11.1149  -42.3749 C.3       4 UNK         0.1400 
     53 CB         -1.9311  -11.4027  -41.2704 C.3       4 UNK        -0.1800 
     54 N           0.4329  -11.1065  -41.7760 N.am      4 UNK        -0.5000 
     55 C           1.5418  -10.6502  -42.3716 C.2       3 UNK         0.5000 
     56 O           1.5485  -10.1409  -43.4953 O.2       3 UNK        -0.5000 
     57 CA          2.8607  -10.7207  -41.5667 C.3       3 UNK         0.1400 
     58 CB          2.7936  -11.6144  -40.3058 C.3       3 UNK        -0.1800 
     59 N           4.0029  -11.0886  -42.4109 N.am      3 UNK        -0.5000 
     60 C           4.1657  -12.2410  -43.0737 C.2       2 UNK         0.5000 
     61 O           3.3891  -13.1966  -43.0058 O.2       2 UNK        -0.5000 
     62 CA          5.4241  -12.3517  -43.9461 C.3       2 UNK         0.1400 
     63 CB          6.6520  -12.7425  -43.1038 C.3       2 UNK        -0.1800 
     64 N           5.1778  -13.3608  -44.9674 N.am      2 UNK        -0.5000 
     65 C           5.8077  -13.4862  -46.1387 C.2       1 UNK         0.5000 
     66 O           6.7434  -12.7652  -46.4902 O.2       1 UNK        -0.5000 
     67 C           0.3889  -22.5115  -48.0821 C.2       11 UNK         0.5000 
     68 O           0.7685  -23.6367  -48.4062 O.2       11 UNK        -0.5000 
     69 N          -0.5927  -21.8533  -48.7143 N.am      12 UNK        -0.5000 
     70 CA         -1.3694  -22.3999  -49.8265 C.3       12 UNK         0.1400 
     71 CB         -2.2597  -21.3022  -50.4204 C.3       12 UNK        -0.1800 
     72 C          -2.1894  -23.6442  -49.4356 C.2       12 UNK         0.5000 
     73 O          -2.2128  -24.6092  -50.1984 O.2       12 UNK        -0.5000 
     74 N          -2.7969  -23.6299  -48.2403 N.am      13 UNK        -0.5000 
     75 CA         -3.5061  -24.7706  -47.6564 C.3       13 UNK         0.1400 
     76 CB         -4.1970  -24.3513  -46.3490 C.3       13 UNK        -0.1800 
     77 C          -2.5812  -25.9777  -47.4125 C.2       13 UNK         0.5000 
     78 O          -2.9477  -27.0998  -47.7612 O.2       13 UNK        -0.5000 
     79 N          -1.3830  -25.7257  -46.8648 N.am      14 UNK        -0.5000 
     80 CA         -0.3339  -26.7268  -46.6481 C.3       14 UNK         0.1400 
     81 CB          0.7955  -26.1138  -45.8067 C.3       14 UNK        -0.1800 
     82 C           0.2181  -27.3162  -47.9612 C.2       14 UNK         0.5000 
     83 O           0.5428  -28.5031  -48.0062 O.2       14 UNK        -0.5000 
     84 N           0.2686  -26.4914  -49.0156 N.am      15 UNK        -0.5000 
     85 CA          0.6084  -26.8833  -50.3855 C.3       15 UNK         0.1400 
     86 CB          1.0484  -25.6311  -51.1624 C.3       15 UNK        -0.1800 
     87 C          -0.5359  -27.6156  -51.1239 C.2       15 UNK         0.5000 
     88 O          -0.3265  -28.0578  -52.2543 O.2       15 UNK        -0.5000 
     89 N          -1.7122  -27.7294  -50.4874 N.am      16 UNK        -0.5000 
     90 CA         -2.9487  -28.3483  -50.9760 C.3       16 UNK         0.1400 
     91 CB         -2.7505  -29.8544  -51.2491 C.3       16 UNK        -0.1800 
     92 C          -3.5922  -27.5938  -52.1587 C.2       16 UNK         0.5000 
     93 O          -4.2822  -28.2059  -52.9768 O.2       16 UNK        -0.5000 
     94 N          -3.3774  -26.2747  -52.2168 N.am      17 UNK        -0.5000 
     95 CA         -4.0263  -25.3588  -53.1496 C.3       17 UNK         0.1400 
     96 CB         -3.0169  -24.2647  -53.5351 C.3       17 UNK        -0.1800 
     97 C          -5.2845  -24.7465  -52.5051 C.2       17 UNK         0.5000 
     98 O          -5.5124  -24.9049  -51.3021 O.2       17 UNK        -0.5000 
     99 N          -6.0805  -24.0411  -53.3194 N.am      18 UNK        -0.5000 
    100 CA        -7.2470  -23.2715  -52.8864 C.3       18 UNK         0.1400 
    101 CB        -8.0661  -22.8619  -54.1219 C.3       18 UNK        -0.1800 
    102 C         -6.7975  -22.0423  -52.0776 C.2       18 UNK         0.5000 
    103 O         -6.3866  -21.0436  -52.6714 O.2       18 UNK        -0.5000 
    104 N         -6.8370  -22.1572  -50.7446 N.am      19 UNK        -0.5000 
    105 CA        -6.2701  -21.2104  -49.7796 C.3       19 UNK         0.1400 
    106 CB        -6.5440  -21.7285  -48.3618 C.3       19 UNK        -0.1800 
    107 C         -6.7627  -19.7598  -49.9250 C.2       19 UNK         0.5000 
    108 O         -5.9701  -18.8331  -49.7631 O.2       19 UNK        -0.5000 
    109 N         -8.0471  -19.5930  -50.2679 N.am      20 UNK        -0.5000 
    110 CA        -8.6901  -18.2954  -50.4910 C.3       20 UNK         0.1400 
    111 CB       -10.2108  -18.5006  -50.5653 C.3       20 UNK        -0.1800 
    112 C         -8.1850  -17.5615  -51.7499 C.2       20 UNK         0.5000 
    113 O         -8.2361  -16.3319  -51.7923 O.2       20 UNK        -0.5000 
    114 N         -7.7067  -18.3216  -52.7432 N.am      21 UNK        -0.5000 
    115 CA        -7.1337  -17.8143  -53.9916 C.3       21 UNK         0.1400 
    116 CB        -7.6464  -18.6931  -55.1447 C.3       21 UNK        -0.1800 
    117 C         -5.5920  -17.8123  -53.9657 C.2       21 UNK         0.5000 
    118 O         -4.9742  -17.3231  -54.9124 O.2       21 UNK        -0.5000 
    119 N         -4.9999  -18.3767  -52.9049 N.am      22 UNK        -0.5000 
    120 CA        -3.5735  -18.7066  -52.7794 C.3       22 UNK         0.1400 
    121 C         -3.1145  -19.8205  -53.7734 C.2       22 UNK         0.5000 
    122 N         -3.9740  -20.7735  -54.1105 N.am      22 UNK        -0.7600 
    123 O         -1.9852  -19.8336  -54.2523 O.2       22 UNK        -0.5000 
    124 C124       -2.6566  -17.4471  -52.7536 C.3       23 UNK        -0.0398 
    125 S125       -1.4042  -17.5332  -51.4298 S.3       23 UNK        -0.2404 
    126 C126        0.1036  -17.9313  -52.3656 C.3       23 UNK        -0.0205 
    127 H127        3.5798  -18.3662  -45.2401 H         1 UNK         0.0600 
    128 H128        4.4635  -17.6522  -43.8879 H         1 UNK         0.0600 
    129 H129        5.3395  -18.2385  -45.3078 H         1 UNK         0.0600 
    130 H130        6.1300  -16.4583  -46.4408 H         1 UNK         0.3000 
    131 H131        4.2732  -14.3267  -47.2909 H         1 UNK         0.0600 
    132 H132        5.9655  -13.7644  -48.9511 H         1 UNK         0.0800 
    133 H133        7.1294  -14.8405  -48.2268 H         1 UNK         0.0800 
    134 H134        3.3281  -15.0979  -49.8105 H         1 UNK         0.0800 
    135 H135        3.3928  -16.0477  -48.3446 H         1 UNK         0.0800 
    136 H136        1.6568  -16.0515  -51.1818 H         1 UNK         0.1150 
    137 H137        1.1330  -20.2915  -51.4633 H         1 UNK         0.1150 
    138 H138        4.2496  -18.6751  -49.0000 H         1 UNK         0.1150 
    139 H139        2.3966  -21.7781  -50.1189 H         1 UNK         0.0800 
    140 H140        4.0562  -21.3251  -50.4019 H         1 UNK         0.0800 
    141 H141        1.5301  -19.9537  -47.8701 H         1 UNK         0.0800 
    142 H142        2.3302  -20.1770  -46.3512 H         1 UNK         0.0800 
    143 H143        1.5674  -22.5814  -46.2967 H         1 UNK         0.0600 
    144 H144       -0.0301  -20.3014  -45.8038 H         1 UNK         0.3000 
    145 H145       -2.8949  -21.9703  -44.4595 H         1 UNK         0.0600 
    146 H146       -2.3682  -20.4793  -42.5605 H         1 UNK         0.0600 
    147 H147       -1.2352  -21.8213  -42.5989 H         1 UNK         0.0600 
    148 H148       -0.7304  -20.2334  -43.1631 H         1 UNK         0.0600 
    149 H149       -2.3396  -19.2084  -44.7802 H         1 UNK         0.3000 
    150 H150       -3.5819  -18.9003  -48.1569 H         1 UNK         0.0600 
    151 H151       -5.5332  -18.7216  -46.6502 H         1 UNK         0.0600 
    152 H152       -4.8753  -17.1257  -46.9753 H         1 UNK         0.0600 
    153 H153       -4.5618  -17.9124  -45.4280 H         1 UNK         0.0600 
    154 H154       -2.4207  -16.9488  -46.4642 H         1 UNK         0.3000 
    155 H155        1.0127  -17.5236  -47.3495 H         1 UNK         0.0600 
    156 H156       -0.9351  -15.2196  -47.8893 H         1 UNK         0.0600 
    157 H157        0.8249  -15.1119  -47.8388 H         1 UNK         0.0600 
    158 H158        0.0313  -16.0444  -49.0985 H         1 UNK         0.0600 
    159 H159       -0.3417  -15.7299  -45.5380 H         1 UNK         0.3000 
    160 H160       -0.0626  -17.8084  -42.6521 H         1 UNK         0.0600 
    161 H161        1.4282  -15.2464  -43.4153 H         1 UNK         0.0600 
    162 H162        2.1728  -16.7310  -42.8409 H         1 UNK         0.0600 
    163 H163        1.1169  -15.8127  -41.7766 H         1 UNK         0.0600 
    164 H164       -1.0232  -15.1273  -43.1595 H         1 UNK         0.3000 
    165 H165       -4.3875  -16.0705  -43.8878 H         1 UNK         0.0600 
    166 H166       -4.9492  -14.7533  -41.8644 H         1 UNK         0.0600 
    167 H167       -4.3429  -16.3345  -41.3991 H         1 UNK         0.0600 
    168 H168       -3.3007  -14.9233  -41.2594 H         1 UNK         0.0600 
    169 H169       -3.2549  -13.5392  -43.3132 H         1 UNK         0.3000 
    170 H170       -1.4077  -12.8971  -46.1555 H         1 UNK         0.0600 
    171 H171       -3.6089  -12.6469  -47.3170 H         1 UNK         0.0600 
    172 H172       -4.2809  -11.8583  -45.8948 H         1 UNK         0.0600 
    173 H173       -2.9779  -11.0910  -46.8043 H         1 UNK         0.0600 
    174 H174       -2.5048  -11.0400  -44.3519 H         1 UNK         0.3000 
    175 H175       -1.0972  -10.1228  -42.7872 H         1 UNK         0.0600 
    176 H176       -1.7785  -12.3864  -40.8239 H         1 UNK         0.0600 
    177 H177       -1.8734  -10.6604  -40.4740 H         1 UNK         0.0600 
    178 H178       -2.9486  -11.3747  -41.6625 H         1 UNK         0.0600 
    179 H179        0.5204  -11.5421  -40.8701 H         1 UNK         0.3000 
    180 H180        3.0552   -9.7016  -41.2297 H         1 UNK         0.0600 
    181 H181        2.5075  -12.6398  -40.5433 H         1 UNK         0.0600 
    182 H182        2.0751  -11.2268  -39.5829 H         1 UNK         0.0600 
    183 H183        3.7597  -11.6503  -39.8020 H         1 UNK         0.0600 
    184 H184        4.6863  -10.3574  -42.5497 H         1 UNK         0.3000 
    185 H185        5.5986  -11.3882  -44.4295 H         1 UNK         0.0600 
    186 H186        6.8411  -12.0069  -42.3211 H         1 UNK         0.0600 
    187 H187        6.5127  -13.7099  -42.6197 H         1 UNK         0.0600 
    188 H188        7.5519  -12.8012  -43.7160 H         1 UNK         0.0600 
    189 H189        4.3929  -13.9743  -44.7623 H         1 UNK         0.3000 
    190 H190       -0.8201  -20.9066  -48.4184 H         1 UNK         0.3000 
    191 H191       -0.6640  -22.7079  -50.6006 H         1 UNK         0.0600 
    192 H192       -2.8889  -20.8387  -49.6618 H         1 UNK         0.0600 
    193 H193       -2.9124  -21.6968  -51.1998 H         1 UNK         0.0600 
    194 H194       -1.6505  -20.5175  -50.8684 H         1 UNK         0.0600 
    195 H195       -2.7917  -22.7683  -47.7000 H         1 UNK         0.3000 
    196 H196       -4.2770  -25.0740  -48.3681 H         1 UNK         0.0600 
    197 H197       -4.8237  -25.1581  -45.9674 H         1 UNK         0.0600 
    198 H198       -4.8367  -23.4819  -46.4906 H         1 UNK         0.0600 
    199 H199       -3.4762  -24.1052  -45.5704 H         1 UNK         0.0600 
    200 H200       -1.1758  -24.7786  -46.5583 H         1 UNK         0.3000 
    201 H201       -0.7728  -27.5483  -46.0783 H         1 UNK         0.0600 
    202 H202        0.4233  -25.7631  -44.8439 H         1 UNK         0.0600 
    203 H203        1.2619  -25.2679  -46.3120 H         1 UNK         0.0600 
    204 H204        1.5764  -26.8482  -45.6062 H         1 UNK         0.0600 
    205 H205        0.0506  -25.5112  -48.8690 H         1 UNK         0.3000 
    206 H206        1.4565  -27.5696  -50.3457 H         1 UNK         0.0600 
    207 H207        1.8696  -25.1208  -50.6584 H         1 UNK         0.0600 
    208 H208        1.3941  -25.8917  -52.1634 H         1 UNK         0.0600 
    209 H209        0.2310  -24.9195  -51.2747 H         1 UNK         0.0600 
    210 H210       -1.7880  -27.3098  -49.5688 H         1 UNK         0.3000 
    211 H211       -3.6626  -28.2632  -50.1560 H         1 UNK         0.0600 
    212 H212       -2.1135  -30.0307  -52.1161 H         1 UNK         0.0600 
    213 H213       -3.7050  -30.3451  -51.4422 H         1 UNK         0.0600 
    214 H214       -2.2987  -30.3541  -50.3921 H         1 UNK         0.0600 
    215 H215       -2.8639  -25.8295  -51.4588 H         1 UNK         0.3000 
    216 H216       -4.3236  -25.8927  -54.0544 H         1 UNK         0.0600 
    217 H217       -3.4142  -23.6248  -54.3225 H         1 UNK         0.0600 
    218 H218       -2.0900  -24.6983  -53.9109 H         1 UNK         0.0600 
    219 H219       -2.7659  -23.6268  -52.6877 H         1 UNK         0.0600 
    220 H220       -5.8226  -23.9452  -54.2905 H         1 UNK         0.3000 
    221 H221       -7.8762  -23.9029  -52.2554 H         1 UNK         0.0600 
    222 H222       -7.4742  -22.2769  -54.8270 H         1 UNK         0.0600 
    223 H223       -8.4444  -23.7372  -54.6502 H         1 UNK         0.0600 
    224 H224       -8.9279  -22.2572  -53.8365 H         1 UNK         0.0600 
    225 H225       -7.1455  -23.0394  -50.3609 H         1 UNK         0.3000 
    226 H226       -5.1909  -21.2041  -49.9355 H         1 UNK         0.0600 
    227 H227       -6.1258  -22.7252  -48.2274 H         1 UNK         0.0600 
    228 H228       -6.0918  -21.0799  -47.6109 H         1 UNK         0.0600 
    229 H229       -7.6126  -21.7819  -48.1506 H         1 UNK         0.0600 
    230 H230       -8.6217  -20.4140  -50.3903 H         1 UNK         0.3000 
    231 H231       -8.4727  -17.6583  -49.6310 H         1 UNK         0.0600 
    232 H232      -10.7273  -17.5498  -50.7031 H         1 UNK         0.0600 
    233 H233      -10.5945  -18.9467  -49.6475 H         1 UNK         0.0600 
    234 H234      -10.4892  -19.1489  -51.3971 H         1 UNK         0.0600 
    235 H235       -7.6586  -19.3249  -52.6125 H         1 UNK         0.3000 
    236 H236       -7.4612  -16.7885  -54.1722 H         1 UNK         0.0600 
    237 H237       -8.7355  -18.6898  -55.1892 H         1 UNK         0.0600 
    238 H238       -7.2815  -18.3312  -56.1067 H         1 UNK         0.0600 
    239 H239       -7.3180  -19.7276  -55.0375 H         1 UNK         0.0600 
    240 H240       -5.5954  -18.7500  -52.1794 H         1 UNK         0.3000 
    241 H241       -3.5169  -19.1786  -51.7991 H         1 UNK         0.0600 
    242 H242       -4.9020  -20.8024  -53.6940 H         1 UNK         0.3800 
    243 H243       -3.6909  -21.4750  -54.7731 H         1 UNK         0.3800 
    244 H244       -2.1883  -17.2596  -53.7212 H         1 UNK         0.0800 
    245 H245       -3.2491  -16.5551  -52.5461 H         1 UNK         0.0800 
    246 H246       -0.0572  -18.8254  -52.9663 H         1 UNK         0.0800 
    247 H247        0.3252  -17.1226  -53.0634 H         1 UNK         0.0800 
@<TRIPOS>BOND
     1    1    2 1    
     2    1  127 1    
     3    1  128 1    
     4    1  129 1    
     5    2    3 2    
     6    2    4 am   BACKBONE|DICT|INTERRES
     7    4    5 1    
     8    4  130 1    
     9    5    6 1    
    10    5   65 1    
    11    5  131 1    
    12    6    7 1    
    13    6  132 1    
    14    6  133 1    
    15    7    8 1    
    16    8    9 1    
    17    8  134 1    
    18    8  135 1    
    19    9   10 ar   
    20    9   14 ar   
    21   10   11 ar   
    22   10  136 1    
    23   11   12 ar   
    24   11  126 1    
    25   12   13 ar   
    26   12  137 1    
    27   13   14 ar   
    28   13   15 1    
    29   14  138 1    
    30   15   16 1    
    31   15  139 1    
    32   15  140 1    
    33   16   17 1    
    34   17   18 1    
    35   17  141 1    
    36   17  142 1    
    37   18   19 1    
    38   18   67 1    
    39   18  143 1    
    40   19   20 am   BACKBONE|DICT|INTERRES
    41   19  144 1    
    42   20   21 2    
    43   20   22 1    
    44   22   23 1    
    45   22   24 1    
    46   22  145 1    
    47   23  146 1    
    48   23  147 1    
    49   23  148 1    
    50   24   25 am   BACKBONE|DICT|INTERRES
    51   24  149 1    
    52   25   26 2    
    53   25   27 1    
    54   27   28 1    
    55   27   29 1    
    56   27  150 1    
    57   28  151 1    
    58   28  152 1    
    59   28  153 1    
    60   29   30 am   BACKBONE|DICT|INTERRES
    61   29  154 1    
    62   30   31 2    
    63   30   32 1    
    64   32   33 1    
    65   32   34 1    
    66   32  155 1    
    67   33  156 1    
    68   33  157 1    
    69   33  158 1    
    70   34   35 am   BACKBONE|DICT|INTERRES
    71   34  159 1    
    72   35   36 2    
    73   35   37 1    
    74   37   38 1    
    75   37   39 1    
    76   37  160 1    
    77   38  161 1    
    78   38  162 1    
    79   38  163 1    
    80   39   40 am   BACKBONE|DICT|INTERRES
    81   39  164 1    
    82   40   41 2    
    83   40   42 1    
    84   42   43 1    
    85   42   44 1    
    86   42  165 1    
    87   43  166 1    
    88   43  167 1    
    89   43  168 1    
    90   44   45 am   BACKBONE|DICT|INTERRES
    91   44  169 1    
    92   45   46 2    
    93   45   47 1    
    94   47   48 1    
    95   47   49 1    
    96   47  170 1    
    97   48  171 1    
    98   48  172 1    
    99   48  173 1    
   100   49   50 am   BACKBONE|DICT|INTERRES
   101   49  174 1    
   102   50   51 2    
   103   50   52 1    
   104   52   53 1    
   105   52   54 1    
   106   52  175 1    
   107   53  176 1    
   108   53  177 1    
   109   53  178 1    
   110   54   55 am   BACKBONE|DICT|INTERRES
   111   54  179 1    
   112   55   56 2    
   113   55   57 1    
   114   57   58 1    
   115   57   59 1    
   116   57  180 1    
   117   58  181 1    
   118   58  182 1    
   119   58  183 1    
   120   59   60 am   BACKBONE|DICT|INTERRES
   121   59  184 1    
   122   60   61 2    
   123   60   62 1    
   124   62   63 1    
   125   62   64 1    
   126   62  185 1    
   127   63  186 1    
   128   63  187 1    
   129   63  188 1    
   130   64   65 am   BACKBONE|DICT|INTERRES
   131   64  189 1    
   132   65   66 2    
   133   67   68 2    
   134   67   69 am   BACKBONE|DICT|INTERRES
   135   69   70 1    
   136   69  190 1    
   137   70   71 1    
   138   70   72 1    
   139   70  191 1    
   140   71  192 1    
   141   71  193 1    
   142   71  194 1    
   143   72   73 2    
   144   72   74 am   BACKBONE|DICT|INTERRES
   145   74   75 1    
   146   74  195 1    
   147   75   76 1    
   148   75   77 1    
   149   75  196 1    
   150   76  197 1    
   151   76  198 1    
   152   76  199 1    
   153   77   78 2    
   154   77   79 am   BACKBONE|DICT|INTERRES
   155   79   80 1    
   156   79  200 1    
   157   80   81 1    
   158   80   82 1    
   159   80  201 1    
   160   81  202 1    
   161   81  203 1    
   162   81  204 1    
   163   82   83 2    
   164   82   84 am   BACKBONE|DICT|INTERRES
   165   84   85 1    
   166   84  205 1    
   167   85   86 1    
   168   85   87 1    
   169   85  206 1    
   170   86  207 1    
   171   86  208 1    
   172   86  209 1    
   173   87   88 2    
   174   87   89 am   BACKBONE|DICT|INTERRES
   175   89   90 1    
   176   89  210 1    
   177   90   91 1    
   178   90   92 1    
   179   90  211 1    
   180   91  212 1    
   181   91  213 1    
   182   91  214 1    
   183   92   93 2    
   184   92   94 am   BACKBONE|DICT|INTERRES
   185   94   95 1    
   186   94  215 1    
   187   95   96 1    
   188   95   97 1    
   189   95  216 1    
   190   96  217 1    
   191   96  218 1    
   192   96  219 1    
   193   97   98 2    
   194   97   99 am   BACKBONE|DICT|INTERRES
   195   99  100 1    
   196   99  220 1    
   197  100  101 1    
   198  100  102 1    
   199  100  221 1    
   200  101  222 1    
   201  101  223 1    
   202  101  224 1    
   203  102  103 2    
   204  102  104 am   BACKBONE|DICT|INTERRES
   205  104  105 1    
   206  104  225 1    
   207  105  106 1    
   208  105  107 1    
   209  105  226 1    
   210  106  227 1    
   211  106  228 1    
   212  106  229 1    
   213  107  108 2    
   214  107  109 am   BACKBONE|DICT|INTERRES
   215  109  110 1    
   216  109  230 1    
   217  110  111 1    
   218  110  112 1    
   219  110  231 1    
   220  111  232 1    
   221  111  233 1    
   222  111  234 1    
   223  112  113 2    
   224  112  114 am   BACKBONE|DICT|INTERRES
   225  114  115 1    
   226  114  235 1    
   227  115  116 1    
   228  115  117 1    
   229  115  236 1    
   230  116  237 1    
   231  116  238 1    
   232  116  239 1    
   233  117  118 2    
   234  117  119 am   BACKBONE|DICT|INTERRES
   235  119  120 1    
   236  119  240 1    
   237  120  121 1    
   238  120  124 1    
   239  120  241 1    
   240  121  122 am   BACKBONE|DICT|INTERRES
   241  121  123 2    
   242  122  242 1    
   243  122  243 1    
   244  124  125 1    
   245  124  244 1    
   246  124  245 1    
   247  125  126 1    
   248  126  246 1    
   249  126  247 1    
@<TRIPOS>SUBSTRUCTURE
     1 UNK         1 GROUP             0       ****    0 ROOT    
