@<TRIPOS>MOLECULE
3R540
247   249    1
SMALL
USER_CHARGES


@<TRIPOS>ATOM
      1 CA         -3.1654  -15.6407  -48.2732 C.3       0 UNK        -0.1800 
      2 C          -1.9449  -14.7346  -48.3670 C.2       0 UNK         0.5000 
      3 O          -2.0709  -13.5252  -48.1791 O.2       0 UNK        -0.5000 
      4 N          -0.7770  -15.3083  -48.6806 N.am      1 UNK        -0.5000 
      5 CA          0.5030  -14.6074  -48.8124 C.3       1 UNK         0.1400 
      6 C6          1.5892  -15.4594  -49.5223 C.3       23 UNK        -0.0398 
      7 S7          1.7947  -17.1682  -48.9010 S.3       23 UNK        -0.2404 
      8 C8          2.0910  -18.0445  -50.4708 C.3       23 UNK        -0.0205 
      9 C9          2.1566  -19.5593  -50.3188 C.ar      23 UNK        -0.0193 
     10 C10         1.2959  -20.3716  -51.0649 C.ar      23 UNK        -0.1150 
     11 C11         1.3769  -21.7677  -50.9887 C.ar      23 UNK        -0.0193 
     12 C12         2.3566  -22.3415  -50.1738 C.ar      23 UNK        -0.1150 
     13 C13         3.2289  -21.5463  -49.4244 C.ar      23 UNK        -0.0193 
     14 C14         3.1182  -20.1542  -49.4954 C.ar      23 UNK        -0.1150 
     15 C15         4.3326  -22.1935  -48.5963 C.3       23 UNK        -0.0205 
     16 S16         3.6935  -23.3571  -47.3484 S.3       23 UNK        -0.2404 
     17 C17         2.9883  -22.2199  -46.1119 C.3       23 UNK        -0.0398 
     18 CA          3.0941  -22.7753  -44.6689 C.3       11 UNK         0.1400 
     19 N           2.9897  -21.7098  -43.6704 N.am      11 UNK        -0.5000 
     20 C           3.2889  -21.8414  -42.3704 C.2       10 UNK         0.5000 
     21 O           3.7406  -22.8726  -41.8709 O.2       10 UNK        -0.5000 
     22 CA          3.0349  -20.6163  -41.4727 C.3       10 UNK         0.1400 
     23 CB          4.2124  -19.6328  -41.5495 C.3       10 UNK        -0.1800 
     24 N           1.7900  -19.9226  -41.8060 N.am      10 UNK        -0.5000 
     25 C           0.5654  -20.4312  -41.6047 C.2       9 UNK         0.5000 
     26 O           0.3550  -21.5115  -41.0527 O.2       9 UNK        -0.5000 
     27 CA         -0.6270  -19.6093  -42.1285 C.3       9 UNK         0.1400 
     28 CB         -1.0226  -18.5204  -41.1199 C.3       9 UNK        -0.1800 
     29 N          -0.3720  -18.9956  -43.4313 N.am      9 UNK        -0.5000 
     30 C          -0.1357  -19.6691  -44.5659 C.2       8 UNK         0.5000 
     31 O          -0.1294  -20.8973  -44.6479 O.2       8 UNK        -0.5000 
     32 CA          0.2141  -18.8249  -45.8027 C.3       8 UNK         0.1400 
     33 CB         -1.0415  -18.1930  -46.4126 C.3       8 UNK        -0.1800 
     34 N           1.1880  -17.7785  -45.4980 N.am      8 UNK        -0.5000 
     35 C           2.4408  -18.0108  -45.0862 C.2       7 UNK         0.5000 
     36 O           2.9263  -19.1342  -44.9677 O.2       7 UNK        -0.5000 
     37 CA          3.2691  -16.7886  -44.6687 C.3       7 UNK         0.1400 
     38 CB          3.9692  -16.1474  -45.8746 C.3       7 UNK        -0.1800 
     39 N           2.4518  -15.8033  -43.9588 N.am      7 UNK        -0.5000 
     40 C           2.0336  -15.9748  -42.6968 C.2       6 UNK         0.5000 
     41 O           2.3005  -16.9702  -42.0234 O.2       6 UNK        -0.5000 
     42 CA          1.1589  -14.8695  -42.0793 C.3       6 UNK         0.1400 
     43 CB          2.0410  -13.7589  -41.4910 C.3       6 UNK        -0.1800 
     44 N           0.1721  -14.2842  -42.9895 N.am      6 UNK        -0.5000 
     45 C          -0.8111  -14.9698  -43.5942 C.2       5 UNK         0.5000 
     46 O          -0.9199  -16.1941  -43.5198 O.2       5 UNK        -0.5000 
     47 CA         -1.8523  -14.1568  -44.3961 C.3       5 UNK         0.1400 
     48 CB         -3.1962  -14.8982  -44.5593 C.3       5 UNK        -0.1800 
     49 N          -2.0619  -12.8053  -43.8678 N.am      5 UNK        -0.5000 
     50 C          -2.5350  -12.4650  -42.6571 C.2       4 UNK         0.5000 
     51 O          -2.9398  -13.2810  -41.8276 O.2       4 UNK        -0.5000 
     52 CA         -2.5499  -10.9559  -42.3128 C.3       4 UNK         0.1400 
     53 CB         -2.3831  -10.6940  -40.8009 C.3       4 UNK        -0.1800 
     54 N          -1.5825  -10.1595  -43.0814 N.am      4 UNK        -0.5000 
     55 C          -0.2530  -10.3257  -43.1106 C.2       3 UNK         0.5000 
     56 O           0.3551  -11.1710  -42.4520 O.2       3 UNK        -0.5000 
     57 CA          0.5250   -9.4332  -44.0924 C.3       3 UNK         0.1400 
     58 CB          1.3615   -8.3914  -43.3343 C.3       3 UNK        -0.1800 
     59 N           1.4049  -10.2251  -44.9541 N.am      3 UNK        -0.5000 
     60 C           1.0046  -11.2028  -45.7792 C.2       2 UNK         0.5000 
     61 O          -0.1782  -11.5156  -45.9375 O.2       2 UNK        -0.5000 
     62 CA          2.1257  -11.9133  -46.5632 C.3       2 UNK         0.1400 
     63 CB          3.1235  -12.6192  -45.6250 C.3       2 UNK        -0.1800 
     64 N           1.6240  -12.8164  -47.6065 N.am      2 UNK        -0.5000 
     65 C           1.0088  -14.0034  -47.4821 C.2       1 UNK         0.5000 
     66 O           0.8637  -14.6169  -46.4199 O.2       1 UNK        -0.5000 
     67 C           2.0681  -23.9001  -44.4111 C.2       11 UNK         0.5000 
     68 O           2.4411  -25.0744  -44.4168 O.2       11 UNK        -0.5000 
     69 N           0.8037  -23.5114  -44.1783 N.am      12 UNK        -0.5000 
     70 CA         -0.3644  -24.3708  -43.9481 C.3       12 UNK         0.1400 
     71 CB         -0.2414  -25.1080  -42.5986 C.3       12 UNK        -0.1800 
     72 C          -0.6610  -25.3162  -45.1347 C.2       12 UNK         0.5000 
     73 O          -1.0932  -26.4537  -44.9362 O.2       12 UNK        -0.5000 
     74 N          -0.3991  -24.8244  -46.3513 N.am      13 UNK        -0.5000 
     75 CA         -0.5832  -25.5346  -47.6136 C.3       13 UNK         0.1400 
     76 CB          0.3812  -24.9253  -48.6437 C.3       13 UNK        -0.1800 
     77 C          -2.0422  -25.4830  -48.1080 C.2       13 UNK         0.5000 
     78 O          -2.8914  -24.8253  -47.5022 O.2       13 UNK        -0.5000 
     79 N          -2.3006  -26.1759  -49.2203 N.am      14 UNK        -0.5000 
     80 CA         -3.5753  -26.2005  -49.9270 C.3       14 UNK         0.1400 
     81 CB         -4.4133  -27.3933  -49.4360 C.3       14 UNK        -0.1800 
     82 C          -3.3029  -26.2914  -51.4351 C.2       14 UNK         0.5000 
     83 O          -2.2133  -26.7038  -51.8422 O.2       14 UNK        -0.5000 
     84 N          -4.3072  -25.9145  -52.2283 N.am      15 UNK        -0.5000 
     85 CA         -4.3200  -25.8990  -53.6877 C.3       15 UNK         0.1400 
     86 CB         -3.4006  -24.7794  -54.2185 C.3       15 UNK        -0.1800 
     87 C          -5.7767  -25.6931  -54.1364 C.2       15 UNK         0.5000 
     88 O          -6.6494  -25.4812  -53.2869 O.2       15 UNK        -0.5000 
     89 N          -6.0227  -25.7276  -55.4530 N.am      16 UNK        -0.5000 
     90 CA         -7.3186  -25.4294  -56.0722 C.3       16 UNK         0.1400 
     91 CB         -7.2175  -25.6492  -57.5898 C.3       16 UNK        -0.1800 
     92 C          -7.7644  -23.9908  -55.7465 C.2       16 UNK         0.5000 
     93 O          -7.0923  -23.0425  -56.1576 O.2       16 UNK        -0.5000 
     94 N          -8.8246  -23.8645  -54.9331 N.am      17 UNK        -0.5000 
     95 CA         -9.3242  -22.6234  -54.3178 C.3       17 UNK         0.1400 
     96 CB         -9.9407  -21.6993  -55.3885 C.3       17 UNK        -0.1800 
     97 C          -8.2616  -21.9018  -53.4537 C.2       17 UNK         0.5000 
     98 O          -8.2815  -20.6743  -53.3418 O.2       17 UNK        -0.5000 
     99 N          -7.3098  -22.6804  -52.9122 N.am      18 UNK        -0.5000 
    100 CA        -6.0819  -22.2577  -52.2307 C.3       18 UNK         0.1400 
    101 CB        -6.4089  -21.6142  -50.8684 C.3       18 UNK        -0.1800 
    102 C         -5.1706  -21.3636  -53.1000 C.2       18 UNK         0.5000 
    103 O         -4.3846  -20.5926  -52.5517 O.2       18 UNK        -0.5000 
    104 N         -5.3206  -21.4239  -54.4345 N.am      19 UNK        -0.5000 
    105 CA        -4.6412  -20.6058  -55.4510 C.3       19 UNK         0.1400 
    106 CB        -3.1540  -21.0046  -55.5369 C.3       19 UNK        -0.1800 
    107 C         -4.8129  -19.0771  -55.2691 C.2       19 UNK         0.5000 
    108 O         -4.0723  -18.3071  -55.8823 O.2       19 UNK        -0.5000 
    109 N         -5.7562  -18.6702  -54.4036 N.am      20 UNK        -0.5000 
    110 CA        -5.9430  -17.3293  -53.8428 C.3       20 UNK         0.1400 
    111 CB        -6.4662  -16.3602  -54.9232 C.3       20 UNK        -0.1800 
    112 C         -4.6957  -16.7881  -53.0991 C.2       20 UNK         0.5000 
    113 O         -4.5086  -15.5707  -53.0460 O.2       20 UNK        -0.5000 
    114 N         -3.8579  -17.6818  -52.5471 N.am      21 UNK        -0.5000 
    115 CA        -2.5680  -17.3234  -51.9484 C.3       21 UNK         0.1400 
    116 CB        -1.4980  -17.2236  -53.0503 C.3       21 UNK        -0.1800 
    117 C         -2.0961  -18.2787  -50.8405 C.2       21 UNK         0.5000 
    118 O         -1.3462  -17.8395  -49.9723 O.2       21 UNK        -0.5000 
    119 N         -2.5055  -19.5506  -50.8749 N.am      22 UNK        -0.5000 
    120 CA        -2.0453  -20.5990  -49.9468 C.3       22 UNK         0.1400 
    121 C         -2.8208  -20.6478  -48.6006 C.2       22 UNK         0.5000 
    122 N         -3.8813  -19.8706  -48.4139 N.am      22 UNK        -0.7600 
    123 O         -2.4443  -21.3945  -47.7033 O.2       22 UNK        -0.5000 
    124 C124       -2.0158  -21.9999  -50.6174 C.3       23 UNK        -0.0398 
    125 S125       -1.1673  -22.0221  -52.2361 S.3       23 UNK        -0.2404 
    126 C126        0.4810  -22.6872  -51.8213 C.3       23 UNK        -0.0205 
    127 H127       -3.7242  -15.6137  -49.2084 H         1 UNK         0.0600 
    128 H128       -3.8264  -15.3077  -47.4738 H         1 UNK         0.0600 
    129 H129       -2.8880  -16.6741  -48.0695 H         1 UNK         0.0600 
    130 H130       -0.7491  -16.3059  -48.8741 H         1 UNK         0.3000 
    131 H131        0.3013  -13.7619  -49.4742 H         1 UNK         0.0600 
    132 H132        2.5605  -14.9626  -49.4898 H         1 UNK         0.0800 
    133 H133        1.3327  -15.5101  -50.5810 H         1 UNK         0.0800 
    134 H134        1.3016  -17.7763  -51.1739 H         1 UNK         0.0800 
    135 H135        3.0271  -17.6919  -50.9055 H         1 UNK         0.0800 
    136 H136        0.5688  -19.9106  -51.7177 H         1 UNK         0.1150 
    137 H137        2.4562  -23.4171  -50.1331 H         1 UNK         0.1150 
    138 H138        3.7976  -19.5285  -48.9336 H         1 UNK         0.1150 
    139 H139        4.9928  -22.7396  -49.2712 H         1 UNK         0.0800 
    140 H140        4.9539  -21.4405  -48.1091 H         1 UNK         0.0800 
    141 H141        3.5465  -21.2867  -46.1813 H         1 UNK         0.0800 
    142 H142        1.9596  -21.9743  -46.3815 H         1 UNK         0.0800 
    143 H143        4.0896  -23.2093  -44.5507 H         1 UNK         0.0600 
    144 H144        2.6916  -20.8006  -44.0119 H         1 UNK         0.3000 
    145 H145        2.9586  -20.9697  -40.4423 H         1 UNK         0.0600 
    146 H146        4.0788  -18.8035  -40.8548 H         1 UNK         0.0600 
    147 H147        4.3252  -19.2160  -42.5505 H         1 UNK         0.0600 
    148 H148        5.1505  -20.1254  -41.2909 H         1 UNK         0.0600 
    149 H149        1.8780  -18.9954  -42.2072 H         1 UNK         0.3000 
    150 H150       -1.4728  -20.2900  -42.2443 H         1 UNK         0.0600 
    151 H151       -0.2250  -17.7894  -40.9843 H         1 UNK         0.0600 
    152 H152       -1.9134  -17.9843  -41.4482 H         1 UNK         0.0600 
    153 H153       -1.2433  -18.9527  -40.1432 H         1 UNK         0.0600 
    154 H154       -0.4014  -17.9785  -43.4675 H         1 UNK         0.3000 
    155 H155        0.6532  -19.4931  -46.5469 H         1 UNK         0.0600 
    156 H156       -0.8309  -17.8191  -47.4115 H         1 UNK         0.0600 
    157 H157       -1.4135  -17.3629  -45.8154 H         1 UNK         0.0600 
    158 H158       -1.8485  -18.9193  -46.4985 H         1 UNK         0.0600 
    159 H159        0.8710  -16.8199  -45.5679 H         1 UNK         0.3000 
    160 H160        4.0499  -17.1396  -43.9904 H         1 UNK         0.0600 
    161 H161        3.2588  -15.7253  -46.5830 H         1 UNK         0.0600 
    162 H162        4.5650  -16.8845  -46.4144 H         1 UNK         0.0600 
    163 H163        4.6461  -15.3546  -45.5578 H         1 UNK         0.0600 
    164 H164        2.1119  -15.0137  -44.4920 H         1 UNK         0.3000 
    165 H165        0.6039  -15.3249  -41.2567 H         1 UNK         0.0600 
    166 H166        1.4511  -13.0664  -40.8906 H         1 UNK         0.0600 
    167 H167        2.8123  -14.1716  -40.8392 H         1 UNK         0.0600 
    168 H168        2.5411  -13.1851  -42.2722 H         1 UNK         0.0600 
    169 H169        0.1767  -13.2740  -43.0653 H         1 UNK         0.3000 
    170 H170       -1.4342  -14.0229  -45.3927 H         1 UNK         0.0600 
    171 H171       -3.0646  -15.8334  -45.1029 H         1 UNK         0.0600 
    172 H172       -3.6444  -15.1452  -43.5968 H         1 UNK         0.0600 
    173 H173       -3.9118  -14.2970  -45.1198 H         1 UNK         0.0600 
    174 H174       -1.7168  -12.0654  -44.4689 H         1 UNK         0.3000 
    175 H175       -3.5379  -10.5946  -42.6015 H         1 UNK         0.0600 
    176 H176       -1.4448  -11.0994  -40.4210 H         1 UNK         0.0600 
    177 H177       -2.4011   -9.6267  -40.5808 H         1 UNK         0.0600 
    178 H178       -3.1913  -11.1538  -40.2310 H         1 UNK         0.0600 
    179 H179       -1.9884   -9.4541  -43.6811 H         1 UNK         0.3000 
    180 H180       -0.1828   -8.9059  -44.7353 H         1 UNK         0.0600 
    181 H181        2.1100   -8.8635  -42.6963 H         1 UNK         0.0600 
    182 H182        0.7289   -7.7736  -42.6956 H         1 UNK         0.0600 
    183 H183        1.8791   -7.7227  -44.0223 H         1 UNK         0.0600 
    184 H184        2.3926  -10.0373  -44.8670 H         1 UNK         0.3000 
    185 H185        2.6715  -11.1335  -47.0965 H         1 UNK         0.0600 
    186 H186        3.6640  -11.8996  -45.0097 H         1 UNK         0.0600 
    187 H187        2.6207  -13.3041  -44.9459 H         1 UNK         0.0600 
    188 H188        3.8680  -13.1771  -46.1915 H         1 UNK         0.0600 
    189 H189        1.6632  -12.4191  -48.5344 H         1 UNK         0.3000 
    190 H190        0.5918  -22.5156  -44.2272 H         1 UNK         0.3000 
    191 H191       -1.2209  -23.6989  -43.8775 H         1 UNK         0.0600 
    192 H192       -1.1649  -25.6340  -42.3545 H         1 UNK         0.0600 
    193 H193       -0.0426  -24.4085  -41.7864 H         1 UNK         0.0600 
    194 H194        0.5618  -25.8452  -42.6106 H         1 UNK         0.0600 
    195 H195       -0.0985  -23.8637  -46.4178 H         1 UNK         0.3000 
    196 H196       -0.3177  -26.5845  -47.4723 H         1 UNK         0.0600 
    197 H197        0.1970  -23.8598  -48.7823 H         1 UNK         0.0600 
    198 H198        1.4155  -25.0449  -48.3229 H         1 UNK         0.0600 
    199 H199        0.2947  -25.4098  -49.6165 H         1 UNK         0.0600 
    200 H200       -1.5503  -26.6459  -49.7112 H         1 UNK         0.3000 
    201 H201       -4.1197  -25.2719  -49.7404 H         1 UNK         0.0600 
    202 H202       -5.3767  -27.4345  -49.9455 H         1 UNK         0.0600 
    203 H203       -4.6153  -27.3189  -48.3673 H         1 UNK         0.0600 
    204 H204       -3.9048  -28.3415  -49.6151 H         1 UNK         0.0600 
    205 H205       -5.2034  -25.6635  -51.8272 H         1 UNK         0.3000 
    206 H206       -3.9810  -26.8676  -54.0601 H         1 UNK         0.0600 
    207 H207       -2.3600  -24.9551  -53.9463 H         1 UNK         0.0600 
    208 H208       -3.4354  -24.7122  -55.3062 H         1 UNK         0.0600 
    209 H209       -3.6818  -23.8057  -53.8198 H         1 UNK         0.0600 
    210 H210       -5.2545  -25.8864  -56.0884 H         1 UNK         0.3000 
    211 H211       -8.0546  -26.1313  -55.6747 H         1 UNK         0.0600 
    212 H212       -6.4656  -25.0018  -58.0430 H         1 UNK         0.0600 
    213 H213       -8.1697  -25.4378  -58.0781 H         1 UNK         0.0600 
    214 H214       -6.9557  -26.6815  -57.8225 H         1 UNK         0.0600 
    215 H215       -9.2807  -24.7103  -54.6186 H         1 UNK         0.3000 
    216 H216      -10.1213  -22.9168  -53.6334 H         1 UNK         0.0600 
    217 H217      -10.6871  -22.2270  -55.9822 H         1 UNK         0.0600 
    218 H218       -9.1850  -21.3081  -56.0703 H         1 UNK         0.0600 
    219 H219      -10.4391  -20.8450  -54.9291 H         1 UNK         0.0600 
    220 H220       -7.3743  -23.6814  -53.0756 H         1 UNK         0.3000 
    221 H221       -5.5107  -23.1653  -52.0356 H         1 UNK         0.0600 
    222 H222       -5.5020  -21.4431  -50.2880 H         1 UNK         0.0600 
    223 H223       -6.9091  -20.6523  -50.9839 H         1 UNK         0.0600 
    224 H224       -7.0544  -22.2591  -50.2724 H         1 UNK         0.0600 
    225 H225       -6.0173  -22.0588  -54.8130 H         1 UNK         0.3000 
    226 H226       -5.1109  -20.8540  -56.4036 H         1 UNK         0.0600 
    227 H227       -3.0396  -22.0798  -55.6719 H         1 UNK         0.0600 
    228 H228       -2.6642  -20.5205  -56.3823 H         1 UNK         0.0600 
    229 H229       -2.6082  -20.7192  -54.6372 H         1 UNK         0.0600 
    230 H230       -6.3270  -19.3913  -53.9810 H         1 UNK         0.3000 
    231 H231       -6.7217  -17.4281  -53.0853 H         1 UNK         0.0600 
    232 H232       -6.7550  -15.4038  -54.4861 H         1 UNK         0.0600 
    233 H233       -7.3465  -16.7650  -55.4225 H         1 UNK         0.0600 
    234 H234       -5.7122  -16.1573  -55.6842 H         1 UNK         0.0600 
    235 H235       -4.0805  -18.6702  -52.6127 H         1 UNK         0.3000 
    236 H236       -2.6593  -16.3441  -51.4738 H         1 UNK         0.0600 
    237 H237       -1.7585  -16.4664  -53.7898 H         1 UNK         0.0600 
    238 H238       -0.5288  -16.9476  -52.6335 H         1 UNK         0.0600 
    239 H239       -1.3758  -18.1734  -53.5728 H         1 UNK         0.0600 
    240 H240       -3.1354  -19.8765  -51.6051 H         1 UNK         0.3000 
    241 H241       -1.0194  -20.3640  -49.6618 H         1 UNK         0.0600 
    242 H242       -4.1904  -19.2491  -49.1425 H         1 UNK         0.3800 
    243 H243       -4.3752  -19.9091  -47.5373 H         1 UNK         0.3800 
    244 H244       -3.0335  -22.3576  -50.7799 H         1 UNK         0.0800 
    245 H245       -1.5454  -22.7299  -49.9580 H         1 UNK         0.0800 
    246 H246        1.0009  -22.9030  -52.7552 H         1 UNK         0.0800 
    247 H247        0.3485  -23.6463  -51.3206 H         1 UNK         0.0800 
@<TRIPOS>BOND
     1    1    2 1    
     2    1  127 1    
     3    1  128 1    
     4    1  129 1    
     5    2    3 2    
     6    2    4 am   BACKBONE|DICT|INTERRES
     7    4    5 1    
     8    4  130 1    
     9    5    6 1    
    10    5   65 1    
    11    5  131 1    
    12    6    7 1    
    13    6  132 1    
    14    6  133 1    
    15    7    8 1    
    16    8    9 1    
    17    8  134 1    
    18    8  135 1    
    19    9   10 ar   
    20    9   14 ar   
    21   10   11 ar   
    22   10  136 1    
    23   11   12 ar   
    24   11  126 1    
    25   12   13 ar   
    26   12  137 1    
    27   13   14 ar   
    28   13   15 1    
    29   14  138 1    
    30   15   16 1    
    31   15  139 1    
    32   15  140 1    
    33   16   17 1    
    34   17   18 1    
    35   17  141 1    
    36   17  142 1    
    37   18   19 1    
    38   18   67 1    
    39   18  143 1    
    40   19   20 am   BACKBONE|DICT|INTERRES
    41   19  144 1    
    42   20   21 2    
    43   20   22 1    
    44   22   23 1    
    45   22   24 1    
    46   22  145 1    
    47   23  146 1    
    48   23  147 1    
    49   23  148 1    
    50   24   25 am   BACKBONE|DICT|INTERRES
    51   24  149 1    
    52   25   26 2    
    53   25   27 1    
    54   27   28 1    
    55   27   29 1    
    56   27  150 1    
    57   28  151 1    
    58   28  152 1    
    59   28  153 1    
    60   29   30 am   BACKBONE|DICT|INTERRES
    61   29  154 1    
    62   30   31 2    
    63   30   32 1    
    64   32   33 1    
    65   32   34 1    
    66   32  155 1    
    67   33  156 1    
    68   33  157 1    
    69   33  158 1    
    70   34   35 am   BACKBONE|DICT|INTERRES
    71   34  159 1    
    72   35   36 2    
    73   35   37 1    
    74   37   38 1    
    75   37   39 1    
    76   37  160 1    
    77   38  161 1    
    78   38  162 1    
    79   38  163 1    
    80   39   40 am   BACKBONE|DICT|INTERRES
    81   39  164 1    
    82   40   41 2    
    83   40   42 1    
    84   42   43 1    
    85   42   44 1    
    86   42  165 1    
    87   43  166 1    
    88   43  167 1    
    89   43  168 1    
    90   44   45 am   BACKBONE|DICT|INTERRES
    91   44  169 1    
    92   45   46 2    
    93   45   47 1    
    94   47   48 1    
    95   47   49 1    
    96   47  170 1    
    97   48  171 1    
    98   48  172 1    
    99   48  173 1    
   100   49   50 am   BACKBONE|DICT|INTERRES
   101   49  174 1    
   102   50   51 2    
   103   50   52 1    
   104   52   53 1    
   105   52   54 1    
   106   52  175 1    
   107   53  176 1    
   108   53  177 1    
   109   53  178 1    
   110   54   55 am   BACKBONE|DICT|INTERRES
   111   54  179 1    
   112   55   56 2    
   113   55   57 1    
   114   57   58 1    
   115   57   59 1    
   116   57  180 1    
   117   58  181 1    
   118   58  182 1    
   119   58  183 1    
   120   59   60 am   BACKBONE|DICT|INTERRES
   121   59  184 1    
   122   60   61 2    
   123   60   62 1    
   124   62   63 1    
   125   62   64 1    
   126   62  185 1    
   127   63  186 1    
   128   63  187 1    
   129   63  188 1    
   130   64   65 am   BACKBONE|DICT|INTERRES
   131   64  189 1    
   132   65   66 2    
   133   67   68 2    
   134   67   69 am   BACKBONE|DICT|INTERRES
   135   69   70 1    
   136   69  190 1    
   137   70   71 1    
   138   70   72 1    
   139   70  191 1    
   140   71  192 1    
   141   71  193 1    
   142   71  194 1    
   143   72   73 2    
   144   72   74 am   BACKBONE|DICT|INTERRES
   145   74   75 1    
   146   74  195 1    
   147   75   76 1    
   148   75   77 1    
   149   75  196 1    
   150   76  197 1    
   151   76  198 1    
   152   76  199 1    
   153   77   78 2    
   154   77   79 am   BACKBONE|DICT|INTERRES
   155   79   80 1    
   156   79  200 1    
   157   80   81 1    
   158   80   82 1    
   159   80  201 1    
   160   81  202 1    
   161   81  203 1    
   162   81  204 1    
   163   82   83 2    
   164   82   84 am   BACKBONE|DICT|INTERRES
   165   84   85 1    
   166   84  205 1    
   167   85   86 1    
   168   85   87 1    
   169   85  206 1    
   170   86  207 1    
   171   86  208 1    
   172   86  209 1    
   173   87   88 2    
   174   87   89 am   BACKBONE|DICT|INTERRES
   175   89   90 1    
   176   89  210 1    
   177   90   91 1    
   178   90   92 1    
   179   90  211 1    
   180   91  212 1    
   181   91  213 1    
   182   91  214 1    
   183   92   93 2    
   184   92   94 am   BACKBONE|DICT|INTERRES
   185   94   95 1    
   186   94  215 1    
   187   95   96 1    
   188   95   97 1    
   189   95  216 1    
   190   96  217 1    
   191   96  218 1    
   192   96  219 1    
   193   97   98 2    
   194   97   99 am   BACKBONE|DICT|INTERRES
   195   99  100 1    
   196   99  220 1    
   197  100  101 1    
   198  100  102 1    
   199  100  221 1    
   200  101  222 1    
   201  101  223 1    
   202  101  224 1    
   203  102  103 2    
   204  102  104 am   BACKBONE|DICT|INTERRES
   205  104  105 1    
   206  104  225 1    
   207  105  106 1    
   208  105  107 1    
   209  105  226 1    
   210  106  227 1    
   211  106  228 1    
   212  106  229 1    
   213  107  108 2    
   214  107  109 am   BACKBONE|DICT|INTERRES
   215  109  110 1    
   216  109  230 1    
   217  110  111 1    
   218  110  112 1    
   219  110  231 1    
   220  111  232 1    
   221  111  233 1    
   222  111  234 1    
   223  112  113 2    
   224  112  114 am   BACKBONE|DICT|INTERRES
   225  114  115 1    
   226  114  235 1    
   227  115  116 1    
   228  115  117 1    
   229  115  236 1    
   230  116  237 1    
   231  116  238 1    
   232  116  239 1    
   233  117  118 2    
   234  117  119 am   BACKBONE|DICT|INTERRES
   235  119  120 1    
   236  119  240 1    
   237  120  121 1    
   238  120  124 1    
   239  120  241 1    
   240  121  122 am   BACKBONE|DICT|INTERRES
   241  121  123 2    
   242  122  242 1    
   243  122  243 1    
   244  124  125 1    
   245  124  244 1    
   246  124  245 1    
   247  125  126 1    
   248  126  246 1    
   249  126  247 1    
@<TRIPOS>SUBSTRUCTURE
     1 UNK         1 GROUP             0       ****    0 ROOT    
