@<TRIPOS>MOLECULE
3R540
247   249    1
SMALL
USER_CHARGES


@<TRIPOS>ATOM
      1 CA          0.8065  -15.6397  -49.4833 C.3       0 UNK        -0.1800 
      2 C           2.0251  -14.8279  -49.0768 C.2       0 UNK         0.5000 
      3 O           1.8972  -13.8149  -48.3876 O.2       0 UNK        -0.5000 
      4 N           3.2127  -15.2828  -49.4963 N.am      1 UNK        -0.5000 
      5 CA          4.5091  -14.6039  -49.3369 C.3       1 UNK         0.1400 
      6 C6          5.6225  -15.2921  -50.1614 C.3       23 UNK        -0.0398 
      7 S7          5.2489  -15.2902  -51.9472 S.3       23 UNK        -0.2404 
      8 C8          5.3509  -17.0601  -52.3555 C.3       23 UNK        -0.0205 
      9 C9          4.1797  -17.8664  -51.8104 C.ar      23 UNK        -0.0193 
     10 C10         2.8979  -17.6883  -52.3390 C.ar      23 UNK        -0.1150 
     11 C11         1.8328  -18.4895  -51.9157 C.ar      23 UNK        -0.0193 
     12 C12         2.0623  -19.4802  -50.9549 C.ar      23 UNK        -0.1150 
     13 C13         3.3351  -19.6567  -50.4051 C.ar      23 UNK        -0.0193 
     14 C14         4.3878  -18.8413  -50.8307 C.ar      23 UNK        -0.1150 
     15 C15         3.5920  -20.7696  -49.4009 C.3       23 UNK        -0.0205 
     16 S16         3.5482  -20.1813  -47.6797 S.3       23 UNK        -0.2404 
     17 C17         1.7598  -20.0088  -47.3715 C.3       23 UNK        -0.0398 
     18 CA          1.0896  -21.3475  -46.9456 C.3       11 UNK         0.1400 
     19 N           0.3182  -21.2226  -45.7032 N.am      11 UNK        -0.5000 
     20 C          -0.2445  -22.2405  -45.0354 C.2       10 UNK         0.5000 
     21 O          -0.1197  -23.4208  -45.3601 O.2       10 UNK        -0.5000 
     22 CA         -1.1422  -21.8790  -43.8353 C.3       10 UNK         0.1400 
     23 CB         -0.3118  -21.6653  -42.5613 C.3       10 UNK        -0.1800 
     24 N          -1.9750  -20.7027  -44.0958 N.am      10 UNK        -0.5000 
     25 C          -2.9556  -20.6701  -45.0101 C.2       9 UNK         0.5000 
     26 O          -3.3063  -21.6518  -45.6629 O.2       9 UNK        -0.5000 
     27 CA         -3.6206  -19.3087  -45.2853 C.3       9 UNK         0.1400 
     28 CB         -4.7345  -19.0250  -44.2674 C.3       9 UNK        -0.1800 
     29 N          -2.6615  -18.2033  -45.2970 N.am      9 UNK        -0.5000 
     30 C          -1.6568  -18.0838  -46.1779 C.2       8 UNK         0.5000 
     31 O          -1.4705  -18.8609  -47.1125 O.2       8 UNK        -0.5000 
     32 CA         -0.6505  -16.9469  -45.9379 C.3       8 UNK         0.1400 
     33 CB         -1.1911  -15.6138  -46.4748 C.3       8 UNK        -0.1800 
     34 N          -0.3023  -16.8059  -44.5256 N.am      8 UNK        -0.5000 
     35 C           0.3205  -17.7329  -43.7862 C.2       7 UNK         0.5000 
     36 O           0.7410  -18.7935  -44.2421 O.2       7 UNK        -0.5000 
     37 CA          0.4432  -17.4570  -42.2779 C.3       7 UNK         0.1400 
     38 CB          1.6530  -16.5698  -41.9624 C.3       7 UNK        -0.1800 
     39 N          -0.7650  -16.8377  -41.7404 N.am      7 UNK        -0.5000 
     40 C          -1.9180  -17.4897  -41.5455 C.2       6 UNK         0.5000 
     41 O          -2.0766  -18.6857  -41.7914 O.2       6 UNK        -0.5000 
     42 CA         -3.0953  -16.6536  -41.0126 C.3       6 UNK         0.1400 
     43 CB         -3.0430  -16.5606  -39.4804 C.3       6 UNK        -0.1800 
     44 N          -3.1311  -15.3037  -41.5802 N.am      6 UNK        -0.5000 
     45 C          -3.4132  -15.0409  -42.8630 C.2       5 UNK         0.5000 
     46 O          -3.6621  -15.9089  -43.6999 O.2       5 UNK        -0.5000 
     47 CA         -3.3712  -13.5624  -43.2908 C.3       5 UNK         0.1400 
     48 CB         -4.6459  -12.8316  -42.8419 C.3       5 UNK        -0.1800 
     49 N          -2.1925  -12.8216  -42.8238 N.am      5 UNK        -0.5000 
     50 C          -0.9243  -13.1631  -43.0843 C.2       4 UNK         0.5000 
     51 O          -0.5938  -14.2295  -43.6032 O.2       4 UNK        -0.5000 
     52 CA          0.1708  -12.1532  -42.7315 C.3       4 UNK         0.1400 
     53 CB          0.8414  -12.4985  -41.3925 C.3       4 UNK        -0.1800 
     54 N           1.1491  -12.2107  -43.8121 N.am      4 UNK        -0.5000 
     55 C           1.8513  -11.1812  -44.2925 C.2       3 UNK         0.5000 
     56 O           1.8421  -10.0593  -43.7818 O.2       3 UNK        -0.5000 
     57 CA          2.6621  -11.4383  -45.5829 C.3       3 UNK         0.1400 
     58 CB          3.8352  -10.4513  -45.7610 C.3       3 UNK        -0.1800 
     59 N           3.1207  -12.8229  -45.7571 N.am      3 UNK        -0.5000 
     60 C           3.9918  -13.4937  -44.9841 C.2       2 UNK         0.5000 
     61 O           4.4500  -13.0574  -43.9278 O.2       2 UNK        -0.5000 
     62 CA          4.4545  -14.8821  -45.4816 C.3       2 UNK         0.1400 
     63 CB          3.7011  -15.9977  -44.7487 C.3       2 UNK        -0.1800 
     64 N           4.2878  -15.0745  -46.9220 N.am      2 UNK        -0.5000 
     65 C           4.9611  -14.4103  -47.8712 C.2       1 UNK         0.5000 
     66 O           5.8942  -13.6442  -47.6266 O.2       1 UNK        -0.5000 
     67 C           0.2318  -21.9366  -48.0857 C.2       11 UNK         0.5000 
     68 O           0.6681  -22.8680  -48.7616 O.2       11 UNK        -0.5000 
     69 N          -0.9923  -21.4143  -48.2420 N.am      12 UNK        -0.5000 
     70 CA         -1.9992  -21.9055  -49.1800 C.3       12 UNK         0.1400 
     71 CB         -3.2264  -20.9876  -49.1435 C.3       12 UNK        -0.1800 
     72 C          -2.4086  -23.3595  -48.8939 C.2       12 UNK         0.5000 
     73 O          -2.4543  -24.1636  -49.8222 O.2       12 UNK        -0.5000 
     74 N          -2.6513  -23.6859  -47.6162 N.am      13 UNK        -0.5000 
     75 CA         -2.9818  -25.0354  -47.1565 C.3       13 UNK         0.1400 
     76 CB         -3.3593  -25.0030  -45.6685 C.3       13 UNK        -0.1800 
     77 C          -1.8519  -26.0487  -47.4162 C.2       13 UNK         0.5000 
     78 O          -2.1329  -27.1628  -47.8578 O.2       13 UNK        -0.5000 
     79 N          -0.5954  -25.6333  -47.1987 N.am      14 UNK        -0.5000 
     80 CA          0.6061  -26.4090  -47.5209 C.3       14 UNK         0.1400 
     81 CB          1.8410  -25.7136  -46.9283 C.3       14 UNK        -0.1800 
     82 C           0.7817  -26.6460  -49.0349 C.2       14 UNK         0.5000 
     83 O           1.2521  -27.7121  -49.4327 O.2       14 UNK        -0.5000 
     84 N           0.3604  -25.6700  -49.8500 N.am      15 UNK        -0.5000 
     85 CA          0.2969  -25.7514  -51.3114 C.3       15 UNK         0.1400 
     86 CB          0.3477  -24.3256  -51.8867 C.3       15 UNK        -0.1800 
     87 C          -0.9410  -26.5174  -51.8342 C.2       15 UNK         0.5000 
     88 O          -1.0583  -26.7018  -53.0464 O.2       15 UNK        -0.5000 
     89 N          -1.8325  -26.9480  -50.9273 N.am      16 UNK        -0.5000 
     90 CA         -3.0980  -27.6507  -51.1638 C.3       16 UNK         0.1400 
     91 CB         -2.8537  -29.0350  -51.8007 C.3       16 UNK        -0.1800 
     92 C          -4.1382  -26.8008  -51.9261 C.2       16 UNK         0.5000 
     93 O          -4.9087  -27.3375  -52.7250 O.2       16 UNK        -0.5000 
     94 N          -4.1505  -25.4919  -51.6542 N.am      17 UNK        -0.5000 
     95 CA         -5.0803  -24.5100  -52.2027 C.3       17 UNK         0.1400 
     96 CB         -4.2578  -23.4069  -52.8884 C.3       17 UNK        -0.1800 
     97 C          -5.9368  -23.9025  -51.0792 C.2       17 UNK         0.5000 
     98 O          -5.6153  -24.0432  -49.8966 O.2       17 UNK        -0.5000 
     99 N          -7.0033  -23.1976  -51.4745 N.am      18 UNK        -0.5000 
    100 CA        -7.7704  -22.3157  -50.5947 C.3       18 UNK         0.1400 
    101 CB        -9.1085  -21.9803  -51.2711 C.3       18 UNK        -0.1800 
    102 C         -6.9789  -21.0251  -50.3203 C.2       18 UNK         0.5000 
    103 O         -6.2166  -20.5896  -51.1865 O.2       18 UNK        -0.5000 
    104 N         -7.2022  -20.4040  -49.1550 N.am      19 UNK        -0.5000 
    105 CA        -6.5123  -19.1849  -48.7107 C.3       19 UNK         0.1400 
    106 CB        -6.9553  -18.8471  -47.2795 C.3       19 UNK        -0.1800 
    107 C         -6.7016  -17.9691  -49.6403 C.2       19 UNK         0.5000 
    108 O         -5.7994  -17.1386  -49.7454 O.2       19 UNK        -0.5000 
    109 N         -7.8575  -17.9023  -50.3138 N.am      20 UNK        -0.5000 
    110 CA        -8.1776  -16.8803  -51.3109 C.3       20 UNK         0.1400 
    111 CB        -9.7044  -16.8093  -51.4697 C.3       20 UNK        -0.1800 
    112 C         -7.5095  -17.1334  -52.6780 C.2       20 UNK         0.5000 
    113 O         -7.3515  -16.1870  -53.4503 O.2       20 UNK        -0.5000 
    114 N         -7.1521  -18.3926  -52.9649 N.am      21 UNK        -0.5000 
    115 CA        -6.5434  -18.8173  -54.2249 C.3       21 UNK         0.1400 
    116 CB        -7.0748  -20.2109  -54.5990 C.3       21 UNK        -0.1800 
    117 C         -5.0102  -18.8324  -54.1319 C.2       21 UNK         0.5000 
    118 O         -4.3409  -18.3663  -55.0546 O.2       21 UNK        -0.5000 
    119 N         -4.4848  -19.3815  -53.0295 N.am      22 UNK        -0.5000 
    120 CA        -3.0619  -19.5557  -52.6901 C.3       22 UNK         0.1400 
    121 C         -2.2656  -20.5362  -53.6039 C.2       22 UNK         0.5000 
    122 N         -2.5276  -20.5926  -54.9019 N.am      22 UNK        -0.7600 
    123 O         -1.4164  -21.2780  -53.1207 O.2       22 UNK        -0.5000 
    124 C124       -2.3313  -18.1983  -52.5074 C.3       23 UNK        -0.0398 
    125 S125       -0.9106  -18.2893  -51.3648 S.3       23 UNK        -0.2404 
    126 C126        0.4631  -18.3297  -52.5634 C.3       23 UNK        -0.0205 
    127 H127       -0.0970  -15.0333  -49.4243 H         1 UNK         0.0600 
    128 H128        0.6873  -16.5061  -48.8335 H         1 UNK         0.0600 
    129 H129        0.9056  -15.9907  -50.5101 H         1 UNK         0.0600 
    130 H130        3.2405  -16.1229  -50.0581 H         1 UNK         0.3000 
    131 H131        4.3804  -13.5957  -49.7366 H         1 UNK         0.0600 
    132 H132        6.5750  -14.7743  -50.0335 H         1 UNK         0.0800 
    133 H133        5.7825  -16.3126  -49.8096 H         1 UNK         0.0800 
    134 H134        6.3020  -17.4590  -51.9992 H         1 UNK         0.0800 
    135 H135        5.3700  -17.1642  -53.4413 H         1 UNK         0.0800 
    136 H136        2.7405  -16.9429  -53.1063 H         1 UNK         0.1150 
    137 H137        1.2513  -20.1272  -50.6501 H         1 UNK         0.1150 
    138 H138        5.3778  -18.9940  -50.4238 H         1 UNK         0.1150 
    139 H139        2.8795  -21.5833  -49.5378 H         1 UNK         0.0800 
    140 H140        4.5747  -21.2038  -49.5910 H         1 UNK         0.0800 
    141 H141        1.2747  -19.5435  -48.2313 H         1 UNK         0.0800 
    142 H142        1.6713  -19.2689  -46.5777 H         1 UNK         0.0800 
    143 H143        1.8693  -22.0820  -46.7322 H         1 UNK         0.0600 
    144 H144        0.2249  -20.2871  -45.3182 H         1 UNK         0.3000 
    145 H145       -1.8101  -22.7240  -43.6568 H         1 UNK         0.0600 
    146 H146       -0.9516  -21.4461  -41.7062 H         1 UNK         0.0600 
    147 H147        0.2619  -22.5604  -42.3183 H         1 UNK         0.0600 
    148 H148        0.3959  -20.8442  -42.6675 H         1 UNK         0.0600 
    149 H149       -1.7755  -19.8677  -43.5575 H         1 UNK         0.3000 
    150 H150       -4.0749  -19.3597  -46.2766 H         1 UNK         0.0600 
    151 H151       -5.4705  -19.8299  -44.2597 H         1 UNK         0.0600 
    152 H152       -5.2635  -18.1031  -44.5094 H         1 UNK         0.0600 
    153 H153       -4.3425  -18.9290  -43.2551 H         1 UNK         0.0600 
    154 H154       -2.7821  -17.4868  -44.5880 H         1 UNK         0.3000 
    155 H155        0.2623  -17.1893  -46.4848 H         1 UNK         0.0600 
    156 H156       -2.0542  -15.2704  -45.9043 H         1 UNK         0.0600 
    157 H157       -0.4296  -14.8347  -46.4317 H         1 UNK         0.0600 
    158 H158       -1.5048  -15.7082  -47.5148 H         1 UNK         0.0600 
    159 H159       -0.5650  -15.9256  -44.0849 H         1 UNK         0.3000 
    160 H160        0.5897  -18.4140  -41.7723 H         1 UNK         0.0600 
    161 H161        1.6288  -15.6351  -42.5234 H         1 UNK         0.0600 
    162 H162        2.5777  -17.0902  -42.2105 H         1 UNK         0.0600 
    163 H163        1.6993  -16.3241  -40.9014 H         1 UNK         0.0600 
    164 H164       -0.7340  -15.8434  -41.5714 H         1 UNK         0.3000 
    165 H165       -4.0187  -17.1662  -41.2912 H         1 UNK         0.0600 
    166 H166       -3.9141  -16.0359  -39.0875 H         1 UNK         0.0600 
    167 H167       -3.0327  -17.5539  -39.0297 H         1 UNK         0.0600 
    168 H168       -2.1509  -16.0350  -39.1375 H         1 UNK         0.0600 
    169 H169       -2.9258  -14.5346  -40.9595 H         1 UNK         0.3000 
    170 H170       -3.3458  -13.5477  -44.3824 H         1 UNK         0.0600 
    171 H171       -5.5389  -13.3552  -43.1863 H         1 UNK         0.0600 
    172 H172       -4.7075  -12.7566  -41.7556 H         1 UNK         0.0600 
    173 H173       -4.6865  -11.8219  -43.2509 H         1 UNK         0.0600 
    174 H174       -2.3742  -11.9351  -42.3754 H         1 UNK         0.3000 
    175 H175       -0.2706  -11.1558  -42.6767 H         1 UNK         0.0600 
    176 H176        1.2956  -13.4894  -41.4118 H         1 UNK         0.0600 
    177 H177        1.6237  -11.7794  -41.1493 H         1 UNK         0.0600 
    178 H178        0.1178  -12.4820  -40.5767 H         1 UNK         0.0600 
    179 H179        1.1719  -13.0954  -44.3030 H         1 UNK         0.3000 
    180 H180        1.9656  -11.2589  -46.4032 H         1 UNK         0.0600 
    181 H181        4.5484  -10.5177  -44.9390 H         1 UNK         0.0600 
    182 H182        3.4795   -9.4212  -45.8025 H         1 UNK         0.0600 
    183 H183        4.3742  -10.6437  -46.6889 H         1 UNK         0.0600 
    184 H184        2.7870  -13.2784  -46.6013 H         1 UNK         0.3000 
    185 H185        5.5174  -14.9775  -45.2503 H         1 UNK         0.0600 
    186 H186        3.8927  -15.9347  -43.6781 H         1 UNK         0.0600 
    187 H187        2.6239  -15.9273  -44.9044 H         1 UNK         0.0600 
    188 H188        4.0264  -16.9849  -45.0782 H         1 UNK         0.0600 
    189 H189        3.5375  -15.6818  -47.2160 H         1 UNK         0.3000 
    190 H190       -1.2513  -20.6049  -47.6819 H         1 UNK         0.3000 
    191 H191       -1.5684  -21.8635  -50.1827 H         1 UNK         0.0600 
    192 H192       -3.7183  -21.0096  -48.1723 H         1 UNK         0.0600 
    193 H193       -3.9606  -21.3028  -49.8846 H         1 UNK         0.0600 
    194 H194       -2.9575  -19.9530  -49.3572 H         1 UNK         0.0600 
    195 H195       -2.6489  -22.9524  -46.9128 H         1 UNK         0.3000 
    196 H196       -3.8572  -25.3654  -47.7200 H         1 UNK         0.0600 
    197 H197       -3.6451  -25.9951  -45.3171 H         1 UNK         0.0600 
    198 H198       -4.2054  -24.3388  -45.4913 H         1 UNK         0.0600 
    199 H199       -2.5302  -24.6618  -45.0491 H         1 UNK         0.0600 
    200 H200       -0.4488  -24.7181  -46.7815 H         1 UNK         0.3000 
    201 H201        0.5075  -27.3865  -47.0443 H         1 UNK         0.0600 
    202 H202        1.7511  -25.6052  -45.8473 H         1 UNK         0.0600 
    203 H203        1.9877  -24.7200  -47.3518 H         1 UNK         0.0600 
    204 H204        2.7455  -26.2907  -47.1239 H         1 UNK         0.0600 
    205 H205        0.0335  -24.8035  -49.4365 H         1 UNK         0.3000 
    206 H206        1.1792  -26.2868  -51.6673 H         1 UNK         0.0600 
    207 H207        1.2318  -23.7899  -51.5406 H         1 UNK         0.0600 
    208 H208        0.3842  -24.3421  -52.9765 H         1 UNK         0.0600 
    209 H209       -0.5274  -23.7418  -51.6012 H         1 UNK         0.0600 
    210 H210       -1.6504  -26.7220  -49.9576 H         1 UNK         0.3000 
    211 H211       -3.5287  -27.8229  -50.1767 H         1 UNK         0.0600 
    212 H212       -2.4892  -28.9533  -52.8249 H         1 UNK         0.0600 
    213 H213       -3.7737  -29.6199  -51.8283 H         1 UNK         0.0600 
    214 H214       -2.1239  -29.6082  -51.2287 H         1 UNK         0.0600 
    215 H215       -3.5130  -25.1261  -50.9476 H         1 UNK         0.3000 
    216 H216       -5.7466  -24.9685  -52.9359 H         1 UNK         0.0600 
    217 H217       -4.8995  -22.6503  -53.3412 H         1 UNK         0.0600 
    218 H218       -3.6298  -23.8159  -53.6801 H         1 UNK         0.0600 
    219 H219       -3.6051  -22.8993  -52.1768 H         1 UNK         0.0600 
    220 H220       -7.1882  -23.1082  -52.4623 H         1 UNK         0.3000 
    221 H221       -7.9653  -22.8275  -49.6499 H         1 UNK         0.0600 
    222 H222       -8.9644  -21.4531  -52.2153 H         1 UNK         0.0600 
    223 H223       -9.6827  -22.8839  -51.4767 H         1 UNK         0.0600 
    224 H224       -9.7232  -21.3457  -50.6315 H         1 UNK         0.0600 
    225 H225       -7.8576  -20.8096  -48.5023 H         1 UNK         0.3000 
    226 H226       -5.4439  -19.3995  -48.6882 H         1 UNK         0.0600 
    227 H227       -6.7377  -19.6673  -46.5953 H         1 UNK         0.0600 
    228 H228       -6.4314  -17.9660  -46.9059 H         1 UNK         0.0600 
    229 H229       -8.0248  -18.6402  -47.2276 H         1 UNK         0.0600 
    230 H230       -8.5491  -18.6203  -50.1567 H         1 UNK         0.3000 
    231 H231       -7.8285  -15.9115  -50.9468 H         1 UNK         0.0600 
    232 H232       -9.9876  -16.0361  -52.1853 H         1 UNK         0.0600 
    233 H233      -10.1887  -16.5669  -50.5236 H         1 UNK         0.0600 
    234 H234      -10.1168  -17.7538  -51.8269 H         1 UNK         0.0600 
    235 H235       -7.2342  -19.0984  -52.2450 H         1 UNK         0.3000 
    236 H236       -6.8250  -18.1288  -55.0246 H         1 UNK         0.0600 
    237 H237       -8.1582  -20.1987  -54.7187 H         1 UNK         0.0600 
    238 H238       -6.6473  -20.5505  -55.5433 H         1 UNK         0.0600 
    239 H239       -6.8312  -20.9571  -53.8425 H         1 UNK         0.0600 
    240 H240       -5.1300  -19.7811  -52.3501 H         1 UNK         0.3000 
    241 H241       -3.0950  -20.0388  -51.7163 H         1 UNK         0.0600 
    242 H242       -3.1923  -19.9386  -55.2994 H         1 UNK         0.3800 
    243 H243       -2.0228  -21.2342  -55.4917 H         1 UNK         0.3800 
    244 H244       -2.0277  -17.7816  -53.4691 H         1 UNK         0.0800 
    245 H245       -3.0196  -17.4693  -52.0771 H         1 UNK         0.0800 
    246 H246        0.3191  -19.1576  -53.2576 H         1 UNK         0.0800 
    247 H247        0.4286  -17.4154  -53.1579 H         1 UNK         0.0800 
@<TRIPOS>BOND
     1    1    2 1    
     2    1  127 1    
     3    1  128 1    
     4    1  129 1    
     5    2    3 2    
     6    2    4 am   BACKBONE|DICT|INTERRES
     7    4    5 1    
     8    4  130 1    
     9    5    6 1    
    10    5   65 1    
    11    5  131 1    
    12    6    7 1    
    13    6  132 1    
    14    6  133 1    
    15    7    8 1    
    16    8    9 1    
    17    8  134 1    
    18    8  135 1    
    19    9   10 ar   
    20    9   14 ar   
    21   10   11 ar   
    22   10  136 1    
    23   11   12 ar   
    24   11  126 1    
    25   12   13 ar   
    26   12  137 1    
    27   13   14 ar   
    28   13   15 1    
    29   14  138 1    
    30   15   16 1    
    31   15  139 1    
    32   15  140 1    
    33   16   17 1    
    34   17   18 1    
    35   17  141 1    
    36   17  142 1    
    37   18   19 1    
    38   18   67 1    
    39   18  143 1    
    40   19   20 am   BACKBONE|DICT|INTERRES
    41   19  144 1    
    42   20   21 2    
    43   20   22 1    
    44   22   23 1    
    45   22   24 1    
    46   22  145 1    
    47   23  146 1    
    48   23  147 1    
    49   23  148 1    
    50   24   25 am   BACKBONE|DICT|INTERRES
    51   24  149 1    
    52   25   26 2    
    53   25   27 1    
    54   27   28 1    
    55   27   29 1    
    56   27  150 1    
    57   28  151 1    
    58   28  152 1    
    59   28  153 1    
    60   29   30 am   BACKBONE|DICT|INTERRES
    61   29  154 1    
    62   30   31 2    
    63   30   32 1    
    64   32   33 1    
    65   32   34 1    
    66   32  155 1    
    67   33  156 1    
    68   33  157 1    
    69   33  158 1    
    70   34   35 am   BACKBONE|DICT|INTERRES
    71   34  159 1    
    72   35   36 2    
    73   35   37 1    
    74   37   38 1    
    75   37   39 1    
    76   37  160 1    
    77   38  161 1    
    78   38  162 1    
    79   38  163 1    
    80   39   40 am   BACKBONE|DICT|INTERRES
    81   39  164 1    
    82   40   41 2    
    83   40   42 1    
    84   42   43 1    
    85   42   44 1    
    86   42  165 1    
    87   43  166 1    
    88   43  167 1    
    89   43  168 1    
    90   44   45 am   BACKBONE|DICT|INTERRES
    91   44  169 1    
    92   45   46 2    
    93   45   47 1    
    94   47   48 1    
    95   47   49 1    
    96   47  170 1    
    97   48  171 1    
    98   48  172 1    
    99   48  173 1    
   100   49   50 am   BACKBONE|DICT|INTERRES
   101   49  174 1    
   102   50   51 2    
   103   50   52 1    
   104   52   53 1    
   105   52   54 1    
   106   52  175 1    
   107   53  176 1    
   108   53  177 1    
   109   53  178 1    
   110   54   55 am   BACKBONE|DICT|INTERRES
   111   54  179 1    
   112   55   56 2    
   113   55   57 1    
   114   57   58 1    
   115   57   59 1    
   116   57  180 1    
   117   58  181 1    
   118   58  182 1    
   119   58  183 1    
   120   59   60 am   BACKBONE|DICT|INTERRES
   121   59  184 1    
   122   60   61 2    
   123   60   62 1    
   124   62   63 1    
   125   62   64 1    
   126   62  185 1    
   127   63  186 1    
   128   63  187 1    
   129   63  188 1    
   130   64   65 am   BACKBONE|DICT|INTERRES
   131   64  189 1    
   132   65   66 2    
   133   67   68 2    
   134   67   69 am   BACKBONE|DICT|INTERRES
   135   69   70 1    
   136   69  190 1    
   137   70   71 1    
   138   70   72 1    
   139   70  191 1    
   140   71  192 1    
   141   71  193 1    
   142   71  194 1    
   143   72   73 2    
   144   72   74 am   BACKBONE|DICT|INTERRES
   145   74   75 1    
   146   74  195 1    
   147   75   76 1    
   148   75   77 1    
   149   75  196 1    
   150   76  197 1    
   151   76  198 1    
   152   76  199 1    
   153   77   78 2    
   154   77   79 am   BACKBONE|DICT|INTERRES
   155   79   80 1    
   156   79  200 1    
   157   80   81 1    
   158   80   82 1    
   159   80  201 1    
   160   81  202 1    
   161   81  203 1    
   162   81  204 1    
   163   82   83 2    
   164   82   84 am   BACKBONE|DICT|INTERRES
   165   84   85 1    
   166   84  205 1    
   167   85   86 1    
   168   85   87 1    
   169   85  206 1    
   170   86  207 1    
   171   86  208 1    
   172   86  209 1    
   173   87   88 2    
   174   87   89 am   BACKBONE|DICT|INTERRES
   175   89   90 1    
   176   89  210 1    
   177   90   91 1    
   178   90   92 1    
   179   90  211 1    
   180   91  212 1    
   181   91  213 1    
   182   91  214 1    
   183   92   93 2    
   184   92   94 am   BACKBONE|DICT|INTERRES
   185   94   95 1    
   186   94  215 1    
   187   95   96 1    
   188   95   97 1    
   189   95  216 1    
   190   96  217 1    
   191   96  218 1    
   192   96  219 1    
   193   97   98 2    
   194   97   99 am   BACKBONE|DICT|INTERRES
   195   99  100 1    
   196   99  220 1    
   197  100  101 1    
   198  100  102 1    
   199  100  221 1    
   200  101  222 1    
   201  101  223 1    
   202  101  224 1    
   203  102  103 2    
   204  102  104 am   BACKBONE|DICT|INTERRES
   205  104  105 1    
   206  104  225 1    
   207  105  106 1    
   208  105  107 1    
   209  105  226 1    
   210  106  227 1    
   211  106  228 1    
   212  106  229 1    
   213  107  108 2    
   214  107  109 am   BACKBONE|DICT|INTERRES
   215  109  110 1    
   216  109  230 1    
   217  110  111 1    
   218  110  112 1    
   219  110  231 1    
   220  111  232 1    
   221  111  233 1    
   222  111  234 1    
   223  112  113 2    
   224  112  114 am   BACKBONE|DICT|INTERRES
   225  114  115 1    
   226  114  235 1    
   227  115  116 1    
   228  115  117 1    
   229  115  236 1    
   230  116  237 1    
   231  116  238 1    
   232  116  239 1    
   233  117  118 2    
   234  117  119 am   BACKBONE|DICT|INTERRES
   235  119  120 1    
   236  119  240 1    
   237  120  121 1    
   238  120  124 1    
   239  120  241 1    
   240  121  122 am   BACKBONE|DICT|INTERRES
   241  121  123 2    
   242  122  242 1    
   243  122  243 1    
   244  124  125 1    
   245  124  244 1    
   246  124  245 1    
   247  125  126 1    
   248  126  246 1    
   249  126  247 1    
@<TRIPOS>SUBSTRUCTURE
     1 UNK         1 GROUP             0       ****    0 ROOT    
