@<TRIPOS>MOLECULE
3R540
247   249    1
SMALL
USER_CHARGES


@<TRIPOS>ATOM
      1 CA          4.1904  -16.8217  -42.9710 C.3       0 UNK        -0.1800 
      2 C           4.2870  -15.3987  -43.5024 C.2       0 UNK         0.5000 
      3 O           5.2634  -14.7049  -43.2199 O.2       0 UNK        -0.5000 
      4 N           3.2772  -14.9709  -44.2712 N.am      1 UNK        -0.5000 
      5 CA          3.1648  -13.6530  -44.9101 C.3       1 UNK         0.1400 
      6 C6          4.2033  -13.4135  -46.0400 C.3       23 UNK        -0.0398 
      7 S7          3.7470  -14.3552  -47.5266 S.3       23 UNK        -0.2404 
      8 C8          4.9688  -15.7019  -47.5388 C.3       23 UNK        -0.0205 
      9 C9          4.6166  -16.7948  -48.5438 C.ar      23 UNK        -0.0193 
     10 C10         4.1520  -16.4809  -49.8262 C.ar      23 UNK        -0.1150 
     11 C11         3.8260  -17.4832  -50.7436 C.ar      23 UNK        -0.0193 
     12 C12         3.9985  -18.8242  -50.3727 C.ar      23 UNK        -0.1150 
     13 C13         4.4734  -19.1544  -49.0989 C.ar      23 UNK        -0.0193 
     14 C14         4.7761  -18.1362  -48.1911 C.ar      23 UNK        -0.1150 
     15 C15         4.7001  -20.6045  -48.6990 C.3       23 UNK        -0.0205 
     16 S16         3.4227  -21.1944  -47.5441 S.3       23 UNK        -0.2404 
     17 C17         2.0986  -21.7269  -48.6793 C.3       23 UNK        -0.0398 
     18 CA          1.3041  -22.9220  -48.1033 C.3       11 UNK         0.1400 
     19 N           0.6375  -22.5825  -46.8445 N.am      11 UNK        -0.5000 
     20 C           0.1617  -23.4774  -45.9695 C.2       10 UNK         0.5000 
     21 O           0.2467  -24.6958  -46.1241 O.2       10 UNK        -0.5000 
     22 CA         -0.5578  -22.9141  -44.7285 C.3       10 UNK         0.1400 
     23 CB          0.4342  -22.7390  -43.5693 C.3       10 UNK        -0.1800 
     24 N          -1.2395  -21.6396  -44.9716 N.am      10 UNK        -0.5000 
     25 C          -2.2496  -21.4601  -45.8346 C.2       9 UNK         0.5000 
     26 O          -2.7020  -22.3499  -46.5522 O.2       9 UNK        -0.5000 
     27 CA         -2.7994  -20.0310  -45.9619 C.3       9 UNK         0.1400 
     28 CB         -3.8168  -19.7373  -44.8507 C.3       9 UNK        -0.1800 
     29 N          -1.7488  -19.0121  -45.9413 N.am      9 UNK        -0.5000 
     30 C          -0.7694  -18.8838  -46.8448 C.2       8 UNK         0.5000 
     31 O          -0.6292  -19.6559  -47.7970 O.2       8 UNK        -0.5000 
     32 CA          0.1867  -17.6827  -46.6651 C.3       8 UNK         0.1400 
     33 CB          1.1229  -17.4938  -47.8702 C.3       8 UNK        -0.1800 
     34 N          -0.5240  -16.4230  -46.4101 N.am      8 UNK        -0.5000 
     35 C          -1.0500  -16.0553  -45.2316 C.2       7 UNK         0.5000 
     36 O          -1.0031  -16.7718  -44.2312 O.2       7 UNK        -0.5000 
     37 CA         -1.7530  -14.6878  -45.1318 C.3       7 UNK         0.1400 
     38 CB         -0.9899  -13.7548  -44.1798 C.3       7 UNK        -0.1800 
     39 N          -1.9040  -14.0253  -46.4275 N.am      7 UNK        -0.5000 
     40 C          -2.9761  -14.1526  -47.2231 C.2       6 UNK         0.5000 
     41 O          -3.9647  -14.8228  -46.9251 O.2       6 UNK        -0.5000 
     42 CA         -2.9534  -13.4165  -48.5805 C.3       6 UNK         0.1400 
     43 CB         -3.7576  -12.1107  -48.4920 C.3       6 UNK        -0.1800 
     44 N          -1.6082  -13.1055  -49.0649 N.am      6 UNK        -0.5000 
     45 C          -0.6778  -14.0095  -49.3997 C.2       5 UNK         0.5000 
     46 O          -0.8829  -15.2210  -49.4150 O.2       5 UNK        -0.5000 
     47 CA          0.7368  -13.4838  -49.7128 C.3       5 UNK         0.1400 
     48 CB          0.9754  -13.4447  -51.2293 C.3       5 UNK        -0.1800 
     49 N           1.0554  -12.1688  -49.1377 N.am      5 UNK        -0.5000 
     50 C           1.0076  -11.8537  -47.8348 C.2       4 UNK         0.5000 
     51 O           0.6089  -12.6350  -46.9682 O.2       4 UNK        -0.5000 
     52 CA          1.5024  -10.4471  -47.4321 C.3       4 UNK         0.1400 
     53 CB          1.1119   -9.3520  -48.4493 C.3       4 UNK        -0.1800 
     54 N           1.0874  -10.0745  -46.0735 N.am      4 UNK        -0.5000 
     55 C          -0.1656   -9.8929  -45.6263 C.2       3 UNK         0.5000 
     56 O          -1.1703   -9.9546  -46.3371 O.2       3 UNK        -0.5000 
     57 CA         -0.2981   -9.6444  -44.1139 C.3       3 UNK         0.1400 
     58 CB         -1.7567   -9.6183  -43.6186 C.3       3 UNK        -0.1800 
     59 N           0.4501  -10.6786  -43.4041 N.am      3 UNK        -0.5000 
     60 C           1.1774  -10.5030  -42.2947 C.2       2 UNK         0.5000 
     61 O           1.2487   -9.4353  -41.6852 O.2       2 UNK        -0.5000 
     62 CA          1.9762  -11.7235  -41.7859 C.3       2 UNK         0.1400 
     63 CB          1.2153  -12.4239  -40.6498 C.3       2 UNK        -0.1800 
     64 N           2.2847  -12.7124  -42.8257 N.am      2 UNK        -0.5000 
     65 C           3.0657  -12.4933  -43.8942 C.2       1 UNK         0.5000 
     66 O           3.6409  -11.4239  -44.1035 O.2       1 UNK        -0.5000 
     67 C           0.3029  -23.4747  -49.1372 C.2       11 UNK         0.5000 
     68 O           0.6531  -24.3826  -49.8908 O.2       11 UNK        -0.5000 
     69 N          -0.9292  -22.9466  -49.1340 N.am      12 UNK        -0.5000 
     70 CA         -2.0167  -23.4178  -49.9910 C.3       12 UNK         0.1400 
     71 CB         -2.9932  -22.2692  -50.2458 C.3       12 UNK        -0.1800 
     72 C          -2.7456  -24.6345  -49.3958 C.2       12 UNK         0.5000 
     73 O          -3.2744  -25.4512  -50.1502 O.2       12 UNK        -0.5000 
     74 N          -2.7452  -24.7664  -48.0611 N.am      13 UNK        -0.5000 
     75 CA         -3.3120  -25.8999  -47.3238 C.3       13 UNK         0.1400 
     76 CB         -3.2328  -25.6317  -45.8143 C.3       13 UNK        -0.1800 
     77 C          -2.6415  -27.2428  -47.6648 C.2       13 UNK         0.5000 
     78 O          -3.3132  -28.2734  -47.6461 O.2       13 UNK        -0.5000 
     79 N          -1.3575  -27.2004  -48.0474 N.am      14 UNK        -0.5000 
     80 CA         -0.5972  -28.3351  -48.5782 C.3       14 UNK         0.1400 
     81 CB          0.8727  -27.9172  -48.7324 C.3       14 UNK        -0.1800 
     82 C          -1.1487  -28.8787  -49.9153 C.2       14 UNK         0.5000 
     83 O          -0.9409  -30.0534  -50.2199 O.2       14 UNK        -0.5000 
     84 N          -1.8584  -28.0287  -50.6703 N.am      15 UNK        -0.5000 
     85 CA         -2.5703  -28.3666  -51.9038 C.3       15 UNK         0.1400 
     86 CB         -2.2576  -27.2856  -52.9534 C.3       15 UNK        -0.1800 
     87 C          -4.0927  -28.4898  -51.6739 C.2       15 UNK         0.5000 
     88 O          -4.8360  -28.6235  -52.6468 O.2       15 UNK        -0.5000 
     89 N          -4.5323  -28.4288  -50.4054 N.am      16 UNK        -0.5000 
     90 CA         -5.9217  -28.4400  -49.9325 C.3       16 UNK         0.1400 
     91 CB         -6.5916  -29.7986  -50.2268 C.3       16 UNK        -0.1800 
     92 C          -6.7516  -27.2347  -50.4290 C.2       16 UNK         0.5000 
     93 O          -7.9625  -27.3597  -50.6204 O.2       16 UNK        -0.5000 
     94 N          -6.0899  -26.0857  -50.6179 N.am      17 UNK        -0.5000 
     95 CA         -6.6658  -24.8510  -51.1522 C.3       17 UNK         0.1400 
     96 CB         -6.0539  -24.5895  -52.5410 C.3       17 UNK        -0.1800 
     97 C          -6.4359  -23.6746  -50.1860 C.2       17 UNK         0.5000 
     98 O          -6.2381  -22.5471  -50.6373 O.2       17 UNK        -0.5000 
     99 N          -6.4507  -23.9556  -48.8732 N.am      18 UNK        -0.5000 
    100 CA        -6.0573  -23.0672  -47.7683 C.3       18 UNK         0.1400 
    101 CB        -6.4341  -23.7336  -46.4363 C.3       18 UNK        -0.1800 
    102 C         -6.6244  -21.6340  -47.8102 C.2       18 UNK         0.5000 
    103 O         -5.9274  -20.6948  -47.4282 O.2       18 UNK        -0.5000 
    104 N         -7.8663  -21.4925  -48.2902 N.am      19 UNK        -0.5000 
    105 CA        -8.5668  -20.2164  -48.4339 C.3       19 UNK         0.1400 
    106 CB       -10.0535  -20.4983  -48.7014 C.3       19 UNK        -0.1800 
    107 C         -7.9903  -19.2939  -49.5285 C.2       19 UNK         0.5000 
    108 O         -8.2095  -18.0838  -49.4581 O.2       19 UNK        -0.5000 
    109 N         -7.2894  -19.8593  -50.5230 N.am      20 UNK        -0.5000 
    110 CA        -6.6907  -19.1076  -51.6284 C.3       20 UNK         0.1400 
    111 CB        -6.4139  -20.0551  -52.8070 C.3       20 UNK        -0.1800 
    112 C         -5.4042  -18.3744  -51.2084 C.2       20 UNK         0.5000 
    113 O         -5.2042  -17.2322  -51.6235 O.2       20 UNK        -0.5000 
    114 N         -4.5895  -19.0500  -50.3827 N.am      21 UNK        -0.5000 
    115 CA        -3.2710  -18.6611  -49.8662 C.3       21 UNK         0.1400 
    116 CB        -3.3518  -17.3508  -49.0659 C.3       21 UNK        -0.1800 
    117 C         -2.1619  -18.6186  -50.9435 C.2       21 UNK         0.5000 
    118 O         -2.4186  -18.2743  -52.0983 O.2       21 UNK        -0.5000 
    119 N         -0.9443  -18.9981  -50.5287 N.am      22 UNK        -0.5000 
    120 CA         0.2456  -19.2678  -51.3553 C.3       22 UNK         0.1400 
    121 C          0.1152  -20.5920  -52.1697 C.2       22 UNK         0.5000 
    122 N          1.1617  -21.4060  -52.2124 N.am      22 UNK        -0.7600 
    123 O         -0.9060  -20.8887  -52.7830 O.2       22 UNK        -0.5000 
    124 C124        0.6773  -18.0548  -52.2257 C.3       23 UNK        -0.0398 
    125 S125        2.3115  -18.2632  -53.0213 S.3       23 UNK        -0.2404 
    126 C126        3.3627  -17.0621  -52.1386 C.3       23 UNK        -0.0205 
    127 H127        4.2037  -16.8170  -41.8811 H         1 UNK         0.0600 
    128 H128        5.0381  -17.4106  -43.3213 H         1 UNK         0.0600 
    129 H129        3.2754  -17.3166  -43.2980 H         1 UNK         0.0600 
    130 H130        2.5159  -15.6052  -44.4656 H         1 UNK         0.3000 
    131 H131        2.1830  -13.6678  -45.3757 H         1 UNK         0.0600 
    132 H132        5.2165  -13.6564  -45.7187 H         1 UNK         0.0800 
    133 H133        4.2266  -12.3678  -46.3492 H         1 UNK         0.0800 
    134 H134        5.9521  -15.2966  -47.7801 H         1 UNK         0.0800 
    135 H135        5.0355  -16.1212  -46.5337 H         1 UNK         0.0800 
    136 H136        4.0457  -15.4449  -50.1153 H         1 UNK         0.1150 
    137 H137        3.7878  -19.6134  -51.0786 H         1 UNK         0.1150 
    138 H138        5.1438  -18.3941  -47.2077 H         1 UNK         0.1150 
    139 H139        4.7535  -21.2522  -49.5750 H         1 UNK         0.0800 
    140 H140        5.6716  -20.6865  -48.2093 H         1 UNK         0.0800 
    141 H141        2.5435  -22.0012  -49.6366 H         1 UNK         0.0800 
    142 H142        1.4432  -20.8780  -48.8697 H         1 UNK         0.0800 
    143 H143        2.0163  -23.7244  -47.8967 H         1 UNK         0.0600 
    144 H144        0.5140  -21.5988  -46.6530 H         1 UNK         0.3000 
    145 H145       -1.3128  -23.6411  -44.4244 H         1 UNK         0.0600 
    146 H146       -0.0740  -22.4200  -42.6591 H         1 UNK         0.0600 
    147 H147        0.9414  -23.6783  -43.3442 H         1 UNK         0.0600 
    148 H148        1.2012  -21.9998  -43.8039 H         1 UNK         0.0600 
    149 H149       -0.9217  -20.8454  -44.4359 H         1 UNK         0.3000 
    150 H150       -3.3169  -19.9620  -46.9194 H         1 UNK         0.0600 
    151 H151       -4.6162  -20.4798  -44.8488 H         1 UNK         0.0600 
    152 H152       -4.2829  -18.7623  -44.9944 H         1 UNK         0.0600 
    153 H153       -3.3536  -19.7474  -43.8634 H         1 UNK         0.0600 
    154 H154       -1.7722  -18.3392  -45.1821 H         1 UNK         0.3000 
    155 H155        0.8144  -17.9080  -45.8007 H         1 UNK         0.0600 
    156 H156        0.5710  -17.3107  -48.7912 H         1 UNK         0.0600 
    157 H157        1.7415  -18.3774  -48.0300 H         1 UNK         0.0600 
    158 H158        1.7967  -16.6525  -47.7150 H         1 UNK         0.0600 
    159 H159       -0.6495  -15.8129  -47.2078 H         1 UNK         0.3000 
    160 H160       -2.7376  -14.8673  -44.6951 H         1 UNK         0.0600 
    161 H161        0.0106  -13.5401  -44.5487 H         1 UNK         0.0600 
    162 H162       -0.8889  -14.1980  -43.1882 H         1 UNK         0.0600 
    163 H163       -1.5169  -12.8094  -44.0587 H         1 UNK         0.0600 
    164 H164       -1.1175  -13.4595  -46.7371 H         1 UNK         0.3000 
    165 H165       -3.4327  -14.0664  -49.3150 H         1 UNK         0.0600 
    166 H166       -3.8190  -11.6175  -49.4623 H         1 UNK         0.0600 
    167 H167       -4.7791  -12.3016  -48.1605 H         1 UNK         0.0600 
    168 H168       -3.3083  -11.4105  -47.7860 H         1 UNK         0.0600 
    169 H169       -1.3400  -12.1326  -49.0545 H         1 UNK         0.3000 
    170 H170        1.4338  -14.2055  -49.2846 H         1 UNK         0.0600 
    171 H171        0.7639  -14.4137  -51.6839 H         1 UNK         0.0600 
    172 H172        0.3377  -12.7066  -51.7172 H         1 UNK         0.0600 
    173 H173        2.0127  -13.2008  -51.4593 H         1 UNK         0.0600 
    174 H174        1.3873  -11.4716  -49.7878 H         1 UNK         0.3000 
    175 H175        2.5913  -10.5053  -47.4060 H         1 UNK         0.0600 
    176 H176        0.0383   -9.3356  -48.6398 H         1 UNK         0.0600 
    177 H177        1.4006   -8.3638  -48.0911 H         1 UNK         0.0600 
    178 H178        1.6134   -9.4995  -49.4061 H         1 UNK         0.0600 
    179 H179        1.8343  -10.0362  -45.3929 H         1 UNK         0.3000 
    180 H180        0.1481   -8.6668  -43.9202 H         1 UNK         0.0600 
    181 H181       -2.2687  -10.5598  -43.8175 H         1 UNK         0.0600 
    182 H182       -2.3217   -8.8265  -44.1118 H         1 UNK         0.0600 
    183 H183       -1.8051   -9.4308  -42.5459 H         1 UNK         0.0600 
    184 H184        0.4661  -11.5852  -43.8476 H         1 UNK         0.3000 
    185 H185        2.9223  -11.3512  -41.3874 H         1 UNK         0.0600 
    186 H186        0.9933  -11.7274  -39.8402 H         1 UNK         0.0600 
    187 H187        0.2671  -12.8375  -40.9960 H         1 UNK         0.0600 
    188 H188        1.8024  -13.2378  -40.2238 H         1 UNK         0.0600 
    189 H189        1.8732  -13.6271  -42.7117 H         1 UNK         0.3000 
    190 H190       -1.1535  -22.2277  -48.4595 H         1 UNK         0.3000 
    191 H191       -1.6049  -23.7188  -50.9570 H         1 UNK         0.0600 
    192 H192       -2.4726  -21.4099  -50.6572 H         1 UNK         0.0600 
    193 H193       -3.7373  -22.5619  -50.9844 H         1 UNK         0.0600 
    194 H194       -3.5095  -21.9543  -49.3391 H         1 UNK         0.0600 
    195 H195       -2.3869  -23.9989  -47.5014 H         1 UNK         0.3000 
    196 H196       -4.3633  -25.9787  -47.6056 H         1 UNK         0.0600 
    197 H197       -3.7636  -26.4035  -45.2557 H         1 UNK         0.0600 
    198 H198       -3.6818  -24.6744  -45.5513 H         1 UNK         0.0600 
    199 H199       -2.2020  -25.6277  -45.4619 H         1 UNK         0.0600 
    200 H200       -0.8789  -26.3108  -48.0113 H         1 UNK         0.3000 
    201 H201       -0.6502  -29.1443  -47.8471 H         1 UNK         0.0600 
    202 H202        1.2895  -27.5795  -47.7832 H         1 UNK         0.0600 
    203 H203        0.9860  -27.1083  -49.4551 H         1 UNK         0.0600 
    204 H204        1.4828  -28.7531  -49.0768 H         1 UNK         0.0600 
    205 H205       -2.0088  -27.0847  -50.3341 H         1 UNK         0.3000 
    206 H206       -2.2239  -29.3267  -52.2908 H         1 UNK         0.0600 
    207 H207       -1.1836  -27.1920  -53.1146 H         1 UNK         0.0600 
    208 H208       -2.7084  -27.5296  -53.9161 H         1 UNK         0.0600 
    209 H209       -2.6376  -26.3087  -52.6523 H         1 UNK         0.0600 
    210 H210       -3.8389  -28.3469  -49.6718 H         1 UNK         0.3000 
    211 H211       -5.8686  -28.3343  -48.8483 H         1 UNK         0.0600 
    212 H212       -6.7489  -29.9513  -51.2948 H         1 UNK         0.0600 
    213 H213       -7.5653  -29.8686  -49.7406 H         1 UNK         0.0600 
    214 H214       -5.9858  -30.6249  -49.8549 H         1 UNK         0.0600 
    215 H215       -5.0899  -26.0543  -50.4345 H         1 UNK         0.3000 
    216 H216       -7.7468  -24.9453  -51.2692 H         1 UNK         0.0600 
    217 H217       -6.4914  -23.7058  -53.0073 H         1 UNK         0.0600 
    218 H218       -6.2299  -25.4305  -53.2121 H         1 UNK         0.0600 
    219 H219       -4.9762  -24.4325  -52.4790 H         1 UNK         0.0600 
    220 H220       -6.6583  -24.9089  -48.6161 H         1 UNK         0.3000 
    221 H221       -4.9718  -22.9825  -47.8053 H         1 UNK         0.0600 
    222 H222       -7.5154  -23.8225  -46.3247 H         1 UNK         0.0600 
    223 H223       -6.0105  -24.7330  -46.3513 H         1 UNK         0.0600 
    224 H224       -6.0624  -23.1515  -45.5917 H         1 UNK         0.0600 
    225 H225       -8.3559  -22.3184  -48.6011 H         1 UNK         0.3000 
    226 H226       -8.4879  -19.6813  -47.4852 H         1 UNK         0.0600 
    227 H227      -10.4977  -21.0781  -47.8920 H         1 UNK         0.0600 
    228 H228      -10.6199  -19.5696  -48.7821 H         1 UNK         0.0600 
    229 H229      -10.1965  -21.0517  -49.6304 H         1 UNK         0.0600 
    230 H230       -7.1083  -20.8597  -50.5029 H         1 UNK         0.3000 
    231 H231       -7.4100  -18.3585  -51.9668 H         1 UNK         0.0600 
    232 H232       -7.3189  -20.5781  -53.1161 H         1 UNK         0.0600 
    233 H233       -5.6618  -20.8044  -52.5576 H         1 UNK         0.0600 
    234 H234       -6.0454  -19.5008  -53.6709 H         1 UNK         0.0600 
    235 H235       -4.8942  -19.9759  -50.1180 H         1 UNK         0.3000 
    236 H236       -3.0052  -19.4517  -49.1653 H         1 UNK         0.0600 
    237 H237       -2.4160  -17.1578  -48.5449 H         1 UNK         0.0600 
    238 H238       -3.5443  -16.4926  -49.7091 H         1 UNK         0.0600 
    239 H239       -4.1376  -17.3934  -48.3116 H         1 UNK         0.0600 
    240 H240       -0.8386  -19.2580  -49.5503 H         1 UNK         0.3000 
    241 H241        1.0413  -19.4195  -50.6264 H         1 UNK         0.0600 
    242 H242        1.0866  -22.2577  -52.7458 H         1 UNK         0.3800 
    243 H243        2.0466  -21.1540  -51.8067 H         1 UNK         0.3800 
    244 H244        0.6895  -17.1518  -51.6135 H         1 UNK         0.0800 
    245 H245       -0.0500  -17.8714  -53.0169 H         1 UNK         0.0800 
    246 H246        2.8360  -16.1076  -52.0907 H         1 UNK         0.0800 
    247 H247        4.2527  -16.8868  -52.7438 H         1 UNK         0.0800 
@<TRIPOS>BOND
     1    1    2 1    
     2    1  127 1    
     3    1  128 1    
     4    1  129 1    
     5    2    3 2    
     6    2    4 am   BACKBONE|DICT|INTERRES
     7    4    5 1    
     8    4  130 1    
     9    5    6 1    
    10    5   65 1    
    11    5  131 1    
    12    6    7 1    
    13    6  132 1    
    14    6  133 1    
    15    7    8 1    
    16    8    9 1    
    17    8  134 1    
    18    8  135 1    
    19    9   10 ar   
    20    9   14 ar   
    21   10   11 ar   
    22   10  136 1    
    23   11   12 ar   
    24   11  126 1    
    25   12   13 ar   
    26   12  137 1    
    27   13   14 ar   
    28   13   15 1    
    29   14  138 1    
    30   15   16 1    
    31   15  139 1    
    32   15  140 1    
    33   16   17 1    
    34   17   18 1    
    35   17  141 1    
    36   17  142 1    
    37   18   19 1    
    38   18   67 1    
    39   18  143 1    
    40   19   20 am   BACKBONE|DICT|INTERRES
    41   19  144 1    
    42   20   21 2    
    43   20   22 1    
    44   22   23 1    
    45   22   24 1    
    46   22  145 1    
    47   23  146 1    
    48   23  147 1    
    49   23  148 1    
    50   24   25 am   BACKBONE|DICT|INTERRES
    51   24  149 1    
    52   25   26 2    
    53   25   27 1    
    54   27   28 1    
    55   27   29 1    
    56   27  150 1    
    57   28  151 1    
    58   28  152 1    
    59   28  153 1    
    60   29   30 am   BACKBONE|DICT|INTERRES
    61   29  154 1    
    62   30   31 2    
    63   30   32 1    
    64   32   33 1    
    65   32   34 1    
    66   32  155 1    
    67   33  156 1    
    68   33  157 1    
    69   33  158 1    
    70   34   35 am   BACKBONE|DICT|INTERRES
    71   34  159 1    
    72   35   36 2    
    73   35   37 1    
    74   37   38 1    
    75   37   39 1    
    76   37  160 1    
    77   38  161 1    
    78   38  162 1    
    79   38  163 1    
    80   39   40 am   BACKBONE|DICT|INTERRES
    81   39  164 1    
    82   40   41 2    
    83   40   42 1    
    84   42   43 1    
    85   42   44 1    
    86   42  165 1    
    87   43  166 1    
    88   43  167 1    
    89   43  168 1    
    90   44   45 am   BACKBONE|DICT|INTERRES
    91   44  169 1    
    92   45   46 2    
    93   45   47 1    
    94   47   48 1    
    95   47   49 1    
    96   47  170 1    
    97   48  171 1    
    98   48  172 1    
    99   48  173 1    
   100   49   50 am   BACKBONE|DICT|INTERRES
   101   49  174 1    
   102   50   51 2    
   103   50   52 1    
   104   52   53 1    
   105   52   54 1    
   106   52  175 1    
   107   53  176 1    
   108   53  177 1    
   109   53  178 1    
   110   54   55 am   BACKBONE|DICT|INTERRES
   111   54  179 1    
   112   55   56 2    
   113   55   57 1    
   114   57   58 1    
   115   57   59 1    
   116   57  180 1    
   117   58  181 1    
   118   58  182 1    
   119   58  183 1    
   120   59   60 am   BACKBONE|DICT|INTERRES
   121   59  184 1    
   122   60   61 2    
   123   60   62 1    
   124   62   63 1    
   125   62   64 1    
   126   62  185 1    
   127   63  186 1    
   128   63  187 1    
   129   63  188 1    
   130   64   65 am   BACKBONE|DICT|INTERRES
   131   64  189 1    
   132   65   66 2    
   133   67   68 2    
   134   67   69 am   BACKBONE|DICT|INTERRES
   135   69   70 1    
   136   69  190 1    
   137   70   71 1    
   138   70   72 1    
   139   70  191 1    
   140   71  192 1    
   141   71  193 1    
   142   71  194 1    
   143   72   73 2    
   144   72   74 am   BACKBONE|DICT|INTERRES
   145   74   75 1    
   146   74  195 1    
   147   75   76 1    
   148   75   77 1    
   149   75  196 1    
   150   76  197 1    
   151   76  198 1    
   152   76  199 1    
   153   77   78 2    
   154   77   79 am   BACKBONE|DICT|INTERRES
   155   79   80 1    
   156   79  200 1    
   157   80   81 1    
   158   80   82 1    
   159   80  201 1    
   160   81  202 1    
   161   81  203 1    
   162   81  204 1    
   163   82   83 2    
   164   82   84 am   BACKBONE|DICT|INTERRES
   165   84   85 1    
   166   84  205 1    
   167   85   86 1    
   168   85   87 1    
   169   85  206 1    
   170   86  207 1    
   171   86  208 1    
   172   86  209 1    
   173   87   88 2    
   174   87   89 am   BACKBONE|DICT|INTERRES
   175   89   90 1    
   176   89  210 1    
   177   90   91 1    
   178   90   92 1    
   179   90  211 1    
   180   91  212 1    
   181   91  213 1    
   182   91  214 1    
   183   92   93 2    
   184   92   94 am   BACKBONE|DICT|INTERRES
   185   94   95 1    
   186   94  215 1    
   187   95   96 1    
   188   95   97 1    
   189   95  216 1    
   190   96  217 1    
   191   96  218 1    
   192   96  219 1    
   193   97   98 2    
   194   97   99 am   BACKBONE|DICT|INTERRES
   195   99  100 1    
   196   99  220 1    
   197  100  101 1    
   198  100  102 1    
   199  100  221 1    
   200  101  222 1    
   201  101  223 1    
   202  101  224 1    
   203  102  103 2    
   204  102  104 am   BACKBONE|DICT|INTERRES
   205  104  105 1    
   206  104  225 1    
   207  105  106 1    
   208  105  107 1    
   209  105  226 1    
   210  106  227 1    
   211  106  228 1    
   212  106  229 1    
   213  107  108 2    
   214  107  109 am   BACKBONE|DICT|INTERRES
   215  109  110 1    
   216  109  230 1    
   217  110  111 1    
   218  110  112 1    
   219  110  231 1    
   220  111  232 1    
   221  111  233 1    
   222  111  234 1    
   223  112  113 2    
   224  112  114 am   BACKBONE|DICT|INTERRES
   225  114  115 1    
   226  114  235 1    
   227  115  116 1    
   228  115  117 1    
   229  115  236 1    
   230  116  237 1    
   231  116  238 1    
   232  116  239 1    
   233  117  118 2    
   234  117  119 am   BACKBONE|DICT|INTERRES
   235  119  120 1    
   236  119  240 1    
   237  120  121 1    
   238  120  124 1    
   239  120  241 1    
   240  121  122 am   BACKBONE|DICT|INTERRES
   241  121  123 2    
   242  122  242 1    
   243  122  243 1    
   244  124  125 1    
   245  124  244 1    
   246  124  245 1    
   247  125  126 1    
   248  126  246 1    
   249  126  247 1    
@<TRIPOS>SUBSTRUCTURE
     1 UNK         1 GROUP             0       ****    0 ROOT    
