@<TRIPOS>MOLECULE
3R540
247   249    1
SMALL
USER_CHARGES


@<TRIPOS>ATOM
      1 CA         -0.8215  -13.6456  -47.9766 C.3       0 UNK        -0.1800 
      2 C           0.6071  -14.1300  -48.1805 C.2       0 UNK         0.5000 
      3 O           1.5161  -13.3152  -48.3417 O.2       0 UNK        -0.5000 
      4 N           0.8036  -15.4548  -48.1652 N.am      1 UNK        -0.5000 
      5 CA          2.0772  -16.1490  -48.3984 C.3       1 UNK         0.1400 
      6 C6          1.9053  -17.6917  -48.3834 C.3       23 UNK        -0.0398 
      7 S7          1.1919  -18.4895  -49.8686 S.3       23 UNK        -0.2404 
      8 C8          0.0832  -17.2667  -50.6536 C.3       23 UNK        -0.0205 
      9 C9         -1.2805  -17.0567  -49.9897 C.ar      23 UNK        -0.0193 
     10 C10        -2.1239  -16.0811  -50.5313 C.ar      23 UNK        -0.1150 
     11 C11        -3.4092  -15.8798  -50.0228 C.ar      23 UNK        -0.0193 
     12 C12        -3.8421  -16.6385  -48.9344 C.ar      23 UNK        -0.1150 
     13 C13        -3.0279  -17.6365  -48.3981 C.ar      23 UNK        -0.0193 
     14 C14        -1.7438  -17.8312  -48.9150 C.ar      23 UNK        -0.1150 
     15 C15        -3.5748  -18.5506  -47.3152 C.3       23 UNK        -0.0205 
     16 S16        -4.7407  -19.7418  -48.0380 S.3       23 UNK        -0.2404 
     17 C17        -4.7906  -21.0794  -46.8068 C.3       23 UNK        -0.0398 
     18 CA         -3.7249  -22.1523  -47.1386 C.3       11 UNK         0.1400 
     19 N          -2.4257  -21.8198  -46.5479 N.am      11 UNK        -0.5000 
     20 C          -1.2549  -22.3152  -46.9615 C.2       10 UNK         0.5000 
     21 O          -1.1398  -23.0694  -47.9275 O.2       10 UNK        -0.5000 
     22 CA         -0.0106  -21.9295  -46.1457 C.3       10 UNK         0.1400 
     23 CB          0.6846  -20.7246  -46.7903 C.3       10 UNK        -0.1800 
     24 N          -0.2889  -21.6330  -44.7352 N.am      10 UNK        -0.5000 
     25 C          -0.7213  -22.5311  -43.8352 C.2       9 UNK         0.5000 
     26 O          -1.0682  -23.6697  -44.1492 O.2       9 UNK        -0.5000 
     27 CA         -0.7859  -22.1112  -42.3533 C.3       9 UNK         0.1400 
     28 CB         -0.1081  -23.1547  -41.4488 C.3       9 UNK        -0.1800 
     29 N          -0.1542  -20.8099  -42.1369 N.am      9 UNK        -0.5000 
     30 C          -0.7214  -19.7697  -41.5160 C.2       8 UNK         0.5000 
     31 O          -1.8029  -19.8251  -40.9281 O.2       8 UNK        -0.5000 
     32 CA          0.0071  -18.4114  -41.6188 C.3       8 UNK         0.1400 
     33 CB          1.4938  -18.5176  -42.0192 C.3       8 UNK        -0.1800 
     34 N          -0.7089  -17.5035  -42.5217 N.am      8 UNK        -0.5000 
     35 C          -1.1100  -17.7689  -43.7762 C.2       7 UNK         0.5000 
     36 O          -0.7877  -18.7737  -44.4124 O.2       7 UNK        -0.5000 
     37 CA         -2.0828  -16.7651  -44.4155 C.3       7 UNK         0.1400 
     38 CB         -3.5251  -17.1343  -44.0331 C.3       7 UNK        -0.1800 
     39 N          -1.8439  -15.3784  -44.0288 N.am      7 UNK        -0.5000 
     40 C          -0.7631  -14.6624  -44.3566 C.2       6 UNK         0.5000 
     41 O           0.1712  -15.1014  -45.0278 O.2       6 UNK        -0.5000 
     42 CA         -0.7242  -13.1991  -43.8778 C.3       6 UNK         0.1400 
     43 CB         -2.0647  -12.6752  -43.3156 C.3       6 UNK        -0.1800 
     44 N           0.3526  -12.9566  -42.9193 N.am      6 UNK        -0.5000 
     45 C           0.5659  -13.5665  -41.7425 C.2       5 UNK         0.5000 
     46 O          -0.1277  -14.4925  -41.3175 O.2       5 UNK        -0.5000 
     47 CA          1.7361  -13.0434  -40.8802 C.3       5 UNK         0.1400 
     48 CB          2.7205  -14.1627  -40.5071 C.3       5 UNK        -0.1800 
     49 N           2.4744  -11.9555  -41.5292 N.am      5 UNK        -0.5000 
     50 C           2.1842  -10.6532  -41.3956 C.2       4 UNK         0.5000 
     51 O           1.3153  -10.2221  -40.6372 O.2       4 UNK        -0.5000 
     52 CA          2.9709   -9.6625  -42.2785 C.3       4 UNK         0.1400 
     53 CB          4.1801   -9.1037  -41.5135 C.3       4 UNK        -0.1800 
     54 N           3.4324  -10.2356  -43.5456 N.am      4 UNK        -0.5000 
     55 C           2.6407  -10.6916  -44.5263 C.2       3 UNK         0.5000 
     56 O           1.4115  -10.6605  -44.4764 O.2       3 UNK        -0.5000 
     57 CA          3.3253  -11.3263  -45.7525 C.3       3 UNK         0.1400 
     58 CB          4.7790  -10.8502  -45.9667 C.3       3 UNK        -0.1800 
     59 N           3.2719  -12.7912  -45.7229 N.am      3 UNK        -0.5000 
     60 C           3.7261  -13.6095  -44.7591 C.2       2 UNK         0.5000 
     61 O           4.1856  -13.2120  -43.6866 O.2       2 UNK        -0.5000 
     62 CA          3.6783  -15.1245  -45.0397 C.3       2 UNK         0.1400 
     63 CB          3.2519  -15.9352  -43.8085 C.3       2 UNK        -0.1800 
     64 N           2.7809  -15.4574  -46.1431 N.am      2 UNK        -0.5000 
     65 C           3.1751  -15.7541  -47.3872 C.2       1 UNK         0.5000 
     66 O           4.3509  -15.7356  -47.7538 O.2       1 UNK        -0.5000 
     67 C          -4.1956  -23.5748  -46.7689 C.2       11 UNK         0.5000 
     68 O          -4.9943  -24.1442  -47.5123 O.2       11 UNK        -0.5000 
     69 N          -3.6818  -24.1358  -45.6663 N.am      12 UNK        -0.5000 
     70 CA         -3.9424  -25.5122  -45.2504 C.3       12 UNK         0.1400 
     71 CB         -4.0572  -25.5672  -43.7181 C.3       12 UNK        -0.1800 
     72 C          -2.8331  -26.4533  -45.7470 C.2       12 UNK         0.5000 
     73 O          -3.1331  -27.5209  -46.2815 O.2       12 UNK        -0.5000 
     74 N          -1.5728  -26.0447  -45.5503 N.am      13 UNK        -0.5000 
     75 CA         -0.3880  -26.8626  -45.7979 C.3       13 UNK         0.1400 
     76 CB          0.7961  -26.2701  -45.0177 C.3       13 UNK        -0.1800 
     77 C          -0.0245  -27.0055  -47.2850 C.2       13 UNK         0.5000 
     78 O           0.4468  -28.0725  -47.6812 O.2       13 UNK        -0.5000 
     79 N          -0.2125  -25.9356  -48.0693 N.am      14 UNK        -0.5000 
     80 CA          0.2726  -25.8402  -49.4493 C.3       14 UNK         0.1400 
     81 CB          1.5051  -24.9178  -49.4664 C.3       14 UNK        -0.1800 
     82 C          -0.7966  -25.3434  -50.4364 C.2       14 UNK         0.5000 
     83 O          -0.4741  -25.1519  -51.6090 O.2       14 UNK        -0.5000 
     84 N          -2.0279  -25.1016  -49.9617 N.am      15 UNK        -0.5000 
     85 CA         -3.1579  -24.5326  -50.7079 C.3       15 UNK         0.1400 
     86 CB         -3.7010  -25.5513  -51.7312 C.3       15 UNK        -0.1800 
     87 C          -2.8251  -23.1670  -51.3481 C.2       15 UNK         0.5000 
     88 O          -3.1683  -22.9322  -52.5093 O.2       15 UNK        -0.5000 
     89 N          -2.1466  -22.3020  -50.5784 N.am      16 UNK        -0.5000 
     90 CA         -1.6280  -20.9856  -50.9780 C.3       16 UNK         0.1400 
     91 CB         -2.7639  -20.0288  -51.4032 C.3       16 UNK        -0.1800 
     92 C          -0.5049  -21.0898  -52.0307 C.2       16 UNK         0.5000 
     93 O          -0.4270  -20.2603  -52.9361 O.2       16 UNK        -0.5000 
     94 N           0.3365  -22.1254  -51.8887 N.am      17 UNK        -0.5000 
     95 CA          1.3964  -22.5350  -52.8162 C.3       17 UNK         0.1400 
     96 CB          2.5017  -21.4622  -52.9167 C.3       17 UNK        -0.1800 
     97 C           0.8132  -22.9593  -54.1797 C.2       17 UNK         0.5000 
     98 O           1.2428  -22.4689  -55.2256 O.2       17 UNK        -0.5000 
     99 N          -0.1731  -23.8665  -54.1156 N.am      18 UNK        -0.5000 
    100 CA        -0.9566  -24.4225  -55.2211 C.3       18 UNK         0.1400 
    101 CB        -0.0754  -25.3216  -56.1130 C.3       18 UNK        -0.1800 
    102 C         -1.7225  -23.3404  -56.0112 C.2       18 UNK         0.5000 
    103 O         -1.6666  -23.3134  -57.2424 O.2       18 UNK        -0.5000 
    104 N         -2.4299  -22.4702  -55.2805 N.am      19 UNK        -0.5000 
    105 CA        -3.2349  -21.3725  -55.8197 C.3       19 UNK         0.1400 
    106 CB        -2.5568  -20.0286  -55.5018 C.3       19 UNK        -0.1800 
    107 C         -4.6781  -21.4473  -55.2906 C.2       19 UNK         0.5000 
    108 O         -5.3112  -20.4107  -55.0841 O.2       19 UNK        -0.5000 
    109 N         -5.1666  -22.6784  -55.0683 N.am      20 UNK        -0.5000 
    110 CA        -6.5278  -23.0389  -54.6507 C.3       20 UNK         0.1400 
    111 CB        -7.5132  -22.8117  -55.8158 C.3       20 UNK        -0.1800 
    112 C         -6.9792  -22.3460  -53.3473 C.2       20 UNK         0.5000 
    113 O         -8.1310  -21.9191  -53.2402 O.2       20 UNK        -0.5000 
    114 N         -6.0417  -22.2058  -52.3971 N.am      21 UNK        -0.5000 
    115 CA        -6.1960  -21.5152  -51.1102 C.3       21 UNK         0.1400 
    116 CB        -7.1104  -22.3196  -50.1647 C.3       21 UNK        -0.1800 
    117 C         -6.6224  -20.0373  -51.2653 C.2       21 UNK         0.5000 
    118 O         -7.3893  -19.5225  -50.4503 O.2       21 UNK        -0.5000 
    119 N         -6.1210  -19.3908  -52.3274 N.am      22 UNK        -0.5000 
    120 CA        -6.4110  -18.0042  -52.7247 C.3       22 UNK         0.1400 
    121 C         -7.8302  -17.7925  -53.3377 C.2       22 UNK         0.5000 
    122 N         -8.5944  -18.8386  -53.6351 N.am      22 UNK        -0.7600 
    123 O         -8.2423  -16.6605  -53.5765 O.2       22 UNK        -0.5000 
    124 C124       -6.0579  -16.9710  -51.6105 C.3       23 UNK        -0.0398 
    125 S125       -5.0840  -15.5497  -52.2216 S.3       23 UNK        -0.2404 
    126 C126       -4.3538  -14.8861  -50.6836 C.3       23 UNK        -0.0205 
    127 H127       -1.2134  -13.2346  -48.9068 H         1 UNK         0.0600 
    128 H128       -0.8504  -12.8645  -47.2175 H         1 UNK         0.0600 
    129 H129       -1.4800  -14.4544  -47.6575 H         1 UNK         0.0600 
    130 H130        0.0060  -16.0571  -48.0215 H         1 UNK         0.3000 
    131 H131        2.4436  -15.8483  -49.3816 H         1 UNK         0.0600 
    132 H132        2.8705  -18.1842  -48.2461 H         1 UNK         0.0800 
    133 H133        1.3115  -17.9845  -47.5169 H         1 UNK         0.0800 
    134 H134       -0.1047  -17.6204  -51.6685 H         1 UNK         0.0800 
    135 H135        0.5967  -16.3125  -50.7691 H         1 UNK         0.0800 
    136 H136       -1.7940  -15.4996  -51.3810 H         1 UNK         0.1150 
    137 H137       -4.8428  -16.5033  -48.5481 H         1 UNK         0.1150 
    138 H138       -1.1345  -18.6196  -48.5013 H         1 UNK         0.1150 
    139 H139       -2.7628  -19.0667  -46.8022 H         1 UNK         0.0800 
    140 H140       -4.1050  -17.9577  -46.5725 H         1 UNK         0.0800 
    141 H141       -5.8004  -21.4925  -46.8485 H         1 UNK         0.0800 
    142 H142       -4.6708  -20.6797  -45.7986 H         1 UNK         0.0800 
    143 H143       -3.5994  -22.1799  -48.2224 H         1 UNK         0.0600 
    144 H144       -2.4265  -21.2080  -45.7451 H         1 UNK         0.3000 
    145 H145        0.6754  -22.7783  -46.1803 H         1 UNK         0.0600 
    146 H146        1.6076  -20.4727  -46.2680 H         1 UNK         0.0600 
    147 H147        0.9439  -20.9301  -47.8299 H         1 UNK         0.0600 
    148 H148        0.0414  -19.8448  -46.7785 H         1 UNK         0.0600 
    149 H149       -0.1725  -20.6650  -44.4508 H         1 UNK         0.3000 
    150 H150       -1.8461  -22.0688  -42.0966 H         1 UNK         0.0600 
    151 H151       -0.5790  -24.1332  -41.5525 H         1 UNK         0.0600 
    152 H152       -0.1818  -22.8712  -40.3988 H         1 UNK         0.0600 
    153 H153        0.9488  -23.2702  -41.6917 H         1 UNK         0.0600 
    154 H154        0.7356  -20.6677  -42.5934 H         1 UNK         0.3000 
    155 H155       -0.0352  -17.9649  -40.6242 H         1 UNK         0.0600 
    156 H156        1.6261  -18.8256  -43.0568 H         1 UNK         0.0600 
    157 H157        2.0259  -19.2280  -41.3852 H         1 UNK         0.0600 
    158 H158        1.9871  -17.5549  -41.8923 H         1 UNK         0.0600 
    159 H159       -1.0070  -16.6292  -42.1090 H         1 UNK         0.3000 
    160 H160       -1.9726  -16.8398  -45.4991 H         1 UNK         0.0600 
    161 H161       -3.7059  -16.9943  -42.9665 H         1 UNK         0.0600 
    162 H162       -3.7401  -18.1795  -44.2592 H         1 UNK         0.0600 
    163 H163       -4.2470  -16.5243  -44.5765 H         1 UNK         0.0600 
    164 H164       -2.5551  -14.9374  -43.4645 H         1 UNK         0.3000 
    165 H165       -0.4870  -12.6044  -44.7604 H         1 UNK         0.0600 
    166 H166       -1.9953  -11.6121  -43.0842 H         1 UNK         0.0600 
    167 H167       -2.8703  -12.7896  -44.0421 H         1 UNK         0.0600 
    168 H168       -2.3603  -13.1895  -42.4004 H         1 UNK         0.0600 
    169 H169        0.9773  -12.2037  -43.1819 H         1 UNK         0.3000 
    170 H170        1.2922  -12.6811  -39.9508 H         1 UNK         0.0600 
    171 H171        2.2054  -15.0269  -40.0857 H         1 UNK         0.0600 
    172 H172        3.2867  -14.5020  -41.3707 H         1 UNK         0.0600 
    173 H173        3.4359  -13.8174  -39.7607 H         1 UNK         0.0600 
    174 H174        3.1917  -12.2330  -42.1931 H         1 UNK         0.3000 
    175 H175        2.3016   -8.8325  -42.5140 H         1 UNK         0.0600 
    176 H176        4.9004   -9.8868  -41.2733 H         1 UNK         0.0600 
    177 H177        4.6956   -8.3384  -42.0940 H         1 UNK         0.0600 
    178 H178        3.8699   -8.6434  -40.5744 H         1 UNK         0.0600 
    179 H179        4.4307  -10.3419  -43.6539 H         1 UNK         0.3000 
    180 H180        2.7453  -11.0139  -46.6224 H         1 UNK         0.0600 
    181 H181        5.4506  -11.1937  -45.1792 H         1 UNK         0.0600 
    182 H182        4.8352   -9.7614  -46.0019 H         1 UNK         0.0600 
    183 H183        5.1707  -11.2212  -46.9139 H         1 UNK         0.0600 
    184 H184        2.8618  -13.2199  -46.5442 H         1 UNK         0.3000 
    185 H185        4.6987  -15.4248  -45.2853 H         1 UNK         0.0600 
    186 H186        4.0023  -15.8688  -43.0212 H         1 UNK         0.0600 
    187 H187        2.3011  -15.5874  -43.4038 H         1 UNK         0.0600 
    188 H188        3.1446  -16.9913  -44.0553 H         1 UNK         0.0600 
    189 H189        1.7866  -15.4422  -45.9210 H         1 UNK         0.3000 
    190 H190       -2.9861  -23.6305  -45.1333 H         1 UNK         0.3000 
    191 H191       -4.8907  -25.8607  -45.6655 H         1 UNK         0.0600 
    192 H192       -3.1435  -25.2307  -43.2268 H         1 UNK         0.0600 
    193 H193       -4.2561  -26.5846  -43.3788 H         1 UNK         0.0600 
    194 H194       -4.8760  -24.9410  -43.3638 H         1 UNK         0.0600 
    195 H195       -1.4116  -25.1612  -45.0705 H         1 UNK         0.3000 
    196 H196       -0.5785  -27.8646  -45.4070 H         1 UNK         0.0600 
    197 H197        1.6933  -26.8772  -45.1457 H         1 UNK         0.0600 
    198 H198        0.5823  -26.2265  -43.9495 H         1 UNK         0.0600 
    199 H199        1.0326  -25.2590  -45.3515 H         1 UNK         0.0600 
    200 H200       -0.5950  -25.0851  -47.6729 H         1 UNK         0.3000 
    201 H201        0.5789  -26.8207  -49.8184 H         1 UNK         0.0600 
    202 H202        2.2753  -25.2790  -48.7846 H         1 UNK         0.0600 
    203 H203        1.2507  -23.8989  -49.1718 H         1 UNK         0.0600 
    204 H204        1.9533  -24.8756  -50.4592 H         1 UNK         0.0600 
    205 H205       -2.1923  -25.2810  -48.9823 H         1 UNK         0.3000 
    206 H206       -3.9494  -24.3424  -49.9831 H         1 UNK         0.0600 
    207 H207       -4.6107  -25.1823  -52.2066 H         1 UNK         0.0600 
    208 H208       -3.9494  -26.4970  -51.2499 H         1 UNK         0.0600 
    209 H209       -2.9790  -25.7575  -52.5218 H         1 UNK         0.0600 
    210 H210       -1.8680  -22.6148  -49.6520 H         1 UNK         0.3000 
    211 H211       -1.1618  -20.5613  -50.0882 H         1 UNK         0.0600 
    212 H212       -2.3752  -19.0467  -51.6708 H         1 UNK         0.0600 
    213 H213       -3.4708  -19.8730  -50.5925 H         1 UNK         0.0600 
    214 H214       -3.3159  -20.3953  -52.2667 H         1 UNK         0.0600 
    215 H215        0.1537  -22.7699  -51.1341 H         1 UNK         0.3000 
    216 H216        1.8519  -23.4290  -52.3894 H         1 UNK         0.0600 
    217 H217        3.3448  -21.8287  -53.5032 H         1 UNK         0.0600 
    218 H218        2.8821  -21.1956  -51.9306 H         1 UNK         0.0600 
    219 H219        2.1461  -20.5496  -53.3955 H         1 UNK         0.0600 
    220 H220       -0.4115  -24.2305  -53.1947 H         1 UNK         0.3000 
    221 H221       -1.7155  -25.0589  -54.7636 H         1 UNK         0.0600 
    222 H222        0.6924  -24.7495  -56.6346 H         1 UNK         0.0600 
    223 H223        0.4227  -26.0920  -55.5243 H         1 UNK         0.0600 
    224 H224       -0.6752  -25.8294  -56.8692 H         1 UNK         0.0600 
    225 H225       -2.4646  -22.5856  -54.2702 H         1 UNK         0.3000 
    226 H226       -3.3114  -21.4569  -56.9052 H         1 UNK         0.0600 
    227 H227       -2.5696  -19.8151  -54.4340 H         1 UNK         0.0600 
    228 H228       -1.5177  -20.0220  -55.8314 H         1 UNK         0.0600 
    229 H229       -3.0640  -19.2049  -56.0053 H         1 UNK         0.0600 
    230 H230       -4.5415  -23.4549  -55.2305 H         1 UNK         0.3000 
    231 H231       -6.5117  -24.1079  -54.4339 H         1 UNK         0.0600 
    232 H232       -7.1872  -23.3337  -56.7154 H         1 UNK         0.0600 
    233 H233       -7.6114  -21.7531  -56.0596 H         1 UNK         0.0600 
    234 H234       -8.5076  -23.1853  -55.5688 H         1 UNK         0.0600 
    235 H235       -5.1048  -22.5368  -52.6083 H         1 UNK         0.3000 
    236 H236       -5.2078  -21.4938  -50.6523 H         1 UNK         0.0600 
    237 H237       -7.1294  -21.8753  -49.1689 H         1 UNK         0.0600 
    238 H238       -6.7560  -23.3443  -50.0520 H         1 UNK         0.0600 
    239 H239       -8.1379  -22.3554  -50.5276 H         1 UNK         0.0600 
    240 H240       -5.5782  -19.9165  -53.0018 H         1 UNK         0.3000 
    241 H241       -5.7336  -17.8395  -53.5632 H         1 UNK         0.0600 
    242 H242       -9.5040  -18.6854  -54.0402 H         1 UNK         0.3800 
    243 H243       -8.2837  -19.7841  -53.4476 H         1 UNK         0.3800 
    244 H244       -6.9494  -16.6070  -51.0970 H         1 UNK         0.0800 
    245 H245       -5.4667  -17.4638  -50.8416 H         1 UNK         0.0800 
    246 H246       -5.1537  -14.6006  -49.9987 H         1 UNK         0.0800 
    247 H247       -3.8094  -13.9698  -50.9161 H         1 UNK         0.0800 
@<TRIPOS>BOND
     1    1    2 1    
     2    1  127 1    
     3    1  128 1    
     4    1  129 1    
     5    2    3 2    
     6    2    4 am   BACKBONE|DICT|INTERRES
     7    4    5 1    
     8    4  130 1    
     9    5    6 1    
    10    5   65 1    
    11    5  131 1    
    12    6    7 1    
    13    6  132 1    
    14    6  133 1    
    15    7    8 1    
    16    8    9 1    
    17    8  134 1    
    18    8  135 1    
    19    9   10 ar   
    20    9   14 ar   
    21   10   11 ar   
    22   10  136 1    
    23   11   12 ar   
    24   11  126 1    
    25   12   13 ar   
    26   12  137 1    
    27   13   14 ar   
    28   13   15 1    
    29   14  138 1    
    30   15   16 1    
    31   15  139 1    
    32   15  140 1    
    33   16   17 1    
    34   17   18 1    
    35   17  141 1    
    36   17  142 1    
    37   18   19 1    
    38   18   67 1    
    39   18  143 1    
    40   19   20 am   BACKBONE|DICT|INTERRES
    41   19  144 1    
    42   20   21 2    
    43   20   22 1    
    44   22   23 1    
    45   22   24 1    
    46   22  145 1    
    47   23  146 1    
    48   23  147 1    
    49   23  148 1    
    50   24   25 am   BACKBONE|DICT|INTERRES
    51   24  149 1    
    52   25   26 2    
    53   25   27 1    
    54   27   28 1    
    55   27   29 1    
    56   27  150 1    
    57   28  151 1    
    58   28  152 1    
    59   28  153 1    
    60   29   30 am   BACKBONE|DICT|INTERRES
    61   29  154 1    
    62   30   31 2    
    63   30   32 1    
    64   32   33 1    
    65   32   34 1    
    66   32  155 1    
    67   33  156 1    
    68   33  157 1    
    69   33  158 1    
    70   34   35 am   BACKBONE|DICT|INTERRES
    71   34  159 1    
    72   35   36 2    
    73   35   37 1    
    74   37   38 1    
    75   37   39 1    
    76   37  160 1    
    77   38  161 1    
    78   38  162 1    
    79   38  163 1    
    80   39   40 am   BACKBONE|DICT|INTERRES
    81   39  164 1    
    82   40   41 2    
    83   40   42 1    
    84   42   43 1    
    85   42   44 1    
    86   42  165 1    
    87   43  166 1    
    88   43  167 1    
    89   43  168 1    
    90   44   45 am   BACKBONE|DICT|INTERRES
    91   44  169 1    
    92   45   46 2    
    93   45   47 1    
    94   47   48 1    
    95   47   49 1    
    96   47  170 1    
    97   48  171 1    
    98   48  172 1    
    99   48  173 1    
   100   49   50 am   BACKBONE|DICT|INTERRES
   101   49  174 1    
   102   50   51 2    
   103   50   52 1    
   104   52   53 1    
   105   52   54 1    
   106   52  175 1    
   107   53  176 1    
   108   53  177 1    
   109   53  178 1    
   110   54   55 am   BACKBONE|DICT|INTERRES
   111   54  179 1    
   112   55   56 2    
   113   55   57 1    
   114   57   58 1    
   115   57   59 1    
   116   57  180 1    
   117   58  181 1    
   118   58  182 1    
   119   58  183 1    
   120   59   60 am   BACKBONE|DICT|INTERRES
   121   59  184 1    
   122   60   61 2    
   123   60   62 1    
   124   62   63 1    
   125   62   64 1    
   126   62  185 1    
   127   63  186 1    
   128   63  187 1    
   129   63  188 1    
   130   64   65 am   BACKBONE|DICT|INTERRES
   131   64  189 1    
   132   65   66 2    
   133   67   68 2    
   134   67   69 am   BACKBONE|DICT|INTERRES
   135   69   70 1    
   136   69  190 1    
   137   70   71 1    
   138   70   72 1    
   139   70  191 1    
   140   71  192 1    
   141   71  193 1    
   142   71  194 1    
   143   72   73 2    
   144   72   74 am   BACKBONE|DICT|INTERRES
   145   74   75 1    
   146   74  195 1    
   147   75   76 1    
   148   75   77 1    
   149   75  196 1    
   150   76  197 1    
   151   76  198 1    
   152   76  199 1    
   153   77   78 2    
   154   77   79 am   BACKBONE|DICT|INTERRES
   155   79   80 1    
   156   79  200 1    
   157   80   81 1    
   158   80   82 1    
   159   80  201 1    
   160   81  202 1    
   161   81  203 1    
   162   81  204 1    
   163   82   83 2    
   164   82   84 am   BACKBONE|DICT|INTERRES
   165   84   85 1    
   166   84  205 1    
   167   85   86 1    
   168   85   87 1    
   169   85  206 1    
   170   86  207 1    
   171   86  208 1    
   172   86  209 1    
   173   87   88 2    
   174   87   89 am   BACKBONE|DICT|INTERRES
   175   89   90 1    
   176   89  210 1    
   177   90   91 1    
   178   90   92 1    
   179   90  211 1    
   180   91  212 1    
   181   91  213 1    
   182   91  214 1    
   183   92   93 2    
   184   92   94 am   BACKBONE|DICT|INTERRES
   185   94   95 1    
   186   94  215 1    
   187   95   96 1    
   188   95   97 1    
   189   95  216 1    
   190   96  217 1    
   191   96  218 1    
   192   96  219 1    
   193   97   98 2    
   194   97   99 am   BACKBONE|DICT|INTERRES
   195   99  100 1    
   196   99  220 1    
   197  100  101 1    
   198  100  102 1    
   199  100  221 1    
   200  101  222 1    
   201  101  223 1    
   202  101  224 1    
   203  102  103 2    
   204  102  104 am   BACKBONE|DICT|INTERRES
   205  104  105 1    
   206  104  225 1    
   207  105  106 1    
   208  105  107 1    
   209  105  226 1    
   210  106  227 1    
   211  106  228 1    
   212  106  229 1    
   213  107  108 2    
   214  107  109 am   BACKBONE|DICT|INTERRES
   215  109  110 1    
   216  109  230 1    
   217  110  111 1    
   218  110  112 1    
   219  110  231 1    
   220  111  232 1    
   221  111  233 1    
   222  111  234 1    
   223  112  113 2    
   224  112  114 am   BACKBONE|DICT|INTERRES
   225  114  115 1    
   226  114  235 1    
   227  115  116 1    
   228  115  117 1    
   229  115  236 1    
   230  116  237 1    
   231  116  238 1    
   232  116  239 1    
   233  117  118 2    
   234  117  119 am   BACKBONE|DICT|INTERRES
   235  119  120 1    
   236  119  240 1    
   237  120  121 1    
   238  120  124 1    
   239  120  241 1    
   240  121  122 am   BACKBONE|DICT|INTERRES
   241  121  123 2    
   242  122  242 1    
   243  122  243 1    
   244  124  125 1    
   245  124  244 1    
   246  124  245 1    
   247  125  126 1    
   248  126  246 1    
   249  126  247 1    
@<TRIPOS>SUBSTRUCTURE
     1 UNK         1 GROUP             0       ****    0 ROOT    
