@<TRIPOS>MOLECULE
3R540
247   249    1
SMALL
USER_CHARGES


@<TRIPOS>ATOM
      1 CA         -5.9674   -8.7307  -47.8462 C.3       0 UNK        -0.1800 
      2 C          -6.4780  -10.1705  -47.8283 C.2       0 UNK         0.5000 
      3 O          -7.5933  -10.4074  -47.3688 O.2       0 UNK        -0.5000 
      4 N          -5.7181  -11.1636  -48.3149 N.am      1 UNK        -0.5000 
      5 CA         -4.3538  -11.0606  -48.8527 C.3       1 UNK         0.1400 
      6 C6         -3.9840  -12.3312  -49.6592 C.3       23 UNK        -0.0398 
      7 S7         -2.6078  -12.0664  -50.8307 S.3       23 UNK        -0.2404 
      8 C8         -1.2490  -12.9689  -50.0209 C.3       23 UNK        -0.0205 
      9 C9         -1.2664  -14.4490  -50.3724 C.ar      23 UNK        -0.0193 
     10 C10        -0.5628  -14.9118  -51.4900 C.ar      23 UNK        -0.1150 
     11 C11        -0.5535  -16.2732  -51.8066 C.ar      23 UNK        -0.0193 
     12 C12        -1.2566  -17.1697  -51.0003 C.ar      23 UNK        -0.1150 
     13 C13        -1.9675  -16.7220  -49.8861 C.ar      23 UNK        -0.0193 
     14 C14        -1.9671  -15.3598  -49.5751 C.ar      23 UNK        -0.1150 
     15 C15        -2.7127  -17.7138  -49.0093 C.3       23 UNK        -0.0205 
     16 S16        -1.6019  -18.3891  -47.7432 S.3       23 UNK        -0.2404 
     17 C17        -2.7141  -19.4852  -46.8064 C.3       23 UNK        -0.0398 
     18 CA         -2.4389  -20.9881  -47.0547 C.3       11 UNK         0.1400 
     19 N          -1.0622  -21.3983  -46.7441 N.am      11 UNK        -0.5000 
     20 C          -0.5577  -22.6205  -46.9767 C.2       10 UNK         0.5000 
     21 O          -1.1804  -23.5181  -47.5402 O.2       10 UNK        -0.5000 
     22 CA          0.8511  -22.9213  -46.4343 C.3       10 UNK         0.1400 
     23 CB          1.9403  -22.4352  -47.4027 C.3       10 UNK        -0.1800 
     24 N           1.0579  -22.3555  -45.1003 N.am      10 UNK        -0.5000 
     25 C           0.4013  -22.7656  -44.0044 C.2       9 UNK         0.5000 
     26 O          -0.3789  -23.7176  -43.9951 O.2       9 UNK        -0.5000 
     27 CA          0.5969  -21.9420  -42.7186 C.3       9 UNK         0.1400 
     28 CB          1.8429  -22.4006  -41.9466 C.3       9 UNK        -0.1800 
     29 N           0.6748  -20.5067  -42.9934 N.am      9 UNK        -0.5000 
     30 C          -0.3637  -19.7682  -43.4111 C.2       8 UNK         0.5000 
     31 O          -1.5048  -20.2122  -43.5391 O.2       8 UNK        -0.5000 
     32 CA         -0.0742  -18.3037  -43.7935 C.3       8 UNK         0.1400 
     33 CB         -0.2483  -17.3851  -42.5758 C.3       8 UNK        -0.1800 
     34 N           1.2581  -18.1013  -44.3672 N.am      8 UNK        -0.5000 
     35 C           1.6958  -18.6731  -45.4977 C.2       7 UNK         0.5000 
     36 O           1.0159  -19.4366  -46.1778 O.2       7 UNK        -0.5000 
     37 CA          3.1633  -18.4234  -45.8838 C.3       7 UNK         0.1400 
     38 CB          3.3500  -17.0290  -46.5014 C.3       7 UNK        -0.1800 
     39 N           4.0614  -18.5949  -44.7406 N.am      7 UNK        -0.5000 
     40 C           4.2504  -19.7492  -44.0867 C.2       6 UNK         0.5000 
     41 O           3.7299  -20.8096  -44.4339 O.2       6 UNK        -0.5000 
     42 CA          5.1047  -19.7221  -42.8014 C.3       6 UNK         0.1400 
     43 CB          6.5978  -19.9409  -43.1112 C.3       6 UNK        -0.1800 
     44 N           4.8773  -18.5384  -41.9570 N.am      6 UNK        -0.5000 
     45 C           5.2115  -17.2646  -42.2012 C.2       5 UNK         0.5000 
     46 O           5.8726  -16.8984  -43.1760 O.2       5 UNK        -0.5000 
     47 CA          4.6637  -16.2143  -41.2134 C.3       5 UNK         0.1400 
     48 CB          5.7250  -15.8554  -40.1629 C.3       5 UNK        -0.1800 
     49 N           4.2333  -14.9924  -41.8990 N.am      5 UNK        -0.5000 
     50 C           3.3166  -14.9457  -42.8758 C.2       4 UNK         0.5000 
     51 O           2.6519  -15.9244  -43.2256 O.2       4 UNK        -0.5000 
     52 CA          3.1602  -13.5923  -43.5994 C.3       4 UNK         0.1400 
     53 CB          4.4817  -13.1721  -44.2677 C.3       4 UNK        -0.1800 
     54 N           2.1264  -13.6290  -44.6342 N.am      4 UNK        -0.5000 
     55 C           0.8079  -13.5866  -44.4148 C.2       3 UNK         0.5000 
     56 O           0.2946  -13.4796  -43.2978 O.2       3 UNK        -0.5000 
     57 CA         -0.0819  -13.6991  -45.6703 C.3       3 UNK         0.1400 
     58 CB         -0.4453  -15.1682  -45.9353 C.3       3 UNK        -0.1800 
     59 N          -1.3146  -12.9140  -45.5723 N.am      3 UNK        -0.5000 
     60 C          -1.3719  -11.5835  -45.4209 C.2       2 UNK         0.5000 
     61 O          -0.3809  -10.8498  -45.4075 O.2       2 UNK        -0.5000 
     62 CA         -2.7903  -10.9887  -45.2980 C.3       2 UNK         0.1400 
     63 CB         -2.7909   -9.4995  -44.8919 C.3       2 UNK        -0.1800 
     64 N          -3.5880  -11.1928  -46.5137 N.am      2 UNK        -0.5000 
     65 C          -3.3083  -10.7554  -47.7534 C.2       1 UNK         0.5000 
     66 O          -2.3054  -10.1039  -48.0443 O.2       1 UNK        -0.5000 
     67 C          -3.4729  -21.8458  -46.3003 C.2       11 UNK         0.5000 
     68 O          -4.4410  -22.2979  -46.9114 O.2       11 UNK        -0.5000 
     69 N          -3.2368  -22.0808  -45.0016 N.am      12 UNK        -0.5000 
     70 CA         -4.0640  -22.9380  -44.1529 C.3       12 UNK         0.1400 
     71 CB         -3.6138  -22.8123  -42.6898 C.3       12 UNK        -0.1800 
     72 C          -4.0575  -24.4072  -44.6125 C.2       12 UNK         0.5000 
     73 O          -5.1265  -25.0079  -44.7233 O.2       12 UNK        -0.5000 
     74 N          -2.8667  -24.9427  -44.9193 N.am      13 UNK        -0.5000 
     75 CA         -2.6691  -26.2993  -45.4391 C.3       13 UNK         0.1400 
     76 CB         -1.1663  -26.6109  -45.4976 C.3       13 UNK        -0.1800 
     77 C          -3.3240  -26.5236  -46.8160 C.2       13 UNK         0.5000 
     78 O          -3.8823  -27.5939  -47.0585 O.2       13 UNK        -0.5000 
     79 N          -3.2746  -25.4984  -47.6759 N.am      14 UNK        -0.5000 
     80 CA         -3.9155  -25.4653  -48.9907 C.3       14 UNK         0.1400 
     81 CB         -3.2448  -24.3690  -49.8319 C.3       14 UNK        -0.1800 
     82 C          -5.4389  -25.2288  -48.9348 C.2       14 UNK         0.5000 
     83 O          -6.0863  -25.2991  -49.9786 O.2       14 UNK        -0.5000 
     84 N          -5.9832  -24.9201  -47.7477 N.am      15 UNK        -0.5000 
     85 CA         -7.3796  -24.5563  -47.4833 C.3       15 UNK         0.1400 
     86 CB         -8.3200  -25.7549  -47.7280 C.3       15 UNK        -0.1800 
     87 C          -7.8023  -23.2790  -48.2410 C.2       15 UNK         0.5000 
     88 O          -8.8745  -23.2349  -48.8462 O.2       15 UNK        -0.5000 
     89 N          -6.9221  -22.2689  -48.1951 N.am      16 UNK        -0.5000 
     90 CA         -7.0267  -20.9386  -48.8023 C.3       16 UNK         0.1400 
     91 CB         -8.2725  -20.1818  -48.2964 C.3       16 UNK        -0.1800 
     92 C          -6.9025  -20.9183  -50.3404 C.2       16 UNK         0.5000 
     93 O          -7.1522  -19.8749  -50.9471 O.2       16 UNK        -0.5000 
     94 N          -6.4812  -22.0333  -50.9550 N.am      17 UNK        -0.5000 
     95 CA         -6.1464  -22.1136  -52.3760 C.3       17 UNK         0.1400 
     96 CB         -6.2102  -23.5772  -52.8426 C.3       17 UNK        -0.1800 
     97 C          -4.7601  -21.4906  -52.6157 C.2       17 UNK         0.5000 
     98 O          -3.7469  -22.1892  -52.5457 O.2       17 UNK        -0.5000 
     99 N          -4.7361  -20.1744  -52.8625 N.am      18 UNK        -0.5000 
    100 CA        -3.5255  -19.3632  -53.0195 C.3       18 UNK         0.1400 
    101 CB        -3.9213  -17.8999  -53.2654 C.3       18 UNK        -0.1800 
    102 C         -2.5691  -19.8621  -54.1189 C.2       18 UNK         0.5000 
    103 O         -1.3536  -19.8357  -53.9279 O.2       18 UNK        -0.5000 
    104 N         -3.1409  -20.3597  -55.2236 N.am      19 UNK        -0.5000 
    105 CA        -2.4142  -20.9496  -56.3491 C.3       19 UNK         0.1400 
    106 CB        -3.3991  -21.2022  -57.5007 C.3       19 UNK        -0.1800 
    107 C         -1.6602  -22.2460  -55.9906 C.2       19 UNK         0.5000 
    108 O         -0.6482  -22.5442  -56.6251 O.2       19 UNK        -0.5000 
    109 N         -2.1535  -22.9847  -54.9866 N.am      20 UNK        -0.5000 
    110 CA        -1.4876  -24.1616  -54.4342 C.3       20 UNK         0.1400 
    111 CB        -2.5345  -25.1457  -53.8899 C.3       20 UNK        -0.1800 
    112 C         -0.4830  -23.7556  -53.3439 C.2       20 UNK         0.5000 
    113 O          0.6432  -24.2530  -53.3484 O.2       20 UNK        -0.5000 
    114 N         -0.8910  -22.8360  -52.4559 N.am      21 UNK        -0.5000 
    115 CA        -0.0912  -22.3183  -51.3410 C.3       21 UNK         0.1400 
    116 CB        -0.9375  -21.3317  -50.5283 C.3       21 UNK        -0.1800 
    117 C          1.2283  -21.6562  -51.7810 C.2       21 UNK         0.5000 
    118 O          2.2699  -21.9281  -51.1830 O.2       21 UNK        -0.5000 
    119 N          1.1624  -20.8367  -52.8374 N.am      22 UNK        -0.5000 
    120 CA         2.3254  -20.2183  -53.4969 C.3       22 UNK         0.1400 
    121 C          2.9058  -21.0760  -54.6626 C.2       22 UNK         0.5000 
    122 N          2.4984  -22.3258  -54.8503 N.am      22 UNK        -0.7600 
    123 O          3.7632  -20.6084  -55.4074 O.2       22 UNK        -0.5000 
    124 C124        2.0352  -18.7565  -53.9334 C.3       23 UNK        -0.0398 
    125 S125        1.7203  -17.6671  -52.5011 S.3       23 UNK        -0.2404 
    126 C126        0.2086  -16.7940  -53.0137 C.3       23 UNK        -0.0205 
    127 H127       -5.5977   -8.4501  -48.8318 H         1 UNK         0.0600 
    128 H128       -5.1702   -8.5930  -47.1161 H         1 UNK         0.0600 
    129 H129       -6.7717   -8.0403  -47.5914 H         1 UNK         0.0600 
    130 H130       -6.1025  -12.0977  -48.3002 H         1 UNK         0.3000 
    131 H131       -4.3442  -10.2208  -49.5498 H         1 UNK         0.0600 
    132 H132       -4.8374  -12.6424  -50.2634 H         1 UNK         0.0800 
    133 H133       -3.7771  -13.1694  -48.9947 H         1 UNK         0.0800 
    134 H134       -1.2927  -12.8301  -48.9394 H         1 UNK         0.0800 
    135 H135       -0.3026  -12.5292  -50.3394 H         1 UNK         0.0800 
    136 H136       -0.0185  -14.2124  -52.1089 H         1 UNK         0.1150 
    137 H137       -1.2298  -18.2217  -51.2356 H         1 UNK         0.1150 
    138 H138       -2.5026  -15.0155  -48.7030 H         1 UNK         0.1150 
    139 H139       -3.5641  -17.2272  -48.5309 H         1 UNK         0.0800 
    140 H140       -3.1142  -18.5272  -49.6158 H         1 UNK         0.0800 
    141 H141       -3.7470  -19.2405  -47.0607 H         1 UNK         0.0800 
    142 H142       -2.6038  -19.2440  -45.7492 H         1 UNK         0.0800 
    143 H143       -2.5964  -21.1760  -48.1168 H         1 UNK         0.0600 
    144 H144       -0.4495  -20.6876  -46.3526 H         1 UNK         0.3000 
    145 H145        0.9477  -24.0055  -46.3493 H         1 UNK         0.0600 
    146 H146        2.9371  -22.6411  -47.0125 H         1 UNK         0.0600 
    147 H147        1.8549  -22.9430  -48.3643 H         1 UNK         0.0600 
    148 H148        1.8719  -21.3662  -47.5988 H         1 UNK         0.0600 
    149 H149        1.6876  -21.5653  -45.0310 H         1 UNK         0.3000 
    150 H150       -0.2717  -22.1148  -42.0796 H         1 UNK         0.0600 
    151 H151        1.7557  -23.4503  -41.6635 H         1 UNK         0.0600 
    152 H152        1.9734  -21.8271  -41.0288 H         1 UNK         0.0600 
    153 H153        2.7515  -22.3004  -42.5389 H         1 UNK         0.0600 
    154 H154        1.5863  -20.0773  -42.9518 H         1 UNK         0.3000 
    155 H155       -0.8056  -18.0124  -44.5493 H         1 UNK         0.0600 
    156 H156        0.4894  -17.6003  -41.8018 H         1 UNK         0.0600 
    157 H157       -1.2379  -17.5037  -42.1328 H         1 UNK         0.0600 
    158 H158       -0.1412  -16.3367  -42.8545 H         1 UNK         0.0600 
    159 H159        1.8642  -17.4385  -43.8863 H         1 UNK         0.3000 
    160 H160        3.4372  -19.1645  -46.6377 H         1 UNK         0.0600 
    161 H161        3.1178  -16.2348  -45.7934 H         1 UNK         0.0600 
    162 H162        2.6981  -16.8972  -47.3661 H         1 UNK         0.0600 
    163 H163        4.3753  -16.8837  -46.8413 H         1 UNK         0.0600 
    164 H164        4.5326  -17.7687  -44.3879 H         1 UNK         0.3000 
    165 H165        4.7768  -20.5707  -42.1988 H         1 UNK         0.0600 
    166 H166        6.9993  -19.1718  -43.7711 H         1 UNK         0.0600 
    167 H167        7.1938  -19.9468  -42.1987 H         1 UNK         0.0600 
    168 H168        6.7513  -20.9006  -43.6062 H         1 UNK         0.0600 
    169 H169        4.3247  -18.7196  -41.1304 H         1 UNK         0.3000 
    170 H170        3.7924  -16.6300  -40.7031 H         1 UNK         0.0600 
    171 H171        6.6096  -15.4110  -40.6211 H         1 UNK         0.0600 
    172 H172        5.3339  -15.1485  -39.4309 H         1 UNK         0.0600 
    173 H173        6.0492  -16.7419  -39.6161 H         1 UNK         0.0600 
    174 H174        4.7573  -14.1568  -41.6856 H         1 UNK         0.3000 
    175 H175        2.8868  -12.8409  -42.8558 H         1 UNK         0.0600 
    176 H176        4.8261  -13.9219  -44.9817 H         1 UNK         0.0600 
    177 H177        4.3714  -12.2276  -44.8010 H         1 UNK         0.0600 
    178 H178        5.2755  -13.0309  -43.5336 H         1 UNK         0.0600 
    179 H179        2.4566  -13.7501  -45.5797 H         1 UNK         0.3000 
    180 H180        0.4784  -13.3221  -46.5286 H         1 UNK         0.0600 
    181 H181       -1.0002  -15.2791  -46.8653 H         1 UNK         0.0600 
    182 H182       -1.0535  -15.5827  -45.1311 H         1 UNK         0.0600 
    183 H183        0.4494  -15.7855  -46.0216 H         1 UNK         0.0600 
    184 H184       -2.1768  -13.4377  -45.5595 H         1 UNK         0.3000 
    185 H185       -3.2901  -11.5403  -44.5001 H         1 UNK         0.0600 
    186 H186       -3.8073   -9.1283  -44.7603 H         1 UNK         0.0600 
    187 H187       -2.2675   -9.3549  -43.9461 H         1 UNK         0.0600 
    188 H188       -2.2994   -8.8712  -45.6352 H         1 UNK         0.0600 
    189 H189       -4.4458  -11.7118  -46.3874 H         1 UNK         0.3000 
    190 H190       -2.4456  -21.6260  -44.5561 H         1 UNK         0.3000 
    191 H191       -5.0919  -22.5753  -44.2200 H         1 UNK         0.0600 
    192 H192       -4.2442  -23.4151  -42.0349 H         1 UNK         0.0600 
    193 H193       -3.6792  -21.7801  -42.3452 H         1 UNK         0.0600 
    194 H194       -2.5853  -23.1450  -42.5517 H         1 UNK         0.0600 
    195 H195       -2.0273  -24.3911  -44.7632 H         1 UNK         0.3000 
    196 H196       -3.1329  -26.9938  -44.7358 H         1 UNK         0.0600 
    197 H197       -0.6416  -25.9322  -46.1704 H         1 UNK         0.0600 
    198 H198       -0.7072  -26.5265  -44.5124 H         1 UNK         0.0600 
    199 H199       -0.9909  -27.6271  -45.8527 H         1 UNK         0.0600 
    200 H200       -2.7265  -24.6794  -47.4262 H         1 UNK         0.3000 
    201 H201       -3.7504  -26.4250  -49.4842 H         1 UNK         0.0600 
    202 H202       -3.6531  -24.3414  -50.8406 H         1 UNK         0.0600 
    203 H203       -3.3973  -23.3834  -49.3914 H         1 UNK         0.0600 
    204 H204       -2.1717  -24.5363  -49.9243 H         1 UNK         0.0600 
    205 H205       -5.3664  -24.8716  -46.9464 H         1 UNK         0.3000 
    206 H206       -7.4325  -24.3108  -46.4217 H         1 UNK         0.0600 
    207 H207       -7.9947  -26.6305  -47.1662 H         1 UNK         0.0600 
    208 H208       -9.3364  -25.5235  -47.4079 H         1 UNK         0.0600 
    209 H209       -8.3652  -26.0301  -48.7820 H         1 UNK         0.0600 
    210 H210       -6.0509  -22.4261  -47.6881 H         1 UNK         0.3000 
    211 H211       -6.1546  -20.3932  -48.4389 H         1 UNK         0.0600 
    212 H212       -8.2451  -19.1353  -48.6020 H         1 UNK         0.0600 
    213 H213       -8.3294  -20.1978  -47.2081 H         1 UNK         0.0600 
    214 H214       -9.1955  -20.6087  -48.6888 H         1 UNK         0.0600 
    215 H215       -6.2998  -22.8584  -50.4000 H         1 UNK         0.3000 
    216 H216       -6.8853  -21.5536  -52.9531 H         1 UNK         0.0600 
    217 H217       -5.4909  -24.2060  -52.3197 H         1 UNK         0.0600 
    218 H218       -5.9944  -23.6551  -53.9088 H         1 UNK         0.0600 
    219 H219       -7.2013  -24.0001  -52.6778 H         1 UNK         0.0600 
    220 H220       -5.6135  -19.6720  -52.8421 H         1 UNK         0.3000 
    221 H221       -2.9906  -19.4138  -52.0723 H         1 UNK         0.0600 
    222 H222       -4.4809  -17.4966  -52.4211 H         1 UNK         0.0600 
    223 H223       -4.5367  -17.7938  -54.1595 H         1 UNK         0.0600 
    224 H224       -3.0407  -17.2703  -53.3979 H         1 UNK         0.0600 
    225 H225       -4.1482  -20.3509  -55.2869 H         1 UNK         0.3000 
    226 H226       -1.6720  -20.2225  -56.6854 H         1 UNK         0.0600 
    227 H227       -4.1813  -21.9061  -57.2139 H         1 UNK         0.0600 
    228 H228       -3.8789  -20.2770  -57.8204 H         1 UNK         0.0600 
    229 H229       -2.8862  -21.6174  -58.3694 H         1 UNK         0.0600 
    230 H230       -2.9565  -22.6419  -54.4747 H         1 UNK         0.3000 
    231 H231       -0.9356  -24.6738  -55.2253 H         1 UNK         0.0600 
    232 H232       -3.1393  -24.7024  -53.1007 H         1 UNK         0.0600 
    233 H233       -2.0561  -26.0340  -53.4757 H         1 UNK         0.0600 
    234 H234       -3.2093  -25.4770  -54.6792 H         1 UNK         0.0600 
    235 H235       -1.8479  -22.5005  -52.5181 H         1 UNK         0.3000 
    236 H236        0.1560  -23.1645  -50.6965 H         1 UNK         0.0600 
    237 H237       -1.1912  -20.4535  -51.1165 H         1 UNK         0.0600 
    238 H238       -1.8674  -21.7907  -50.1995 H         1 UNK         0.0600 
    239 H239       -0.4015  -20.9891  -49.6423 H         1 UNK         0.0600 
    240 H240        0.2575  -20.6424  -53.2583 H         1 UNK         0.3000 
    241 H241        3.1416  -20.1654  -52.7743 H         1 UNK         0.0600 
    242 H242        2.8881  -22.8593  -55.6109 H         1 UNK         0.3800 
    243 H243        1.8285  -22.7613  -54.2293 H         1 UNK         0.3800 
    244 H244        1.1941  -18.7316  -54.6275 H         1 UNK         0.0800 
    245 H245        2.8854  -18.3333  -54.4706 H         1 UNK         0.0800 
    246 H246        0.4746  -15.9796  -53.6891 H         1 UNK         0.0800 
    247 H247       -0.4422  -17.4606  -53.5774 H         1 UNK         0.0800 
@<TRIPOS>BOND
     1    1    2 1    
     2    1  127 1    
     3    1  128 1    
     4    1  129 1    
     5    2    3 2    
     6    2    4 am   BACKBONE|DICT|INTERRES
     7    4    5 1    
     8    4  130 1    
     9    5    6 1    
    10    5   65 1    
    11    5  131 1    
    12    6    7 1    
    13    6  132 1    
    14    6  133 1    
    15    7    8 1    
    16    8    9 1    
    17    8  134 1    
    18    8  135 1    
    19    9   10 ar   
    20    9   14 ar   
    21   10   11 ar   
    22   10  136 1    
    23   11   12 ar   
    24   11  126 1    
    25   12   13 ar   
    26   12  137 1    
    27   13   14 ar   
    28   13   15 1    
    29   14  138 1    
    30   15   16 1    
    31   15  139 1    
    32   15  140 1    
    33   16   17 1    
    34   17   18 1    
    35   17  141 1    
    36   17  142 1    
    37   18   19 1    
    38   18   67 1    
    39   18  143 1    
    40   19   20 am   BACKBONE|DICT|INTERRES
    41   19  144 1    
    42   20   21 2    
    43   20   22 1    
    44   22   23 1    
    45   22   24 1    
    46   22  145 1    
    47   23  146 1    
    48   23  147 1    
    49   23  148 1    
    50   24   25 am   BACKBONE|DICT|INTERRES
    51   24  149 1    
    52   25   26 2    
    53   25   27 1    
    54   27   28 1    
    55   27   29 1    
    56   27  150 1    
    57   28  151 1    
    58   28  152 1    
    59   28  153 1    
    60   29   30 am   BACKBONE|DICT|INTERRES
    61   29  154 1    
    62   30   31 2    
    63   30   32 1    
    64   32   33 1    
    65   32   34 1    
    66   32  155 1    
    67   33  156 1    
    68   33  157 1    
    69   33  158 1    
    70   34   35 am   BACKBONE|DICT|INTERRES
    71   34  159 1    
    72   35   36 2    
    73   35   37 1    
    74   37   38 1    
    75   37   39 1    
    76   37  160 1    
    77   38  161 1    
    78   38  162 1    
    79   38  163 1    
    80   39   40 am   BACKBONE|DICT|INTERRES
    81   39  164 1    
    82   40   41 2    
    83   40   42 1    
    84   42   43 1    
    85   42   44 1    
    86   42  165 1    
    87   43  166 1    
    88   43  167 1    
    89   43  168 1    
    90   44   45 am   BACKBONE|DICT|INTERRES
    91   44  169 1    
    92   45   46 2    
    93   45   47 1    
    94   47   48 1    
    95   47   49 1    
    96   47  170 1    
    97   48  171 1    
    98   48  172 1    
    99   48  173 1    
   100   49   50 am   BACKBONE|DICT|INTERRES
   101   49  174 1    
   102   50   51 2    
   103   50   52 1    
   104   52   53 1    
   105   52   54 1    
   106   52  175 1    
   107   53  176 1    
   108   53  177 1    
   109   53  178 1    
   110   54   55 am   BACKBONE|DICT|INTERRES
   111   54  179 1    
   112   55   56 2    
   113   55   57 1    
   114   57   58 1    
   115   57   59 1    
   116   57  180 1    
   117   58  181 1    
   118   58  182 1    
   119   58  183 1    
   120   59   60 am   BACKBONE|DICT|INTERRES
   121   59  184 1    
   122   60   61 2    
   123   60   62 1    
   124   62   63 1    
   125   62   64 1    
   126   62  185 1    
   127   63  186 1    
   128   63  187 1    
   129   63  188 1    
   130   64   65 am   BACKBONE|DICT|INTERRES
   131   64  189 1    
   132   65   66 2    
   133   67   68 2    
   134   67   69 am   BACKBONE|DICT|INTERRES
   135   69   70 1    
   136   69  190 1    
   137   70   71 1    
   138   70   72 1    
   139   70  191 1    
   140   71  192 1    
   141   71  193 1    
   142   71  194 1    
   143   72   73 2    
   144   72   74 am   BACKBONE|DICT|INTERRES
   145   74   75 1    
   146   74  195 1    
   147   75   76 1    
   148   75   77 1    
   149   75  196 1    
   150   76  197 1    
   151   76  198 1    
   152   76  199 1    
   153   77   78 2    
   154   77   79 am   BACKBONE|DICT|INTERRES
   155   79   80 1    
   156   79  200 1    
   157   80   81 1    
   158   80   82 1    
   159   80  201 1    
   160   81  202 1    
   161   81  203 1    
   162   81  204 1    
   163   82   83 2    
   164   82   84 am   BACKBONE|DICT|INTERRES
   165   84   85 1    
   166   84  205 1    
   167   85   86 1    
   168   85   87 1    
   169   85  206 1    
   170   86  207 1    
   171   86  208 1    
   172   86  209 1    
   173   87   88 2    
   174   87   89 am   BACKBONE|DICT|INTERRES
   175   89   90 1    
   176   89  210 1    
   177   90   91 1    
   178   90   92 1    
   179   90  211 1    
   180   91  212 1    
   181   91  213 1    
   182   91  214 1    
   183   92   93 2    
   184   92   94 am   BACKBONE|DICT|INTERRES
   185   94   95 1    
   186   94  215 1    
   187   95   96 1    
   188   95   97 1    
   189   95  216 1    
   190   96  217 1    
   191   96  218 1    
   192   96  219 1    
   193   97   98 2    
   194   97   99 am   BACKBONE|DICT|INTERRES
   195   99  100 1    
   196   99  220 1    
   197  100  101 1    
   198  100  102 1    
   199  100  221 1    
   200  101  222 1    
   201  101  223 1    
   202  101  224 1    
   203  102  103 2    
   204  102  104 am   BACKBONE|DICT|INTERRES
   205  104  105 1    
   206  104  225 1    
   207  105  106 1    
   208  105  107 1    
   209  105  226 1    
   210  106  227 1    
   211  106  228 1    
   212  106  229 1    
   213  107  108 2    
   214  107  109 am   BACKBONE|DICT|INTERRES
   215  109  110 1    
   216  109  230 1    
   217  110  111 1    
   218  110  112 1    
   219  110  231 1    
   220  111  232 1    
   221  111  233 1    
   222  111  234 1    
   223  112  113 2    
   224  112  114 am   BACKBONE|DICT|INTERRES
   225  114  115 1    
   226  114  235 1    
   227  115  116 1    
   228  115  117 1    
   229  115  236 1    
   230  116  237 1    
   231  116  238 1    
   232  116  239 1    
   233  117  118 2    
   234  117  119 am   BACKBONE|DICT|INTERRES
   235  119  120 1    
   236  119  240 1    
   237  120  121 1    
   238  120  124 1    
   239  120  241 1    
   240  121  122 am   BACKBONE|DICT|INTERRES
   241  121  123 2    
   242  122  242 1    
   243  122  243 1    
   244  124  125 1    
   245  124  244 1    
   246  124  245 1    
   247  125  126 1    
   248  126  246 1    
   249  126  247 1    
@<TRIPOS>SUBSTRUCTURE
     1 UNK         1 GROUP             0       ****    0 ROOT    
