@<TRIPOS>MOLECULE
3R540
247   249    1
SMALL
USER_CHARGES


@<TRIPOS>ATOM
      1 CA          2.5285  -13.1126  -51.1582 C.3       0 UNK        -0.1800 
      2 C           2.1572  -12.9690  -49.6902 C.2       0 UNK         0.5000 
      3 O           1.2802  -12.1746  -49.3526 O.2       0 UNK        -0.5000 
      4 N           2.8006  -13.7502  -48.8135 N.am      1 UNK        -0.5000 
      5 CA          2.5702  -13.7795  -47.3619 C.3       1 UNK         0.1400 
      6 C6          3.6048  -14.6445  -46.5817 C.3       23 UNK        -0.0398 
      7 S7          4.3130  -16.0535  -47.5066 S.3       23 UNK        -0.2404 
      8 C8          3.1297  -17.3891  -47.1601 C.3       23 UNK        -0.0205 
      9 C9          3.3193  -18.5365  -48.1395 C.ar      23 UNK        -0.0193 
     10 C10         2.9922  -18.3631  -49.4877 C.ar      23 UNK        -0.1150 
     11 C11         3.1460  -19.4108  -50.4048 C.ar      23 UNK        -0.0193 
     12 C12         3.6227  -20.6424  -49.9438 C.ar      23 UNK        -0.1150 
     13 C13         3.9475  -20.8379  -48.5977 C.ar      23 UNK        -0.0193 
     14 C14         3.8126  -19.7685  -47.7046 C.ar      23 UNK        -0.1150 
     15 C15         4.4436  -22.2025  -48.1234 C.3       23 UNK        -0.0205 
     16 S16         3.5821  -22.7569  -46.6173 S.3       23 UNK        -0.2404 
     17 C17         3.9005  -24.5616  -46.5818 C.3       23 UNK        -0.0398 
     18 CA          2.7012  -25.4333  -47.0578 C.3       11 UNK         0.1400 
     19 N           1.4228  -24.8556  -46.6354 N.am      11 UNK        -0.5000 
     20 C           0.1924  -25.3465  -46.8134 C.2       10 UNK         0.5000 
     21 O          -0.0435  -26.4677  -47.2585 O.2       10 UNK        -0.5000 
     22 CA         -0.9721  -24.3823  -46.4991 C.3       10 UNK         0.1400 
     23 CB         -1.5155  -24.6479  -45.0879 C.3       10 UNK        -0.1800 
     24 N          -0.6207  -22.9587  -46.6140 N.am      10 UNK        -0.5000 
     25 C          -0.1245  -22.3596  -47.7075 C.2       9 UNK         0.5000 
     26 O           0.0908  -22.9616  -48.7592 O.2       9 UNK        -0.5000 
     27 CA          0.2215  -20.8636  -47.6137 C.3       9 UNK         0.1400 
     28 CB         -0.0243  -20.1372  -48.9448 C.3       9 UNK        -0.1800 
     29 N          -0.4991  -20.1710  -46.5447 N.am      9 UNK        -0.5000 
     30 C          -0.0427  -19.9939  -45.3006 C.2       8 UNK         0.5000 
     31 O           1.0182  -20.4602  -44.8821 O.2       8 UNK        -0.5000 
     32 CA         -0.9610  -19.2040  -44.3515 C.3       8 UNK         0.1400 
     33 CB         -1.8482  -20.1626  -43.5408 C.3       8 UNK        -0.1800 
     34 N          -0.1882  -18.3634  -43.4368 N.am      8 UNK        -0.5000 
     35 C           0.4616  -17.2564  -43.8145 C.2       7 UNK         0.5000 
     36 O           0.4346  -16.8034  -44.9593 O.2       7 UNK        -0.5000 
     37 CA          1.2888  -16.5342  -42.7465 C.3       7 UNK         0.1400 
     38 CB          2.7596  -16.9866  -42.8002 C.3       7 UNK        -0.1800 
     39 N           1.1894  -15.0984  -42.9877 N.am      7 UNK        -0.5000 
     40 C           1.4535  -14.1369  -42.0948 C.2       6 UNK         0.5000 
     41 O           1.8465  -14.3564  -40.9484 O.2       6 UNK        -0.5000 
     42 CA          1.2289  -12.6849  -42.5517 C.3       6 UNK         0.1400 
     43 CB          2.4816  -12.1416  -43.2571 C.3       6 UNK        -0.1800 
     44 N           0.0912  -12.5741  -43.4601 N.am      6 UNK        -0.5000 
     45 C          -1.1913  -12.4731  -43.0918 C.2       5 UNK         0.5000 
     46 O          -1.5607  -12.4166  -41.9175 O.2       5 UNK        -0.5000 
     47 CA         -2.2244  -12.4367  -44.2400 C.3       5 UNK         0.1400 
     48 CB         -3.5933  -11.8685  -43.8122 C.3       5 UNK        -0.1800 
     49 N          -1.7207  -11.7568  -45.4390 N.am      5 UNK        -0.5000 
     50 C          -1.3609  -10.4706  -45.5705 C.2       4 UNK         0.5000 
     51 O          -1.4699   -9.6292  -44.6781 O.2       4 UNK        -0.5000 
     52 CA         -0.7512  -10.0525  -46.9258 C.3       4 UNK         0.1400 
     53 CB          0.7702   -9.8835  -46.7894 C.3       4 UNK        -0.1800 
     54 N          -1.0182  -11.0068  -48.0043 N.am      4 UNK        -0.5000 
     55 C          -2.2026  -11.1819  -48.6076 C.2       3 UNK         0.5000 
     56 O          -3.1967  -10.4919  -48.3809 O.2       3 UNK        -0.5000 
     57 CA         -2.2990  -12.3642  -49.5903 C.3       3 UNK         0.1400 
     58 CB         -1.8011  -11.9665  -50.9884 C.3       3 UNK        -0.1800 
     59 N          -1.5442  -13.5228  -49.1048 N.am      3 UNK        -0.5000 
     60 C          -1.9451  -14.3032  -48.0901 C.2       2 UNK         0.5000 
     61 O          -3.0386  -14.1899  -47.5376 O.2       2 UNK        -0.5000 
     62 CA         -0.9494  -15.3491  -47.5622 C.3       2 UNK         0.1400 
     63 CB         -1.2038  -16.7314  -48.1707 C.3       2 UNK        -0.1800 
     64 N           0.4458  -14.9668  -47.7821 N.am      2 UNK        -0.5000 
     65 C           1.1208  -14.1382  -46.9752 C.2       1 UNK         0.5000 
     66 O           0.6328  -13.6257  -45.9690 O.2       1 UNK        -0.5000 
     67 C           2.7910  -25.7300  -48.5738 C.2       11 UNK         0.5000 
     68 O           3.5124  -26.6548  -48.9506 O.2       11 UNK        -0.5000 
     69 N           2.0714  -24.9661  -49.4079 N.am      12 UNK        -0.5000 
     70 CA          2.0078  -25.1485  -50.8596 C.3       12 UNK         0.1400 
     71 CB          2.5088  -23.8711  -51.5498 C.3       12 UNK        -0.1800 
     72 C           0.5827  -25.4821  -51.3286 C.2       12 UNK         0.5000 
     73 O           0.4172  -26.3178  -52.2176 O.2       12 UNK        -0.5000 
     74 N          -0.4208  -24.8260  -50.7321 N.am      13 UNK        -0.5000 
     75 CA         -1.8321  -24.9334  -51.1029 C.3       13 UNK         0.1400 
     76 CB         -2.5555  -23.6681  -50.6199 C.3       13 UNK        -0.1800 
     77 C          -2.5285  -26.1972  -50.5600 C.2       13 UNK         0.5000 
     78 O          -3.6463  -26.4889  -50.9828 O.2       13 UNK        -0.5000 
     79 N          -1.8753  -26.9048  -49.6262 N.am      14 UNK        -0.5000 
     80 CA         -2.2983  -28.1371  -48.9450 C.3       14 UNK         0.1400 
     81 CB         -2.6334  -29.2576  -49.9511 C.3       14 UNK        -0.1800 
     82 C          -3.4149  -27.9499  -47.8954 C.2       14 UNK         0.5000 
     83 O          -3.7570  -28.9156  -47.2109 O.2       14 UNK        -0.5000 
     84 N          -3.9426  -26.7299  -47.7487 N.am      15 UNK        -0.5000 
     85 CA         -4.9436  -26.3481  -46.7611 C.3       15 UNK         0.1400 
     86 CB         -6.3471  -26.7600  -47.2400 C.3       15 UNK        -0.1800 
     87 C          -4.8684  -24.8323  -46.5582 C.2       15 UNK         0.5000 
     88 O          -4.5580  -24.1064  -47.5056 O.2       15 UNK        -0.5000 
     89 N          -5.1874  -24.3726  -45.3422 N.am      16 UNK        -0.5000 
     90 CA         -5.2212  -22.9508  -44.9850 C.3       16 UNK         0.1400 
     91 CB         -5.2869  -22.8089  -43.4577 C.3       16 UNK        -0.1800 
     92 C          -6.3803  -22.1911  -45.6573 C.2       16 UNK         0.5000 
     93 O          -6.2469  -20.9996  -45.9286 O.2       16 UNK        -0.5000 
     94 N          -7.4775  -22.8993  -45.9597 N.am      17 UNK        -0.5000 
     95 CA         -8.6179  -22.3782  -46.7177 C.3       17 UNK         0.1400 
     96 CB         -9.7978  -23.3516  -46.5744 C.3       17 UNK        -0.1800 
     97 C          -8.2920  -22.1443  -48.2071 C.2       17 UNK         0.5000 
     98 O          -8.9166  -21.2927  -48.8396 O.2       17 UNK        -0.5000 
     99 N          -7.3153  -22.8947  -48.7348 N.am      18 UNK        -0.5000 
    100 CA        -6.8444  -22.8128  -50.1170 C.3       18 UNK         0.1400 
    101 CB        -6.3988  -24.2143  -50.5640 C.3       18 UNK        -0.1800 
    102 C         -5.7071  -21.7892  -50.3012 C.2       18 UNK         0.5000 
    103 O         -5.3056  -21.5401  -51.4385 O.2       18 UNK        -0.5000 
    104 N         -5.2054  -21.2033  -49.2014 N.am      19 UNK        -0.5000 
    105 CA        -4.0637  -20.2817  -49.1665 C.3       19 UNK         0.1400 
    106 CB        -3.7324  -19.9345  -47.7092 C.3       19 UNK        -0.1800 
    107 C         -4.2337  -18.9956  -49.9990 C.2       19 UNK         0.5000 
    108 O         -3.2335  -18.3745  -50.3630 O.2       19 UNK        -0.5000 
    109 N         -5.4820  -18.6525  -50.3454 N.am      20 UNK        -0.5000 
    110 CA        -5.8569  -17.5936  -51.2867 C.3       20 UNK         0.1400 
    111 CB        -7.3897  -17.5056  -51.3411 C.3       20 UNK        -0.1800 
    112 C         -5.2738  -17.7703  -52.7073 C.2       20 UNK         0.5000 
    113 O         -5.2186  -16.7948  -53.4564 O.2       20 UNK        -0.5000 
    114 N         -4.8215  -18.9887  -53.0456 N.am      21 UNK        -0.5000 
    115 CA        -4.0442  -19.2921  -54.2481 C.3       21 UNK         0.1400 
    116 CB        -3.8722  -20.8147  -54.3618 C.3       21 UNK        -0.1800 
    117 C         -2.6678  -18.5928  -54.2789 C.2       21 UNK         0.5000 
    118 O         -2.1840  -18.2788  -55.3675 O.2       21 UNK        -0.5000 
    119 N         -2.0759  -18.3521  -53.1002 N.am      22 UNK        -0.5000 
    120 CA        -0.8552  -17.5512  -52.9177 C.3       22 UNK         0.1400 
    121 C         -1.1715  -16.1372  -52.3530 C.2       22 UNK         0.5000 
    122 N         -2.1520  -15.9904  -51.4691 N.am      22 UNK        -0.7600 
    123 O         -0.5358  -15.1588  -52.7334 O.2       22 UNK        -0.5000 
    124 C124        0.1811  -18.2944  -52.0340 C.3       23 UNK        -0.0398 
    125 S125        1.8956  -17.7801  -52.3914 S.3       23 UNK        -0.2404 
    126 C126        2.8545  -19.2585  -51.9007 C.3       23 UNK        -0.0205 
    127 H127        1.6514  -13.3998  -51.7385 H         1 UNK         0.0600 
    128 H128        3.2986  -13.8695  -51.3094 H         1 UNK         0.0600 
    129 H129        2.8998  -12.1639  -51.5454 H         1 UNK         0.0600 
    130 H130        3.5100  -14.3915  -49.1418 H         1 UNK         0.3000 
    131 H131        2.7052  -12.7510  -47.0205 H         1 UNK         0.0600 
    132 H132        4.4491  -14.0077  -46.3144 H         1 UNK         0.0800 
    133 H133        3.2110  -14.9978  -45.6261 H         1 UNK         0.0800 
    134 H134        3.2534  -17.7269  -46.1301 H         1 UNK         0.0800 
    135 H135        2.1065  -17.0252  -47.2413 H         1 UNK         0.0800 
    136 H136        2.6311  -17.3985  -49.8112 H         1 UNK         0.1150 
    137 H137        3.7511  -21.4527  -50.6454 H         1 UNK         0.1150 
    138 H138        4.0673  -19.9042  -46.6629 H         1 UNK         0.1150 
    139 H139        4.3014  -22.9485  -48.9064 H         1 UNK         0.0800 
    140 H140        5.5154  -22.1491  -47.9288 H         1 UNK         0.0800 
    141 H141        4.1173  -24.8133  -45.5429 H         1 UNK         0.0800 
    142 H142        4.8193  -24.7921  -47.1248 H         1 UNK         0.0800 
    143 H143        2.7797  -26.4025  -46.5610 H         1 UNK         0.0600 
    144 H144        1.4971  -23.9167  -46.2694 H         1 UNK         0.3000 
    145 H145       -1.7652  -24.5817  -47.2217 H         1 UNK         0.0600 
    146 H146       -2.3511  -23.9901  -44.8527 H         1 UNK         0.0600 
    147 H147       -1.8728  -25.6744  -44.9945 H         1 UNK         0.0600 
    148 H148       -0.7488  -24.4953  -44.3272 H         1 UNK         0.0600 
    149 H149       -0.7348  -22.3982  -45.7831 H         1 UNK         0.3000 
    150 H150        1.2912  -20.8168  -47.4125 H         1 UNK         0.0600 
    151 H151        0.5097  -20.6164  -49.7661 H         1 UNK         0.0600 
    152 H152        0.3386  -19.1134  -48.8907 H         1 UNK         0.0600 
    153 H153       -1.0781  -20.1080  -49.2120 H         1 UNK         0.0600 
    154 H154       -1.3975  -19.7870  -46.7941 H         1 UNK         0.3000 
    155 H155       -1.6094  -18.5556  -44.9456 H         1 UNK         0.0600 
    156 H156       -1.2541  -20.8356  -42.9211 H         1 UNK         0.0600 
    157 H157       -2.4636  -20.7787  -44.1981 H         1 UNK         0.0600 
    158 H158       -2.5259  -19.6143  -42.8861 H         1 UNK         0.0600 
    159 H159       -0.0849  -18.7016  -42.4913 H         1 UNK         0.3000 
    160 H160        0.8707  -16.7614  -41.7636 H         1 UNK         0.0600 
    161 H161        3.2200  -16.7396  -43.7574 H         1 UNK         0.0600 
    162 H162        2.8414  -18.0659  -42.6656 H         1 UNK         0.0600 
    163 H163        3.3504  -16.5167  -42.0141 H         1 UNK         0.0600 
    164 H164        0.8471  -14.8499  -43.9093 H         1 UNK         0.3000 
    165 H165        1.0424  -12.0738  -41.6660 H         1 UNK         0.0600 
    166 H166        3.3502  -12.1858  -42.5990 H         1 UNK         0.0600 
    167 H167        2.7197  -12.7130  -44.1549 H         1 UNK         0.0600 
    168 H168        2.3472  -11.1001  -43.5501 H         1 UNK         0.0600 
    169 H169        0.2910  -12.7003  -44.4501 H         1 UNK         0.3000 
    170 H170       -2.3805  -13.4762  -44.5321 H         1 UNK         0.0600 
    171 H171       -4.0368  -12.4732  -43.0204 H         1 UNK         0.0600 
    172 H172       -3.5110  -10.8487  -43.4357 H         1 UNK         0.0600 
    173 H173       -4.2948  -11.8634  -44.6466 H         1 UNK         0.0600 
    174 H174       -1.5519  -12.3569  -46.2332 H         1 UNK         0.3000 
    175 H175       -1.1831   -9.0884  -47.2016 H         1 UNK         0.0600 
    176 H176        1.2180   -9.5581  -47.7286 H         1 UNK         0.0600 
    177 H177        1.0155   -9.1351  -46.0348 H         1 UNK         0.0600 
    178 H178        1.2517  -10.8162  -46.4942 H         1 UNK         0.0600 
    179 H179       -0.2295  -11.5642  -48.3215 H         1 UNK         0.3000 
    180 H180       -3.3512  -12.6444  -49.6757 H         1 UNK         0.0600 
    181 H181       -0.7538  -11.6645  -50.9785 H         1 UNK         0.0600 
    182 H182       -2.3781  -11.1287  -51.3815 H         1 UNK         0.0600 
    183 H183       -1.9036  -12.7903  -51.6948 H         1 UNK         0.0600 
    184 H184       -0.6078  -13.6349  -49.4668 H         1 UNK         0.3000 
    185 H185       -1.1344  -15.4300  -46.4894 H         1 UNK         0.0600 
    186 H186       -2.2641  -16.9840  -48.1462 H         1 UNK         0.0600 
    187 H187       -0.8707  -16.7880  -49.2052 H         1 UNK         0.0600 
    188 H188       -0.6733  -17.4936  -47.6024 H         1 UNK         0.0600 
    189 H189        0.9079  -15.3401  -48.5973 H         1 UNK         0.3000 
    190 H190        1.4875  -24.2309  -49.0211 H         1 UNK         0.3000 
    191 H191        2.6493  -25.9732  -51.1765 H         1 UNK         0.0600 
    192 H192        3.5577  -23.6912  -51.3161 H         1 UNK         0.0600 
    193 H193        2.4290  -23.9529  -52.6346 H         1 UNK         0.0600 
    194 H194        1.9354  -22.9955  -51.2418 H         1 UNK         0.0600 
    195 H195       -0.2034  -24.1297  -50.0211 H         1 UNK         0.3000 
    196 H196       -1.9013  -24.9658  -52.1923 H         1 UNK         0.0600 
    197 H197       -3.5777  -23.6520  -50.9928 H         1 UNK         0.0600 
    198 H198       -2.0668  -22.7647  -50.9856 H         1 UNK         0.0600 
    199 H199       -2.5979  -23.6110  -49.5315 H         1 UNK         0.0600 
    200 H200       -0.9788  -26.5504  -49.3179 H         1 UNK         0.3000 
    201 H201       -1.4242  -28.4694  -48.3839 H         1 UNK         0.0600 
    202 H202       -2.7626  -30.2124  -49.4403 H         1 UNK         0.0600 
    203 H203       -3.5567  -29.0568  -50.4946 H         1 UNK         0.0600 
    204 H204       -1.8333  -29.3866  -50.6801 H         1 UNK         0.0600 
    205 H205       -3.6233  -25.9741  -48.3398 H         1 UNK         0.3000 
    206 H206       -4.7183  -26.8391  -45.8119 H         1 UNK         0.0600 
    207 H207       -6.4240  -27.8410  -47.3574 H         1 UNK         0.0600 
    208 H208       -7.1124  -26.4588  -46.5238 H         1 UNK         0.0600 
    209 H209       -6.5943  -26.3034  -48.1992 H         1 UNK         0.0600 
    210 H210       -5.4347  -25.0269  -44.6132 H         1 UNK         0.3000 
    211 H211       -4.2915  -22.4913  -45.3273 H         1 UNK         0.0600 
    212 H212       -6.1890  -23.2650  -43.0483 H         1 UNK         0.0600 
    213 H213       -5.2864  -21.7585  -43.1631 H         1 UNK         0.0600 
    214 H214       -4.4258  -23.2781  -42.9813 H         1 UNK         0.0600 
    215 H215       -7.5166  -23.8696  -45.6856 H         1 UNK         0.3000 
    216 H216       -8.9101  -21.4181  -46.2869 H         1 UNK         0.0600 
    217 H217      -10.6753  -22.9828  -47.1073 H         1 UNK         0.0600 
    218 H218      -10.0826  -23.4752  -45.5294 H         1 UNK         0.0600 
    219 H219       -9.5591  -24.3368  -46.9773 H         1 UNK         0.0600 
    220 H220       -6.8196  -23.5392  -48.1357 H         1 UNK         0.3000 
    221 H221       -7.6660  -22.5002  -50.7647 H         1 UNK         0.0600 
    222 H222       -5.5827  -24.5952  -49.9499 H         1 UNK         0.0600 
    223 H223       -7.2213  -24.9270  -50.5033 H         1 UNK         0.0600 
    224 H224       -6.0536  -24.2076  -51.5987 H         1 UNK         0.0600 
    225 H225       -5.6017  -21.4560  -48.3073 H         1 UNK         0.3000 
    226 H226       -3.2164  -20.8210  -49.5920 H         1 UNK         0.0600 
    227 H227       -2.8760  -19.2646  -47.6531 H         1 UNK         0.0600 
    228 H228       -4.5658  -19.4278  -47.2219 H         1 UNK         0.0600 
    229 H229       -3.4944  -20.8294  -47.1337 H         1 UNK         0.0600 
    230 H230       -6.2346  -19.2312  -50.0027 H         1 UNK         0.3000 
    231 H231       -5.4699  -16.6512  -50.8940 H         1 UNK         0.0600 
    232 H232       -7.8320  -18.4348  -51.7026 H         1 UNK         0.0600 
    233 H233       -7.7131  -16.7059  -52.0088 H         1 UNK         0.0600 
    234 H234       -7.8086  -17.2940  -50.3571 H         1 UNK         0.0600 
    235 H235       -4.9498  -19.7551  -52.3925 H         1 UNK         0.3000 
    236 H236       -4.6133  -18.9446  -55.1126 H         1 UNK         0.0600 
    237 H237       -4.8379  -21.3186  -54.4067 H         1 UNK         0.0600 
    238 H238       -3.3235  -21.0807  -55.2661 H         1 UNK         0.0600 
    239 H239       -3.3231  -21.2215  -53.5114 H         1 UNK         0.0600 
    240 H240       -2.5662  -18.6027  -52.2497 H         1 UNK         0.3000 
    241 H241       -0.3964  -17.3933  -53.8956 H         1 UNK         0.0600 
    242 H242       -2.6361  -16.8002  -51.0914 H         1 UNK         0.3800 
    243 H243       -2.3699  -15.0696  -51.1289 H         1 UNK         0.3800 
    244 H244        0.1117  -19.3683  -52.2125 H         1 UNK         0.0800 
    245 H245       -0.0272  -18.1531  -50.9744 H         1 UNK         0.0800 
    246 H246        3.8127  -19.2176  -52.4200 H         1 UNK         0.0800 
    247 H247        2.3485  -20.1515  -52.2705 H         1 UNK         0.0800 
@<TRIPOS>BOND
     1    1    2 1    
     2    1  127 1    
     3    1  128 1    
     4    1  129 1    
     5    2    3 2    
     6    2    4 am   BACKBONE|DICT|INTERRES
     7    4    5 1    
     8    4  130 1    
     9    5    6 1    
    10    5   65 1    
    11    5  131 1    
    12    6    7 1    
    13    6  132 1    
    14    6  133 1    
    15    7    8 1    
    16    8    9 1    
    17    8  134 1    
    18    8  135 1    
    19    9   10 ar   
    20    9   14 ar   
    21   10   11 ar   
    22   10  136 1    
    23   11   12 ar   
    24   11  126 1    
    25   12   13 ar   
    26   12  137 1    
    27   13   14 ar   
    28   13   15 1    
    29   14  138 1    
    30   15   16 1    
    31   15  139 1    
    32   15  140 1    
    33   16   17 1    
    34   17   18 1    
    35   17  141 1    
    36   17  142 1    
    37   18   19 1    
    38   18   67 1    
    39   18  143 1    
    40   19   20 am   BACKBONE|DICT|INTERRES
    41   19  144 1    
    42   20   21 2    
    43   20   22 1    
    44   22   23 1    
    45   22   24 1    
    46   22  145 1    
    47   23  146 1    
    48   23  147 1    
    49   23  148 1    
    50   24   25 am   BACKBONE|DICT|INTERRES
    51   24  149 1    
    52   25   26 2    
    53   25   27 1    
    54   27   28 1    
    55   27   29 1    
    56   27  150 1    
    57   28  151 1    
    58   28  152 1    
    59   28  153 1    
    60   29   30 am   BACKBONE|DICT|INTERRES
    61   29  154 1    
    62   30   31 2    
    63   30   32 1    
    64   32   33 1    
    65   32   34 1    
    66   32  155 1    
    67   33  156 1    
    68   33  157 1    
    69   33  158 1    
    70   34   35 am   BACKBONE|DICT|INTERRES
    71   34  159 1    
    72   35   36 2    
    73   35   37 1    
    74   37   38 1    
    75   37   39 1    
    76   37  160 1    
    77   38  161 1    
    78   38  162 1    
    79   38  163 1    
    80   39   40 am   BACKBONE|DICT|INTERRES
    81   39  164 1    
    82   40   41 2    
    83   40   42 1    
    84   42   43 1    
    85   42   44 1    
    86   42  165 1    
    87   43  166 1    
    88   43  167 1    
    89   43  168 1    
    90   44   45 am   BACKBONE|DICT|INTERRES
    91   44  169 1    
    92   45   46 2    
    93   45   47 1    
    94   47   48 1    
    95   47   49 1    
    96   47  170 1    
    97   48  171 1    
    98   48  172 1    
    99   48  173 1    
   100   49   50 am   BACKBONE|DICT|INTERRES
   101   49  174 1    
   102   50   51 2    
   103   50   52 1    
   104   52   53 1    
   105   52   54 1    
   106   52  175 1    
   107   53  176 1    
   108   53  177 1    
   109   53  178 1    
   110   54   55 am   BACKBONE|DICT|INTERRES
   111   54  179 1    
   112   55   56 2    
   113   55   57 1    
   114   57   58 1    
   115   57   59 1    
   116   57  180 1    
   117   58  181 1    
   118   58  182 1    
   119   58  183 1    
   120   59   60 am   BACKBONE|DICT|INTERRES
   121   59  184 1    
   122   60   61 2    
   123   60   62 1    
   124   62   63 1    
   125   62   64 1    
   126   62  185 1    
   127   63  186 1    
   128   63  187 1    
   129   63  188 1    
   130   64   65 am   BACKBONE|DICT|INTERRES
   131   64  189 1    
   132   65   66 2    
   133   67   68 2    
   134   67   69 am   BACKBONE|DICT|INTERRES
   135   69   70 1    
   136   69  190 1    
   137   70   71 1    
   138   70   72 1    
   139   70  191 1    
   140   71  192 1    
   141   71  193 1    
   142   71  194 1    
   143   72   73 2    
   144   72   74 am   BACKBONE|DICT|INTERRES
   145   74   75 1    
   146   74  195 1    
   147   75   76 1    
   148   75   77 1    
   149   75  196 1    
   150   76  197 1    
   151   76  198 1    
   152   76  199 1    
   153   77   78 2    
   154   77   79 am   BACKBONE|DICT|INTERRES
   155   79   80 1    
   156   79  200 1    
   157   80   81 1    
   158   80   82 1    
   159   80  201 1    
   160   81  202 1    
   161   81  203 1    
   162   81  204 1    
   163   82   83 2    
   164   82   84 am   BACKBONE|DICT|INTERRES
   165   84   85 1    
   166   84  205 1    
   167   85   86 1    
   168   85   87 1    
   169   85  206 1    
   170   86  207 1    
   171   86  208 1    
   172   86  209 1    
   173   87   88 2    
   174   87   89 am   BACKBONE|DICT|INTERRES
   175   89   90 1    
   176   89  210 1    
   177   90   91 1    
   178   90   92 1    
   179   90  211 1    
   180   91  212 1    
   181   91  213 1    
   182   91  214 1    
   183   92   93 2    
   184   92   94 am   BACKBONE|DICT|INTERRES
   185   94   95 1    
   186   94  215 1    
   187   95   96 1    
   188   95   97 1    
   189   95  216 1    
   190   96  217 1    
   191   96  218 1    
   192   96  219 1    
   193   97   98 2    
   194   97   99 am   BACKBONE|DICT|INTERRES
   195   99  100 1    
   196   99  220 1    
   197  100  101 1    
   198  100  102 1    
   199  100  221 1    
   200  101  222 1    
   201  101  223 1    
   202  101  224 1    
   203  102  103 2    
   204  102  104 am   BACKBONE|DICT|INTERRES
   205  104  105 1    
   206  104  225 1    
   207  105  106 1    
   208  105  107 1    
   209  105  226 1    
   210  106  227 1    
   211  106  228 1    
   212  106  229 1    
   213  107  108 2    
   214  107  109 am   BACKBONE|DICT|INTERRES
   215  109  110 1    
   216  109  230 1    
   217  110  111 1    
   218  110  112 1    
   219  110  231 1    
   220  111  232 1    
   221  111  233 1    
   222  111  234 1    
   223  112  113 2    
   224  112  114 am   BACKBONE|DICT|INTERRES
   225  114  115 1    
   226  114  235 1    
   227  115  116 1    
   228  115  117 1    
   229  115  236 1    
   230  116  237 1    
   231  116  238 1    
   232  116  239 1    
   233  117  118 2    
   234  117  119 am   BACKBONE|DICT|INTERRES
   235  119  120 1    
   236  119  240 1    
   237  120  121 1    
   238  120  124 1    
   239  120  241 1    
   240  121  122 am   BACKBONE|DICT|INTERRES
   241  121  123 2    
   242  122  242 1    
   243  122  243 1    
   244  124  125 1    
   245  124  244 1    
   246  124  245 1    
   247  125  126 1    
   248  126  246 1    
   249  126  247 1    
@<TRIPOS>SUBSTRUCTURE
     1 UNK         1 GROUP             0       ****    0 ROOT    
