@<TRIPOS>MOLECULE
3R540
247   249    1
SMALL
USER_CHARGES


@<TRIPOS>ATOM
      1 CA         -0.4045  -14.2874  -54.6038 C.3       0 UNK        -0.1800 
      2 C           0.3112  -13.7946  -53.3544 C.2       0 UNK         0.5000 
      3 O           0.9633  -12.7502  -53.3906 O.2       0 UNK        -0.5000 
      4 N           0.2010  -14.5486  -52.2551 N.am      1 UNK        -0.5000 
      5 CA          0.7699  -14.1988  -50.9475 C.3       1 UNK         0.1400 
      6 C6          0.8444  -15.4263  -50.0050 C.3       23 UNK        -0.0398 
      7 S7          2.2032  -16.5541  -50.4702 S.3       23 UNK        -0.2404 
      8 C8          2.5599  -17.3982  -48.8947 C.3       23 UNK        -0.0205 
      9 C9          1.6297  -18.5764  -48.6319 C.ar      23 UNK        -0.0193 
     10 C10         0.3174  -18.3557  -48.2111 C.ar      23 UNK        -0.1150 
     11 C11        -0.5296  -19.4213  -47.8933 C.ar      23 UNK        -0.0193 
     12 C12        -0.0476  -20.7292  -48.0089 C.ar      23 UNK        -0.1150 
     13 C13         1.2650  -20.9683  -48.4250 C.ar      23 UNK        -0.0193 
     14 C14         2.0954  -19.8896  -48.7464 C.ar      23 UNK        -0.1150 
     15 C15         1.8023  -22.3887  -48.4698 C.3       23 UNK        -0.0205 
     16 S16         2.3975  -22.8842  -46.8237 S.3       23 UNK        -0.2404 
     17 C17         1.4507  -24.4068  -46.4590 C.3       23 UNK        -0.0398 
     18 CA         -0.0459  -24.2311  -46.0499 C.3       11 UNK         0.1400 
     19 N          -0.2734  -22.9915  -45.2914 N.am      11 UNK        -0.5000 
     20 C          -1.2282  -22.7582  -44.3821 C.2       10 UNK         0.5000 
     21 O          -2.1262  -23.5677  -44.1452 O.2       10 UNK        -0.5000 
     22 CA         -1.2109  -21.4035  -43.6307 C.3       10 UNK         0.1400 
     23 CB         -1.5571  -21.5722  -42.1380 C.3       10 UNK        -0.1800 
     24 N           0.0098  -20.5962  -43.7659 N.am      10 UNK        -0.5000 
     25 C           1.2700  -20.9374  -43.4554 C.2       9 UNK         0.5000 
     26 O           1.6061  -22.0481  -43.0441 O.2       9 UNK        -0.5000 
     27 CA          2.3358  -19.8427  -43.6375 C.3       9 UNK         0.1400 
     28 CB          2.4279  -19.3785  -45.1006 C.3       9 UNK        -0.1800 
     29 N           2.1007  -18.6815  -42.7830 N.am      9 UNK        -0.5000 
     30 C           2.2344  -18.6591  -41.4502 C.2       8 UNK         0.5000 
     31 O           2.5365  -19.6415  -40.7718 O.2       8 UNK        -0.5000 
     32 CA          2.0144  -17.3016  -40.7585 C.3       8 UNK         0.1400 
     33 CB          3.2490  -16.3992  -40.9135 C.3       8 UNK        -0.1800 
     34 N           0.8400  -16.6060  -41.2794 N.am      8 UNK        -0.5000 
     35 C          -0.4194  -16.8726  -40.9082 C.2       7 UNK         0.5000 
     36 O          -0.7189  -17.6975  -40.0442 O.2       7 UNK        -0.5000 
     37 CA         -1.5369  -16.0900  -41.6252 C.3       7 UNK         0.1400 
     38 CB         -1.8273  -14.7720  -40.8915 C.3       7 UNK        -0.1800 
     39 N          -1.2329  -15.8014  -43.0267 N.am      7 UNK        -0.5000 
     40 C          -1.0730  -16.7327  -43.9760 C.2       6 UNK         0.5000 
     41 O          -1.2036  -17.9423  -43.7895 O.2       6 UNK        -0.5000 
     42 CA         -0.6504  -16.2370  -45.3647 C.3       6 UNK         0.1400 
     43 CB         -1.8668  -15.7704  -46.1739 C.3       6 UNK        -0.1800 
     44 N           0.3470  -15.1712  -45.3357 N.am      6 UNK        -0.5000 
     45 C           1.5721  -15.2700  -44.8044 C.2       5 UNK         0.5000 
     46 O           2.0023  -16.2825  -44.2571 O.2       5 UNK        -0.5000 
     47 CA          2.4421  -14.0054  -44.8500 C.3       5 UNK         0.1400 
     48 CB          3.0522  -13.8062  -46.2469 C.3       5 UNK        -0.1800 
     49 N           1.6732  -12.8225  -44.4671 N.am      5 UNK        -0.5000 
     50 C           1.2541  -12.5688  -43.2189 C.2       4 UNK         0.5000 
     51 O           1.5323  -13.2702  -42.2457 O.2       4 UNK        -0.5000 
     52 CA          0.3434  -11.3406  -43.0363 C.3       4 UNK         0.1400 
     53 CB          1.1821  -10.0659  -42.8596 C.3       4 UNK        -0.1800 
     54 N          -0.5879  -11.1565  -44.1515 N.am      4 UNK        -0.5000 
     55 C          -1.6019  -11.9865  -44.4339 C.2       3 UNK         0.5000 
     56 O          -1.8700  -12.9888  -43.7712 O.2       3 UNK        -0.5000 
     57 CA         -2.4254  -11.6642  -45.6964 C.3       3 UNK         0.1400 
     58 CB         -3.5156  -10.6298  -45.3796 C.3       3 UNK        -0.1800 
     59 N          -1.6165  -11.1898  -46.8254 N.am      3 UNK        -0.5000 
     60 C          -0.6375  -11.8951  -47.4064 C.2       2 UNK         0.5000 
     61 O          -0.2668  -13.0009  -47.0080 O.2       2 UNK        -0.5000 
     62 CA          0.0861  -11.2378  -48.5951 C.3       2 UNK         0.1400 
     63 CB          1.2033  -10.3136  -48.0861 C.3       2 UNK        -0.1800 
     64 N           0.6779  -12.2499  -49.4709 N.am      2 UNK        -0.5000 
     65 C          -0.0220  -13.0507  -50.2849 C.2       1 UNK         0.5000 
     66 O          -1.2319  -12.9262  -50.4895 O.2       1 UNK        -0.5000 
     67 C          -1.0486  -24.4413  -47.2139 C.2       11 UNK         0.5000 
     68 O          -0.6585  -24.8774  -48.2987 O.2       11 UNK        -0.5000 
     69 N          -2.3311  -24.1398  -46.9699 N.am      12 UNK        -0.5000 
     70 CA         -3.4261  -24.1355  -47.9423 C.3       12 UNK         0.1400 
     71 CB         -4.7388  -23.7718  -47.2299 C.3       12 UNK        -0.1800 
     72 C          -3.5866  -25.4539  -48.7182 C.2       12 UNK         0.5000 
     73 O          -3.6378  -25.4387  -49.9484 O.2       12 UNK        -0.5000 
     74 N          -3.6320  -26.5700  -47.9792 N.am      13 UNK        -0.5000 
     75 CA         -3.8131  -27.9158  -48.5248 C.3       13 UNK         0.1400 
     76 CB         -4.1770  -28.8760  -47.3823 C.3       13 UNK        -0.1800 
     77 C          -2.5839  -28.4339  -49.2930 C.2       13 UNK         0.5000 
     78 O          -2.7465  -29.2015  -50.2416 O.2       13 UNK        -0.5000 
     79 N          -1.3839  -28.0062  -48.8772 N.am      14 UNK        -0.5000 
     80 CA         -0.1172  -28.3744  -49.5098 C.3       14 UNK         0.1400 
     81 CB          1.0376  -28.1395  -48.5262 C.3       14 UNK        -0.1800 
     82 C           0.1099  -27.6053  -50.8217 C.2       14 UNK         0.5000 
     83 O           0.5633  -28.1977  -51.8016 O.2       14 UNK        -0.5000 
     84 N          -0.2329  -26.3091  -50.8251 N.am      15 UNK        -0.5000 
     85 CA         -0.1967  -25.4522  -52.0108 C.3       15 UNK         0.1400 
     86 CB         -0.2657  -23.9816  -51.5729 C.3       15 UNK        -0.1800 
     87 C          -1.3175  -25.7723  -53.0180 C.2       15 UNK         0.5000 
     88 O          -1.1444  -25.5174  -54.2101 O.2       15 UNK        -0.5000 
     89 N          -2.4497  -26.2937  -52.5208 N.am      16 UNK        -0.5000 
     90 CA         -3.6802  -26.7002  -53.2159 C.3       16 UNK         0.1400 
     91 CB         -3.4058  -27.7708  -54.2885 C.3       16 UNK        -0.1800 
     92 C          -4.4893  -25.5183  -53.7833 C.2       16 UNK         0.5000 
     93 O          -5.6963  -25.4405  -53.5539 O.2       16 UNK        -0.5000 
     94 N          -3.8043  -24.5921  -54.4642 N.am      17 UNK        -0.5000 
     95 CA         -4.3183  -23.2831  -54.8734 C.3       17 UNK         0.1400 
     96 CB         -3.4371  -22.7442  -56.0110 C.3       17 UNK        -0.1800 
     97 C          -4.3607  -22.2770  -53.7036 C.2       17 UNK         0.5000 
     98 O          -4.9615  -21.2103  -53.8431 O.2       17 UNK        -0.5000 
     99 N          -3.7009  -22.6255  -52.5858 N.am      18 UNK        -0.5000 
    100 CA        -3.6435  -21.9005  -51.3122 C.3       18 UNK         0.1400 
    101 CB        -5.0054  -21.9853  -50.6068 C.3       18 UNK        -0.1800 
    102 C         -3.1095  -20.4599  -51.4413 C.2       18 UNK         0.5000 
    103 O         -3.5704  -19.5530  -50.7417 O.2       18 UNK        -0.5000 
    104 N         -2.1760  -20.2808  -52.3902 N.am      19 UNK        -0.5000 
    105 CA        -1.4760  -19.0437  -52.7560 C.3       19 UNK         0.1400 
    106 CB        -0.4791  -18.6733  -51.6468 C.3       19 UNK        -0.1800 
    107 C         -2.3994  -17.8564  -53.1083 C.2       19 UNK         0.5000 
    108 O         -1.9588  -16.7076  -53.0384 O.2       19 UNK        -0.5000 
    109 N         -3.6690  -18.1561  -53.4310 N.am      20 UNK        -0.5000 
    110 CA        -4.7949  -17.2295  -53.5835 C.3       20 UNK         0.1400 
    111 CB        -4.6184  -16.3785  -54.8584 C.3       20 UNK        -0.1800 
    112 C         -5.0622  -16.3688  -52.3240 C.2       20 UNK         0.5000 
    113 O         -5.6119  -15.2724  -52.4492 O.2       20 UNK        -0.5000 
    114 N         -4.6556  -16.8598  -51.1425 N.am      21 UNK        -0.5000 
    115 CA        -4.5874  -16.0753  -49.9086 C.3       21 UNK         0.1400 
    116 CB        -3.1298  -15.6500  -49.6825 C.3       21 UNK        -0.1800 
    117 C         -5.1425  -16.8103  -48.6772 C.2       21 UNK         0.5000 
    118 O         -5.5889  -16.1380  -47.7468 O.2       21 UNK        -0.5000 
    119 N         -5.1292  -18.1494  -48.6784 N.am      22 UNK        -0.5000 
    120 CA        -5.6728  -18.9944  -47.5967 C.3       22 UNK         0.1400 
    121 C         -6.7227  -20.0332  -48.0833 C.2       22 UNK         0.5000 
    122 N         -7.2717  -19.8950  -49.2841 N.am      22 UNK        -0.7600 
    123 O         -7.0778  -20.9562  -47.3559 O.2       22 UNK        -0.5000 
    124 C124       -4.5693  -19.5798  -46.6689 C.3       23 UNK        -0.0398 
    125 S125       -3.1757  -20.4045  -47.5196 S.3       23 UNK        -0.2404 
    126 C126       -1.9181  -19.1008  -47.3508 C.3       23 UNK        -0.0205 
    127 H127       -1.4704  -14.0692  -54.5385 H         1 UNK         0.0600 
    128 H128       -0.0079  -13.8006  -55.4947 H         1 UNK         0.0600 
    129 H129       -0.2793  -15.3634  -54.7246 H         1 UNK         0.0600 
    130 H130       -0.3968  -15.3669  -52.2855 H         1 UNK         0.3000 
    131 H131        1.7863  -13.8335  -51.1125 H         1 UNK         0.0600 
    132 H132       -0.0984  -15.9740  -50.0154 H         1 UNK         0.0800 
    133 H133        1.0064  -15.1132  -48.9714 H         1 UNK         0.0800 
    134 H134        2.5047  -16.6919  -48.0650 H         1 UNK         0.0800 
    135 H135        3.5946  -17.7429  -48.9213 H         1 UNK         0.0800 
    136 H136       -0.0393  -17.3425  -48.1098 H         1 UNK         0.1150 
    137 H137       -0.6779  -21.5643  -47.7448 H         1 UNK         0.1150 
    138 H138        3.1161  -20.0730  -49.0507 H         1 UNK         0.1150 
    139 H139        1.0289  -23.0655  -48.8250 H         1 UNK         0.0800 
    140 H140        2.6230  -22.4637  -49.1844 H         1 UNK         0.0800 
    141 H141        1.9696  -24.8714  -45.6196 H         1 UNK         0.0800 
    142 H142        1.5892  -25.1085  -47.2801 H         1 UNK         0.0800 
    143 H143       -0.2654  -25.0564  -45.3691 H         1 UNK         0.0600 
    144 H144        0.4210  -22.2726  -45.4383 H         1 UNK         0.3000 
    145 H145       -2.0046  -20.8089  -44.0855 H         1 UNK         0.0600 
    146 H146       -1.5941  -20.6065  -41.6327 H         1 UNK         0.0600 
    147 H147       -2.5329  -22.0413  -42.0075 H         1 UNK         0.0600 
    148 H148       -0.8229  -22.1920  -41.6225 H         1 UNK         0.0600 
    149 H149       -0.1643  -19.6298  -44.0244 H         1 UNK         0.3000 
    150 H150        3.3023  -20.2710  -43.3636 H         1 UNK         0.0600 
    151 H151        2.6361  -20.2146  -45.7655 H         1 UNK         0.0600 
    152 H152        3.2329  -18.6560  -45.2347 H         1 UNK         0.0600 
    153 H153        1.5042  -18.9098  -45.4407 H         1 UNK         0.0600 
    154 H154        1.9028  -17.8067  -43.2642 H         1 UNK         0.3000 
    155 H155        1.8710  -17.4876  -39.6918 H         1 UNK         0.0600 
    156 H156        3.4513  -16.1623  -41.9584 H         1 UNK         0.0600 
    157 H157        4.1386  -16.8830  -40.5084 H         1 UNK         0.0600 
    158 H158        3.1175  -15.4581  -40.3791 H         1 UNK         0.0600 
    159 H159        0.9993  -15.9214  -42.0061 H         1 UNK         0.3000 
    160 H160       -2.4395  -16.7038  -41.5984 H         1 UNK         0.0600 
    161 H161       -2.6785  -14.2543  -41.3342 H         1 UNK         0.0600 
    162 H162       -0.9711  -14.0969  -40.9257 H         1 UNK         0.0600 
    163 H163       -2.0652  -14.9511  -39.8423 H         1 UNK         0.0600 
    164 H164       -1.1685  -14.8223  -43.2876 H         1 UNK         0.3000 
    165 H165       -0.1936  -17.0859  -45.8692 H         1 UNK         0.0600 
    166 H166       -1.5797  -15.5511  -47.2009 H         1 UNK         0.0600 
    167 H167       -2.6509  -16.5270  -46.1987 H         1 UNK         0.0600 
    168 H168       -2.3067  -14.8688  -45.7502 H         1 UNK         0.0600 
    169 H169        0.0906  -14.3042  -45.8042 H         1 UNK         0.3000 
    170 H170        3.2596  -14.1328  -44.1371 H         1 UNK         0.0600 
    171 H171        3.6608  -14.6661  -46.5297 H         1 UNK         0.0600 
    172 H172        2.2884  -13.6823  -47.0143 H         1 UNK         0.0600 
    173 H173        3.6983  -12.9287  -46.2728 H         1 UNK         0.0600 
    174 H174        1.3522  -12.2267  -45.2151 H         1 UNK         0.3000 
    175 H175       -0.2414  -11.4939  -42.1266 H         1 UNK         0.0600 
    176 H176        0.5489   -9.2029  -42.6528 H         1 UNK         0.0600 
    177 H177        1.8744  -10.1677  -42.0227 H         1 UNK         0.0600 
    178 H178        1.7728   -9.8442  -43.7494 H         1 UNK         0.0600 
    179 H179       -0.4373  -10.3572  -44.7489 H         1 UNK         0.3000 
    180 H180       -2.9184  -12.5857  -46.0111 H         1 UNK         0.0600 
    181 H181       -3.0889   -9.6669  -45.0962 H         1 UNK         0.0600 
    182 H182       -4.1447  -10.9661  -44.5542 H         1 UNK         0.0600 
    183 H183       -4.1682  -10.4689  -46.2380 H         1 UNK         0.0600 
    184 H184       -1.8539  -10.2814  -47.1973 H         1 UNK         0.3000 
    185 H185       -0.6330  -10.6485  -49.1680 H         1 UNK         0.0600 
    186 H186        1.9457  -10.8600  -47.5025 H         1 UNK         0.0600 
    187 H187        1.7201   -9.8280  -48.9142 H         1 UNK         0.0600 
    188 H188        0.8018   -9.5240  -47.4497 H         1 UNK         0.0600 
    189 H189        1.6629  -12.4254  -49.3397 H         1 UNK         0.3000 
    190 H190       -2.5587  -23.8379  -46.0278 H         1 UNK         0.3000 
    191 H191       -3.2012  -23.3506  -48.6625 H         1 UNK         0.0600 
    192 H192       -5.0106  -24.5125  -46.4771 H         1 UNK         0.0600 
    193 H193       -5.5643  -23.7054  -47.9400 H         1 UNK         0.0600 
    194 H194       -4.6684  -22.8069  -46.7299 H         1 UNK         0.0600 
    195 H195       -3.5667  -26.4879  -46.9751 H         1 UNK         0.3000 
    196 H196       -4.6507  -27.8883  -49.2255 H         1 UNK         0.0600 
    197 H197       -4.3437  -29.8861  -47.7592 H         1 UNK         0.0600 
    198 H198       -5.0927  -28.5630  -46.8804 H         1 UNK         0.0600 
    199 H199       -3.3851  -28.9313  -46.6343 H         1 UNK         0.0600 
    200 H200       -1.3424  -27.3399  -48.1203 H         1 UNK         0.3000 
    201 H201       -0.1429  -29.4404  -49.7467 H         1 UNK         0.0600 
    202 H202        0.9034  -28.7194  -47.6130 H         1 UNK         0.0600 
    203 H203        1.1194  -27.0902  -48.2497 H         1 UNK         0.0600 
    204 H204        1.9903  -28.4383  -48.9652 H         1 UNK         0.0600 
    205 H205       -0.5462  -25.8792  -49.9589 H         1 UNK         0.3000 
    206 H206        0.7543  -25.6079  -52.5245 H         1 UNK         0.0600 
    207 H207        0.6422  -23.6942  -51.0445 H         1 UNK         0.0600 
    208 H208       -0.3645  -23.3126  -52.4287 H         1 UNK         0.0600 
    209 H209       -1.1090  -23.8030  -50.9070 H         1 UNK         0.0600 
    210 H210       -2.5123  -26.3573  -51.5111 H         1 UNK         0.3000 
    211 H211       -4.3024  -27.1634  -52.4481 H         1 UNK         0.0600 
    212 H212       -2.8096  -27.3829  -55.1146 H         1 UNK         0.0600 
    213 H213       -4.3398  -28.1439  -54.7102 H         1 UNK         0.0600 
    214 H214       -2.8767  -28.6241  -53.8638 H         1 UNK         0.0600 
    215 H215       -2.8125  -24.7655  -54.6101 H         1 UNK         0.3000 
    216 H216       -5.3370  -23.4006  -55.2483 H         1 UNK         0.0600 
    217 H217       -3.7994  -21.7777  -56.3641 H         1 UNK         0.0600 
    218 H218       -3.4390  -23.4220  -56.8648 H         1 UNK         0.0600 
    219 H219       -2.4028  -22.6114  -55.6909 H         1 UNK         0.0600 
    220 H220       -3.2535  -23.5299  -52.5897 H         1 UNK         0.3000 
    221 H221       -2.9180  -22.4245  -50.6936 H         1 UNK         0.0600 
    222 H222       -5.7657  -21.4043  -51.1289 H         1 UNK         0.0600 
    223 H223       -5.3544  -23.0160  -50.5426 H         1 UNK         0.0600 
    224 H224       -4.9329  -21.6085  -49.5889 H         1 UNK         0.0600 
    225 H225       -1.9158  -21.0930  -52.9301 H         1 UNK         0.3000 
    226 H226       -0.9065  -19.2662  -53.6592 H         1 UNK         0.0600 
    227 H227        0.1567  -19.5167  -51.3772 H         1 UNK         0.0600 
    228 H228        0.1748  -17.8677  -51.9768 H         1 UNK         0.0600 
    229 H229       -0.9921  -18.3379  -50.7453 H         1 UNK         0.0600 
    230 H230       -3.9205  -19.1370  -53.4486 H         1 UNK         0.3000 
    231 H231       -5.6814  -17.8507  -53.7183 H         1 UNK         0.0600 
    232 H232       -4.4339  -17.0072  -55.7295 H         1 UNK         0.0600 
    233 H233       -3.7856  -15.6806  -54.7661 H         1 UNK         0.0600 
    234 H234       -5.5143  -15.7930  -55.0675 H         1 UNK         0.0600 
    235 H235       -4.2226  -17.7789  -51.1206 H         1 UNK         0.3000 
    236 H236       -5.1859  -15.1680  -50.0114 H         1 UNK         0.0600 
    237 H237       -3.0542  -14.9541  -48.8471 H         1 UNK         0.0600 
    238 H238       -2.4868  -16.5055  -49.4767 H         1 UNK         0.0600 
    239 H239       -2.7313  -15.1425  -50.5608 H         1 UNK         0.0600 
    240 H240       -4.6901  -18.6553  -49.4424 H         1 UNK         0.3000 
    241 H241       -6.2840  -18.3642  -46.9488 H         1 UNK         0.0600 
    242 H242       -7.9652  -20.5588  -49.5890 H         1 UNK         0.3800 
    243 H243       -7.0186  -19.1227  -49.8783 H         1 UNK         0.3800 
    244 H244       -4.1749  -18.7720  -46.0517 H         1 UNK         0.0800 
    245 H245       -4.9947  -20.2858  -45.9544 H         1 UNK         0.0800 
    246 H246       -2.3000  -18.2087  -47.8458 H         1 UNK         0.0800 
    247 H247       -1.8129  -18.8670  -46.2922 H         1 UNK         0.0800 
@<TRIPOS>BOND
     1    1    2 1    
     2    1  127 1    
     3    1  128 1    
     4    1  129 1    
     5    2    3 2    
     6    2    4 am   BACKBONE|DICT|INTERRES
     7    4    5 1    
     8    4  130 1    
     9    5    6 1    
    10    5   65 1    
    11    5  131 1    
    12    6    7 1    
    13    6  132 1    
    14    6  133 1    
    15    7    8 1    
    16    8    9 1    
    17    8  134 1    
    18    8  135 1    
    19    9   10 ar   
    20    9   14 ar   
    21   10   11 ar   
    22   10  136 1    
    23   11   12 ar   
    24   11  126 1    
    25   12   13 ar   
    26   12  137 1    
    27   13   14 ar   
    28   13   15 1    
    29   14  138 1    
    30   15   16 1    
    31   15  139 1    
    32   15  140 1    
    33   16   17 1    
    34   17   18 1    
    35   17  141 1    
    36   17  142 1    
    37   18   19 1    
    38   18   67 1    
    39   18  143 1    
    40   19   20 am   BACKBONE|DICT|INTERRES
    41   19  144 1    
    42   20   21 2    
    43   20   22 1    
    44   22   23 1    
    45   22   24 1    
    46   22  145 1    
    47   23  146 1    
    48   23  147 1    
    49   23  148 1    
    50   24   25 am   BACKBONE|DICT|INTERRES
    51   24  149 1    
    52   25   26 2    
    53   25   27 1    
    54   27   28 1    
    55   27   29 1    
    56   27  150 1    
    57   28  151 1    
    58   28  152 1    
    59   28  153 1    
    60   29   30 am   BACKBONE|DICT|INTERRES
    61   29  154 1    
    62   30   31 2    
    63   30   32 1    
    64   32   33 1    
    65   32   34 1    
    66   32  155 1    
    67   33  156 1    
    68   33  157 1    
    69   33  158 1    
    70   34   35 am   BACKBONE|DICT|INTERRES
    71   34  159 1    
    72   35   36 2    
    73   35   37 1    
    74   37   38 1    
    75   37   39 1    
    76   37  160 1    
    77   38  161 1    
    78   38  162 1    
    79   38  163 1    
    80   39   40 am   BACKBONE|DICT|INTERRES
    81   39  164 1    
    82   40   41 2    
    83   40   42 1    
    84   42   43 1    
    85   42   44 1    
    86   42  165 1    
    87   43  166 1    
    88   43  167 1    
    89   43  168 1    
    90   44   45 am   BACKBONE|DICT|INTERRES
    91   44  169 1    
    92   45   46 2    
    93   45   47 1    
    94   47   48 1    
    95   47   49 1    
    96   47  170 1    
    97   48  171 1    
    98   48  172 1    
    99   48  173 1    
   100   49   50 am   BACKBONE|DICT|INTERRES
   101   49  174 1    
   102   50   51 2    
   103   50   52 1    
   104   52   53 1    
   105   52   54 1    
   106   52  175 1    
   107   53  176 1    
   108   53  177 1    
   109   53  178 1    
   110   54   55 am   BACKBONE|DICT|INTERRES
   111   54  179 1    
   112   55   56 2    
   113   55   57 1    
   114   57   58 1    
   115   57   59 1    
   116   57  180 1    
   117   58  181 1    
   118   58  182 1    
   119   58  183 1    
   120   59   60 am   BACKBONE|DICT|INTERRES
   121   59  184 1    
   122   60   61 2    
   123   60   62 1    
   124   62   63 1    
   125   62   64 1    
   126   62  185 1    
   127   63  186 1    
   128   63  187 1    
   129   63  188 1    
   130   64   65 am   BACKBONE|DICT|INTERRES
   131   64  189 1    
   132   65   66 2    
   133   67   68 2    
   134   67   69 am   BACKBONE|DICT|INTERRES
   135   69   70 1    
   136   69  190 1    
   137   70   71 1    
   138   70   72 1    
   139   70  191 1    
   140   71  192 1    
   141   71  193 1    
   142   71  194 1    
   143   72   73 2    
   144   72   74 am   BACKBONE|DICT|INTERRES
   145   74   75 1    
   146   74  195 1    
   147   75   76 1    
   148   75   77 1    
   149   75  196 1    
   150   76  197 1    
   151   76  198 1    
   152   76  199 1    
   153   77   78 2    
   154   77   79 am   BACKBONE|DICT|INTERRES
   155   79   80 1    
   156   79  200 1    
   157   80   81 1    
   158   80   82 1    
   159   80  201 1    
   160   81  202 1    
   161   81  203 1    
   162   81  204 1    
   163   82   83 2    
   164   82   84 am   BACKBONE|DICT|INTERRES
   165   84   85 1    
   166   84  205 1    
   167   85   86 1    
   168   85   87 1    
   169   85  206 1    
   170   86  207 1    
   171   86  208 1    
   172   86  209 1    
   173   87   88 2    
   174   87   89 am   BACKBONE|DICT|INTERRES
   175   89   90 1    
   176   89  210 1    
   177   90   91 1    
   178   90   92 1    
   179   90  211 1    
   180   91  212 1    
   181   91  213 1    
   182   91  214 1    
   183   92   93 2    
   184   92   94 am   BACKBONE|DICT|INTERRES
   185   94   95 1    
   186   94  215 1    
   187   95   96 1    
   188   95   97 1    
   189   95  216 1    
   190   96  217 1    
   191   96  218 1    
   192   96  219 1    
   193   97   98 2    
   194   97   99 am   BACKBONE|DICT|INTERRES
   195   99  100 1    
   196   99  220 1    
   197  100  101 1    
   198  100  102 1    
   199  100  221 1    
   200  101  222 1    
   201  101  223 1    
   202  101  224 1    
   203  102  103 2    
   204  102  104 am   BACKBONE|DICT|INTERRES
   205  104  105 1    
   206  104  225 1    
   207  105  106 1    
   208  105  107 1    
   209  105  226 1    
   210  106  227 1    
   211  106  228 1    
   212  106  229 1    
   213  107  108 2    
   214  107  109 am   BACKBONE|DICT|INTERRES
   215  109  110 1    
   216  109  230 1    
   217  110  111 1    
   218  110  112 1    
   219  110  231 1    
   220  111  232 1    
   221  111  233 1    
   222  111  234 1    
   223  112  113 2    
   224  112  114 am   BACKBONE|DICT|INTERRES
   225  114  115 1    
   226  114  235 1    
   227  115  116 1    
   228  115  117 1    
   229  115  236 1    
   230  116  237 1    
   231  116  238 1    
   232  116  239 1    
   233  117  118 2    
   234  117  119 am   BACKBONE|DICT|INTERRES
   235  119  120 1    
   236  119  240 1    
   237  120  121 1    
   238  120  124 1    
   239  120  241 1    
   240  121  122 am   BACKBONE|DICT|INTERRES
   241  121  123 2    
   242  122  242 1    
   243  122  243 1    
   244  124  125 1    
   245  124  244 1    
   246  124  245 1    
   247  125  126 1    
   248  126  246 1    
   249  126  247 1    
@<TRIPOS>SUBSTRUCTURE
     1 UNK         1 GROUP             0       ****    0 ROOT    
