@<TRIPOS>MOLECULE
3R540
247   249    1
SMALL
USER_CHARGES


@<TRIPOS>ATOM
      1 CA          6.5707  -11.1328  -48.9972 C.3       0 UNK        -0.1800 
      2 C           6.7757  -12.4376  -48.2407 C.2       0 UNK         0.5000 
      3 O           7.4645  -13.3313  -48.7330 O.2       0 UNK        -0.5000 
      4 N           6.1809  -12.5504  -47.0510 N.am      1 UNK        -0.5000 
      5 CA          6.2497  -13.7129  -46.1681 C.3       1 UNK         0.1400 
      6 C6          5.3975  -14.9152  -46.6571 C.3       23 UNK        -0.0398 
      7 S7          3.6545  -14.5090  -47.0260 S.3       23 UNK        -0.2404 
      8 C8          3.6153  -14.5808  -48.8467 C.3       23 UNK        -0.0205 
      9 C9          3.2527  -15.9496  -49.4210 C.ar      23 UNK        -0.0193 
     10 C10         2.4138  -16.0136  -50.5385 C.ar      23 UNK        -0.1150 
     11 C11         2.0983  -17.2404  -51.1279 C.ar      23 UNK        -0.0193 
     12 C12         2.6309  -18.4154  -50.5955 C.ar      23 UNK        -0.1150 
     13 C13         3.4554  -18.3736  -49.4686 C.ar      23 UNK        -0.0193 
     14 C14         3.7666  -17.1398  -48.8897 C.ar      23 UNK        -0.1150 
     15 C15         4.0185  -19.6621  -48.8862 C.3       23 UNK        -0.0205 
     16 S16         2.9508  -20.3455  -47.5790 S.3       23 UNK        -0.2404 
     17 C17         1.4504  -20.7578  -48.5294 C.3       23 UNK        -0.0398 
     18 CA          0.5060  -21.7212  -47.7767 C.3       11 UNK         0.1400 
     19 N          -0.0719  -21.1259  -46.5672 N.am      11 UNK        -0.5000 
     20 C          -0.8074  -21.7925  -45.6664 C.2       10 UNK         0.5000 
     21 O          -1.0214  -23.0029  -45.7247 O.2       10 UNK        -0.5000 
     22 CA         -1.4722  -20.9644  -44.5514 C.3       10 UNK         0.1400 
     23 CB         -0.4867  -20.6676  -43.4116 C.3       10 UNK        -0.1800 
     24 N          -2.0536  -19.7194  -45.0573 N.am      10 UNK        -0.5000 
     25 C          -3.0866  -19.6700  -45.9112 C.2       9 UNK         0.5000 
     26 O          -3.6921  -20.6684  -46.2997 O.2       9 UNK        -0.5000 
     27 CA         -3.4922  -18.2867  -46.4540 C.3       9 UNK         0.1400 
     28 CB         -4.4373  -17.5765  -45.4744 C.3       9 UNK        -0.1800 
     29 N          -2.3449  -17.4276  -46.7529 N.am      9 UNK        -0.5000 
     30 C          -1.4195  -17.6963  -47.6870 C.2       8 UNK         0.5000 
     31 O          -1.4697  -18.6761  -48.4285 O.2       8 UNK        -0.5000 
     32 CA         -0.2006  -16.7558  -47.7571 C.3       8 UNK         0.1400 
     33 CB         -0.5380  -15.4714  -48.5275 C.3       8 UNK        -0.1800 
     34 N           0.3165  -16.4134  -46.4311 N.am      8 UNK        -0.5000 
     35 C           0.7783  -17.3076  -45.5463 C.2       7 UNK         0.5000 
     36 O           0.8602  -18.5122  -45.7746 O.2       7 UNK        -0.5000 
     37 CA          1.1267  -16.7889  -44.1420 C.3       7 UNK         0.1400 
     38 CB          2.5324  -16.1733  -44.0877 C.3       7 UNK        -0.1800 
     39 N           0.1294  -15.8336  -43.6595 N.am      7 UNK        -0.5000 
     40 C          -1.1064  -16.1806  -43.2735 C.2       6 UNK         0.5000 
     41 O          -1.5012  -17.3452  -43.2199 O.2       6 UNK        -0.5000 
     42 CA         -2.0769  -15.0372  -42.9291 C.3       6 UNK         0.1400 
     43 CB         -1.9524  -14.6363  -41.4525 C.3       6 UNK        -0.1800 
     44 N          -1.8777  -13.8635  -43.7810 N.am      6 UNK        -0.5000 
     45 C          -2.2515  -13.8128  -45.0680 C.2       5 UNK         0.5000 
     46 O          -2.8089  -14.7431  -45.6486 O.2       5 UNK        -0.5000 
     47 CA         -1.9211  -12.5301  -45.8562 C.3       5 UNK         0.1400 
     48 CB         -3.0644  -11.5127  -45.7287 C.3       5 UNK        -0.1800 
     49 N          -0.6633  -11.8913  -45.4653 N.am      5 UNK        -0.5000 
     50 C           0.5410  -12.4773  -45.4948 C.2       4 UNK         0.5000 
     51 O           0.7112  -13.6468  -45.8363 O.2       4 UNK        -0.5000 
     52 CA          1.7542  -11.6453  -45.0254 C.3       4 UNK         0.1400 
     53 CB          1.4377  -10.1534  -44.7814 C.3       4 UNK        -0.1800 
     54 N           2.3968  -12.2145  -43.8365 N.am      4 UNK        -0.5000 
     55 C           1.8048  -12.5699  -42.6842 C.2       3 UNK         0.5000 
     56 O           0.5906  -12.4927  -42.4879 O.2       3 UNK        -0.5000 
     57 CA          2.7148  -13.1032  -41.5622 C.3       3 UNK         0.1400 
     58 CB          2.0535  -14.2343  -40.7538 C.3       3 UNK        -0.1800 
     59 N           4.0069  -13.5630  -42.0796 N.am      3 UNK        -0.5000 
     60 C           5.1950  -13.1357  -41.6376 C.2       2 UNK         0.5000 
     61 O           5.3345  -12.3223  -40.7230 O.2       2 UNK        -0.5000 
     62 CA          6.4524  -13.7059  -42.3231 C.3       2 UNK         0.1400 
     63 CB          6.9557  -14.9383  -41.5551 C.3       2 UNK        -0.1800 
     64 N           6.3384  -14.0536  -43.7462 N.am      2 UNK        -0.5000 
     65 C           5.9159  -13.2535  -44.7357 C.2       1 UNK         0.5000 
     66 O           5.3240  -12.1844  -44.5569 O.2       1 UNK        -0.5000 
     67 C          -0.5854  -22.2531  -48.7285 C.2       11 UNK         0.5000 
     68 O          -0.4508  -23.3651  -49.2347 O.2       11 UNK        -0.5000 
     69 N          -1.6604  -21.4780  -48.9261 N.am      12 UNK        -0.5000 
     70 CA         -2.8225  -21.8519  -49.7340 C.3       12 UNK         0.1400 
     71 CB         -3.7483  -20.6369  -49.8716 C.3       12 UNK        -0.1800 
     72 C          -3.5942  -23.0612  -49.1714 C.2       12 UNK         0.5000 
     73 O          -4.1193  -23.8610  -49.9468 O.2       12 UNK        -0.5000 
     74 N          -3.6501  -23.1823  -47.8389 N.am      13 UNK        -0.5000 
     75 CA         -4.2059  -24.3402  -47.1419 C.3       13 UNK         0.1400 
     76 CB         -4.4729  -23.9830  -45.6726 C.3       13 UNK        -0.1800 
     77 C          -3.2900  -25.5727  -47.2582 C.2       13 UNK         0.5000 
     78 O          -3.7808  -26.6694  -47.5267 O.2       13 UNK        -0.5000 
     79 N          -1.9751  -25.3719  -47.0878 N.am      14 UNK        -0.5000 
     80 CA         -0.9487  -26.4097  -47.2226 C.3       14 UNK         0.1400 
     81 CB          0.4074  -25.8566  -46.7605 C.3       14 UNK        -0.1800 
     82 C          -0.8453  -26.9817  -48.6495 C.2       14 UNK         0.5000 
     83 O          -0.5798  -28.1745  -48.8079 O.2       14 UNK        -0.5000 
     84 N          -1.0962  -26.1383  -49.6595 N.am      15 UNK        -0.5000 
     85 CA         -1.1679  -26.4738  -51.0820 C.3       15 UNK         0.1400 
     86 CB         -1.0383  -25.1767  -51.9012 C.3       15 UNK        -0.1800 
     87 C          -2.4438  -27.2686  -51.4379 C.2       15 UNK         0.5000 
     88 O          -3.2524  -26.8138  -52.2476 O.2       15 UNK        -0.5000 
     89 N          -2.6007  -28.4441  -50.8137 N.am      16 UNK        -0.5000 
     90 CA         -3.6660  -29.4332  -51.0138 C.3       16 UNK         0.1400 
     91 CB         -3.5111  -30.1067  -52.3935 C.3       16 UNK        -0.1800 
     92 C          -5.0888  -28.8810  -50.7751 C.2       16 UNK         0.5000 
     93 O          -6.0284  -29.2919  -51.4590 O.2       16 UNK        -0.5000 
     94 N          -5.2186  -27.9623  -49.8054 N.am      17 UNK        -0.5000 
     95 CA         -6.4479  -27.2709  -49.4065 C.3       17 UNK         0.1400 
     96 CB         -7.4368  -28.2519  -48.7422 C.3       17 UNK        -0.1800 
     97 C          -7.0819  -26.4391  -50.5411 C.2       17 UNK         0.5000 
     98 O          -8.3085  -26.3930  -50.6540 O.2       17 UNK        -0.5000 
     99 N          -6.2390  -25.7855  -51.3563 N.am      18 UNK        -0.5000 
    100 CA        -6.6593  -24.8590  -52.4104 C.3       18 UNK         0.1400 
    101 CB        -5.4462  -24.4366  -53.2532 C.3       18 UNK        -0.1800 
    102 C         -7.3869  -23.6300  -51.8379 C.2       18 UNK         0.5000 
    103 O         -8.4626  -23.2829  -52.3271 O.2       18 UNK        -0.5000 
    104 N         -6.8015  -23.0429  -50.7822 N.am      19 UNK        -0.5000 
    105 CA        -7.3023  -21.9794  -49.8993 C.3       19 UNK         0.1400 
    106 CB        -8.5281  -22.4677  -49.1061 C.3       19 UNK        -0.1800 
    107 C         -7.5855  -20.6213  -50.5750 C.2       19 UNK         0.5000 
    108 O         -7.0994  -19.5958  -50.0987 O.2       19 UNK        -0.5000 
    109 N         -8.3607  -20.6316  -51.6639 N.am      20 UNK        -0.5000 
    110 CA        -8.7593  -19.4612  -52.4464 C.3       20 UNK         0.1400 
    111 CB        -9.9643  -19.8413  -53.3206 C.3       20 UNK        -0.1800 
    112 C         -7.6218  -18.8917  -53.3146 C.2       20 UNK         0.5000 
    113 O         -7.6921  -17.7273  -53.7098 O.2       20 UNK        -0.5000 
    114 N         -6.6027  -19.7122  -53.5919 N.am      21 UNK        -0.5000 
    115 CA        -5.3728  -19.3382  -54.2760 C.3       21 UNK         0.1400 
    116 CB        -5.4068  -19.8693  -55.7171 C.3       21 UNK        -0.1800 
    117 C         -4.2054  -19.9609  -53.4883 C.2       21 UNK         0.5000 
    118 O         -4.3100  -21.1344  -53.1318 O.2       21 UNK        -0.5000 
    119 N         -3.1063  -19.2464  -53.2087 N.am      22 UNK        -0.5000 
    120 CA        -2.8434  -17.8239  -53.4932 C.3       22 UNK         0.1400 
    121 C         -3.6317  -16.8054  -52.6122 C.2       22 UNK         0.5000 
    122 N         -4.3569  -17.2321  -51.5854 N.am      22 UNK        -0.7600 
    123 O         -3.6074  -15.6099  -52.8886 O.2       22 UNK        -0.5000 
    124 C124       -1.3230  -17.5243  -53.5030 C.3       23 UNK        -0.0398 
    125 S125       -0.4889  -17.8137  -51.9051 S.3       23 UNK        -0.2404 
    126 C126        1.1962  -17.2973  -52.3487 C.3       23 UNK        -0.0205 
    127 H127        6.0963  -11.3282  -49.9589 H         1 UNK         0.0600 
    128 H128        7.5305  -10.6497  -49.1804 H         1 UNK         0.0600 
    129 H129        5.9400  -10.4379  -48.4422 H         1 UNK         0.0600 
    130 H130        5.6511  -11.7817  -46.6587 H         1 UNK         0.3000 
    131 H131        7.2931  -14.0348  -46.1415 H         1 UNK         0.0600 
    132 H132        5.8620  -15.3351  -47.5496 H         1 UNK         0.0800 
    133 H133        5.4114  -15.7219  -45.9230 H         1 UNK         0.0800 
    134 H134        2.8866  -13.8395  -49.1774 H         1 UNK         0.0800 
    135 H135        4.5745  -14.2640  -49.2564 H         1 UNK         0.0800 
    136 H136        2.0099  -15.1031  -50.9586 H         1 UNK         0.1150 
    137 H137        2.3907  -19.3640  -51.0543 H         1 UNK         0.1150 
    138 H138        4.4111  -17.1163  -48.0245 H         1 UNK         0.1150 
    139 H139        4.1574  -20.4065  -49.6718 H         1 UNK         0.0800 
    140 H140        5.0089  -19.4752  -48.4686 H         1 UNK         0.0800 
    141 H141        1.7680  -21.2035  -49.4740 H         1 UNK         0.0800 
    142 H142        0.9307  -19.8323  -48.7814 H         1 UNK         0.0800 
    143 H143        1.0956  -22.5835  -47.4589 H         1 UNK         0.0600 
    144 H144        0.1145  -20.1373  -46.4139 H         1 UNK         0.3000 
    145 H145       -2.2860  -21.5637  -44.1378 H         1 UNK         0.0600 
    146 H146       -0.9701  -20.1140  -42.6065 H         1 UNK         0.0600 
    147 H147       -0.0996  -21.5931  -42.9839 H         1 UNK         0.0600 
    148 H148        0.3681  -20.0846  -43.7519 H         1 UNK         0.0600 
    149 H149       -1.6266  -18.8543  -44.7478 H         1 UNK         0.3000 
    150 H150       -4.0357  -18.4451  -47.3874 H         1 UNK         0.0600 
    151 H151       -5.3038  -18.1987  -45.2472 H         1 UNK         0.0600 
    152 H152       -4.8104  -16.6424  -45.8944 H         1 UNK         0.0600 
    153 H153       -3.9416  -17.3461  -44.5313 H         1 UNK         0.0600 
    154 H154       -2.2697  -16.5683  -46.2179 H         1 UNK         0.3000 
    155 H155        0.5936  -17.2772  -48.2954 H         1 UNK         0.0600 
    156 H156       -1.3441  -14.9152  -48.0500 H         1 UNK         0.0600 
    157 H157       -0.8538  -15.7020  -49.5456 H         1 UNK         0.0600 
    158 H158        0.3292  -14.8142  -48.5949 H         1 UNK         0.0600 
    159 H159        0.3377  -15.4261  -46.1852 H         1 UNK         0.3000 
    160 H160        1.1264  -17.6535  -43.4747 H         1 UNK         0.0600 
    161 H161        2.5405  -15.1560  -44.4748 H         1 UNK         0.0600 
    162 H162        3.2435  -16.7579  -44.6734 H         1 UNK         0.0600 
    163 H163        2.9080  -16.1491  -43.0661 H         1 UNK         0.0600 
    164 H164        0.3464  -14.8515  -43.7557 H         1 UNK         0.3000 
    165 H165       -3.0922  -15.4074  -43.0870 H         1 UNK         0.0600 
    166 H166       -2.6777  -13.8658  -41.1907 H         1 UNK         0.0600 
    167 H167       -2.1354  -15.4911  -40.8003 H         1 UNK         0.0600 
    168 H168       -0.9596  -14.2543  -41.2199 H         1 UNK         0.0600 
    169 H169       -1.3582  -13.0895  -43.3836 H         1 UNK         0.3000 
    170 H170       -1.8308  -12.8081  -46.9079 H         1 UNK         0.0600 
    171 H171       -4.0144  -11.9522  -46.0361 H         1 UNK         0.0600 
    172 H172       -3.1805  -11.1650  -44.7014 H         1 UNK         0.0600 
    173 H173       -2.8913  -10.6421  -46.3615 H         1 UNK         0.0600 
    174 H174       -0.7238  -10.9387  -45.1373 H         1 UNK         0.3000 
    175 H175        2.4886  -11.7025  -45.8302 H         1 UNK         0.0600 
    176 H176        0.7356  -10.0107  -43.9590 H         1 UNK         0.0600 
    177 H177        2.3455   -9.6025  -44.5348 H         1 UNK         0.0600 
    178 H178        1.0155   -9.6862  -45.6720 H         1 UNK         0.0600 
    179 H179        3.4058  -12.3012  -43.9020 H         1 UNK         0.3000 
    180 H180        2.8588  -12.2591  -40.8853 H         1 UNK         0.0600 
    181 H181        2.7366  -14.6355  -40.0050 H         1 UNK         0.0600 
    182 H182        1.7301  -15.0579  -41.3885 H         1 UNK         0.0600 
    183 H183        1.1761  -13.8678  -40.2205 H         1 UNK         0.0600 
    184 H184        3.9860  -14.2228  -42.8431 H         1 UNK         0.3000 
    185 H185        7.2206  -12.9330  -42.2538 H         1 UNK         0.0600 
    186 H186        7.0824  -14.7163  -40.4945 H         1 UNK         0.0600 
    187 H187        6.2572  -15.7723  -41.6342 H         1 UNK         0.0600 
    188 H188        7.9230  -15.2720  -41.9309 H         1 UNK         0.0600 
    189 H189        6.7880  -14.9204  -44.0035 H         1 UNK         0.3000 
    190 H190       -1.6675  -20.5409  -48.5293 H         1 UNK         0.3000 
    191 H191       -2.4644  -22.1216  -50.7297 H         1 UNK         0.0600 
    192 H192       -3.2164  -19.7820  -50.2881 H         1 UNK         0.0600 
    193 H193       -4.5810  -20.8604  -50.5359 H         1 UNK         0.0600 
    194 H194       -4.1693  -20.3358  -48.9132 H         1 UNK         0.0600 
    195 H195       -3.2745  -22.4351  -47.2646 H         1 UNK         0.3000 
    196 H196       -5.1639  -24.5878  -47.6032 H         1 UNK         0.0600 
    197 H197       -4.9181  -24.8251  -45.1416 H         1 UNK         0.0600 
    198 H198       -5.1644  -23.1440  -45.5921 H         1 UNK         0.0600 
    199 H199       -3.5573  -23.7107  -45.1478 H         1 UNK         0.0600 
    200 H200       -1.6518  -24.4474  -46.8154 H         1 UNK         0.3000 
    201 H201       -1.2225  -27.2323  -46.5590 H         1 UNK         0.0600 
    202 H202        0.3608  -25.5078  -45.7287 H         1 UNK         0.0600 
    203 H203        0.7342  -25.0227  -47.3815 H         1 UNK         0.0600 
    204 H204        1.1799  -26.6249  -46.8098 H         1 UNK         0.0600 
    205 H205       -1.2282  -25.1578  -49.4306 H         1 UNK         0.3000 
    206 H206       -0.3146  -27.1085  -51.3287 H         1 UNK         0.0600 
    207 H207       -0.0991  -24.6668  -51.6866 H         1 UNK         0.0600 
    208 H208       -1.0565  -25.3837  -52.9719 H         1 UNK         0.0600 
    209 H209       -1.8524  -24.4835  -51.6853 H         1 UNK         0.0600 
    210 H210       -1.8977  -28.6844  -50.1199 H         1 UNK         0.3000 
    211 H211       -3.5126  -30.2011  -50.2545 H         1 UNK         0.0600 
    212 H212       -3.7022  -29.4063  -53.2073 H         1 UNK         0.0600 
    213 H213       -4.2076  -30.9383  -52.5061 H         1 UNK         0.0600 
    214 H214       -2.5065  -30.5084  -52.5258 H         1 UNK         0.0600 
    215 H215       -4.3928  -27.6884  -49.2843 H         1 UNK         0.3000 
    216 H216       -6.1590  -26.5467  -48.6458 H         1 UNK         0.0600 
    217 H217       -8.2894  -27.7207  -48.3178 H         1 UNK         0.0600 
    218 H218       -6.9607  -28.7989  -47.9284 H         1 UNK         0.0600 
    219 H219       -7.8271  -28.9801  -49.4537 H         1 UNK         0.0600 
    220 H220       -5.2414  -25.8871  -51.2172 H         1 UNK         0.3000 
    221 H221       -7.3581  -25.3866  -53.0628 H         1 UNK         0.0600 
    222 H222       -4.6696  -23.9727  -52.6438 H         1 UNK         0.0600 
    223 H223       -5.0033  -25.2936  -53.7605 H         1 UNK         0.0600 
    224 H224       -5.7325  -23.7167  -54.0211 H         1 UNK         0.0600 
    225 H225       -5.8932  -23.4165  -50.5167 H         1 UNK         0.3000 
    226 H226       -6.5054  -21.8034  -49.1753 H         1 UNK         0.0600 
    227 H227       -8.2945  -23.3688  -48.5387 H         1 UNK         0.0600 
    228 H228       -8.8586  -21.7110  -48.3934 H         1 UNK         0.0600 
    229 H229       -9.3723  -22.6936  -49.7582 H         1 UNK         0.0600 
    230 H230       -8.6673  -21.5420  -52.0034 H         1 UNK         0.3000 
    231 H231       -9.0703  -18.6752  -51.7552 H         1 UNK         0.0600 
    232 H232       -9.7157  -20.6401  -54.0206 H         1 UNK         0.0600 
    233 H233      -10.3104  -18.9873  -53.9044 H         1 UNK         0.0600 
    234 H234      -10.8027  -20.1785  -52.7110 H         1 UNK         0.0600 
    235 H235       -6.5997  -20.6394  -53.1887 H         1 UNK         0.3000 
    236 H236       -5.2951  -18.2539  -54.3104 H         1 UNK         0.0600 
    237 H237       -6.2471  -19.4503  -56.2707 H         1 UNK         0.0600 
    238 H238       -4.4956  -19.5997  -56.2522 H         1 UNK         0.0600 
    239 H239       -5.4970  -20.9558  -55.7449 H         1 UNK         0.0600 
    240 H240       -2.3700  -19.7017  -52.6912 H         1 UNK         0.3000 
    241 H241       -3.1760  -17.6383  -54.5153 H         1 UNK         0.0600 
    242 H242       -4.3770  -18.2052  -51.3302 H         1 UNK         0.3800 
    243 H243       -4.8707  -16.5612  -51.0371 H         1 UNK         0.3800 
    244 H244       -0.8363  -18.1443  -54.2573 H         1 UNK         0.0800 
    245 H245       -1.1438  -16.4923  -53.8105 H         1 UNK         0.0800 
    246 H246        1.1618  -16.3217  -52.8362 H         1 UNK         0.0800 
    247 H247        1.6087  -17.9941  -53.0800 H         1 UNK         0.0800 
@<TRIPOS>BOND
     1    1    2 1    
     2    1  127 1    
     3    1  128 1    
     4    1  129 1    
     5    2    3 2    
     6    2    4 am   BACKBONE|DICT|INTERRES
     7    4    5 1    
     8    4  130 1    
     9    5    6 1    
    10    5   65 1    
    11    5  131 1    
    12    6    7 1    
    13    6  132 1    
    14    6  133 1    
    15    7    8 1    
    16    8    9 1    
    17    8  134 1    
    18    8  135 1    
    19    9   10 ar   
    20    9   14 ar   
    21   10   11 ar   
    22   10  136 1    
    23   11   12 ar   
    24   11  126 1    
    25   12   13 ar   
    26   12  137 1    
    27   13   14 ar   
    28   13   15 1    
    29   14  138 1    
    30   15   16 1    
    31   15  139 1    
    32   15  140 1    
    33   16   17 1    
    34   17   18 1    
    35   17  141 1    
    36   17  142 1    
    37   18   19 1    
    38   18   67 1    
    39   18  143 1    
    40   19   20 am   BACKBONE|DICT|INTERRES
    41   19  144 1    
    42   20   21 2    
    43   20   22 1    
    44   22   23 1    
    45   22   24 1    
    46   22  145 1    
    47   23  146 1    
    48   23  147 1    
    49   23  148 1    
    50   24   25 am   BACKBONE|DICT|INTERRES
    51   24  149 1    
    52   25   26 2    
    53   25   27 1    
    54   27   28 1    
    55   27   29 1    
    56   27  150 1    
    57   28  151 1    
    58   28  152 1    
    59   28  153 1    
    60   29   30 am   BACKBONE|DICT|INTERRES
    61   29  154 1    
    62   30   31 2    
    63   30   32 1    
    64   32   33 1    
    65   32   34 1    
    66   32  155 1    
    67   33  156 1    
    68   33  157 1    
    69   33  158 1    
    70   34   35 am   BACKBONE|DICT|INTERRES
    71   34  159 1    
    72   35   36 2    
    73   35   37 1    
    74   37   38 1    
    75   37   39 1    
    76   37  160 1    
    77   38  161 1    
    78   38  162 1    
    79   38  163 1    
    80   39   40 am   BACKBONE|DICT|INTERRES
    81   39  164 1    
    82   40   41 2    
    83   40   42 1    
    84   42   43 1    
    85   42   44 1    
    86   42  165 1    
    87   43  166 1    
    88   43  167 1    
    89   43  168 1    
    90   44   45 am   BACKBONE|DICT|INTERRES
    91   44  169 1    
    92   45   46 2    
    93   45   47 1    
    94   47   48 1    
    95   47   49 1    
    96   47  170 1    
    97   48  171 1    
    98   48  172 1    
    99   48  173 1    
   100   49   50 am   BACKBONE|DICT|INTERRES
   101   49  174 1    
   102   50   51 2    
   103   50   52 1    
   104   52   53 1    
   105   52   54 1    
   106   52  175 1    
   107   53  176 1    
   108   53  177 1    
   109   53  178 1    
   110   54   55 am   BACKBONE|DICT|INTERRES
   111   54  179 1    
   112   55   56 2    
   113   55   57 1    
   114   57   58 1    
   115   57   59 1    
   116   57  180 1    
   117   58  181 1    
   118   58  182 1    
   119   58  183 1    
   120   59   60 am   BACKBONE|DICT|INTERRES
   121   59  184 1    
   122   60   61 2    
   123   60   62 1    
   124   62   63 1    
   125   62   64 1    
   126   62  185 1    
   127   63  186 1    
   128   63  187 1    
   129   63  188 1    
   130   64   65 am   BACKBONE|DICT|INTERRES
   131   64  189 1    
   132   65   66 2    
   133   67   68 2    
   134   67   69 am   BACKBONE|DICT|INTERRES
   135   69   70 1    
   136   69  190 1    
   137   70   71 1    
   138   70   72 1    
   139   70  191 1    
   140   71  192 1    
   141   71  193 1    
   142   71  194 1    
   143   72   73 2    
   144   72   74 am   BACKBONE|DICT|INTERRES
   145   74   75 1    
   146   74  195 1    
   147   75   76 1    
   148   75   77 1    
   149   75  196 1    
   150   76  197 1    
   151   76  198 1    
   152   76  199 1    
   153   77   78 2    
   154   77   79 am   BACKBONE|DICT|INTERRES
   155   79   80 1    
   156   79  200 1    
   157   80   81 1    
   158   80   82 1    
   159   80  201 1    
   160   81  202 1    
   161   81  203 1    
   162   81  204 1    
   163   82   83 2    
   164   82   84 am   BACKBONE|DICT|INTERRES
   165   84   85 1    
   166   84  205 1    
   167   85   86 1    
   168   85   87 1    
   169   85  206 1    
   170   86  207 1    
   171   86  208 1    
   172   86  209 1    
   173   87   88 2    
   174   87   89 am   BACKBONE|DICT|INTERRES
   175   89   90 1    
   176   89  210 1    
   177   90   91 1    
   178   90   92 1    
   179   90  211 1    
   180   91  212 1    
   181   91  213 1    
   182   91  214 1    
   183   92   93 2    
   184   92   94 am   BACKBONE|DICT|INTERRES
   185   94   95 1    
   186   94  215 1    
   187   95   96 1    
   188   95   97 1    
   189   95  216 1    
   190   96  217 1    
   191   96  218 1    
   192   96  219 1    
   193   97   98 2    
   194   97   99 am   BACKBONE|DICT|INTERRES
   195   99  100 1    
   196   99  220 1    
   197  100  101 1    
   198  100  102 1    
   199  100  221 1    
   200  101  222 1    
   201  101  223 1    
   202  101  224 1    
   203  102  103 2    
   204  102  104 am   BACKBONE|DICT|INTERRES
   205  104  105 1    
   206  104  225 1    
   207  105  106 1    
   208  105  107 1    
   209  105  226 1    
   210  106  227 1    
   211  106  228 1    
   212  106  229 1    
   213  107  108 2    
   214  107  109 am   BACKBONE|DICT|INTERRES
   215  109  110 1    
   216  109  230 1    
   217  110  111 1    
   218  110  112 1    
   219  110  231 1    
   220  111  232 1    
   221  111  233 1    
   222  111  234 1    
   223  112  113 2    
   224  112  114 am   BACKBONE|DICT|INTERRES
   225  114  115 1    
   226  114  235 1    
   227  115  116 1    
   228  115  117 1    
   229  115  236 1    
   230  116  237 1    
   231  116  238 1    
   232  116  239 1    
   233  117  118 2    
   234  117  119 am   BACKBONE|DICT|INTERRES
   235  119  120 1    
   236  119  240 1    
   237  120  121 1    
   238  120  124 1    
   239  120  241 1    
   240  121  122 am   BACKBONE|DICT|INTERRES
   241  121  123 2    
   242  122  242 1    
   243  122  243 1    
   244  124  125 1    
   245  124  244 1    
   246  124  245 1    
   247  125  126 1    
   248  126  246 1    
   249  126  247 1    
@<TRIPOS>SUBSTRUCTURE
     1 UNK         1 GROUP             0       ****    0 ROOT    
