@<TRIPOS>MOLECULE
3R540
247   249    1
SMALL
USER_CHARGES


@<TRIPOS>ATOM
      1 CA         -0.4546  -13.9657  -51.1777 C.3       0 UNK        -0.1800 
      2 C           0.5260  -15.0391  -51.6450 C.2       0 UNK         0.5000 
      3 O           0.4664  -15.4465  -52.8017 O.2       0 UNK        -0.5000 
      4 N           1.4405  -15.5274  -50.7950 N.am      1 UNK        -0.5000 
      5 CA          1.6869  -15.1066  -49.4065 C.3       1 UNK         0.1400 
      6 C6          3.1699  -15.2767  -48.9833 C.3       23 UNK        -0.0398 
      7 S7          4.3248  -14.5096  -50.1841 S.3       23 UNK        -0.2404 
      8 C8          5.4463  -15.8654  -50.6861 C.3       23 UNK        -0.0205 
      9 C9          4.7441  -17.2021  -50.8848 C.ar      23 UNK        -0.0193 
     10 C10         3.7748  -17.3631  -51.8796 C.ar      23 UNK        -0.1150 
     11 C11         3.0655  -18.5638  -51.9890 C.ar      23 UNK        -0.0193 
     12 C12         3.3743  -19.6252  -51.1336 C.ar      23 UNK        -0.1150 
     13 C13         4.3471  -19.4779  -50.1431 C.ar      23 UNK        -0.0193 
     14 C14         5.0353  -18.2686  -50.0302 C.ar      23 UNK        -0.1150 
     15 C15         4.6251  -20.6056  -49.1634 C.3       23 UNK        -0.0205 
     16 S16         3.9988  -20.2145  -47.4986 S.3       23 UNK        -0.2404 
     17 C17         2.1894  -20.2497  -47.7520 C.3       23 UNK        -0.0398 
     18 CA          1.5711  -21.6324  -47.4434 C.3       11 UNK         0.1400 
     19 N           1.9604  -22.1527  -46.1316 N.am      11 UNK        -0.5000 
     20 C           1.7979  -23.4203  -45.7328 C.2       10 UNK         0.5000 
     21 O           1.3122  -24.3039  -46.4384 O.2       10 UNK        -0.5000 
     22 CA          2.2119  -23.7376  -44.2847 C.3       10 UNK         0.1400 
     23 CB          3.7162  -24.0363  -44.2053 C.3       10 UNK        -0.1800 
     24 N           1.8826  -22.6495  -43.3614 N.am      10 UNK        -0.5000 
     25 C           0.6321  -22.2820  -43.0493 C.2       9 UNK         0.5000 
     26 O          -0.3724  -22.8496  -43.4776 O.2       9 UNK        -0.5000 
     27 CA          0.4792  -21.0466  -42.1453 C.3       9 UNK         0.1400 
     28 CB          0.5981  -21.4398  -40.6656 C.3       9 UNK        -0.1800 
     29 N           1.4397  -19.9804  -42.4403 N.am      9 UNK        -0.5000 
     30 C           1.5281  -19.3151  -43.5994 C.2       8 UNK         0.5000 
     31 O           0.8468  -19.5886  -44.5888 O.2       8 UNK        -0.5000 
     32 CA          2.5320  -18.1457  -43.6447 C.3       8 UNK         0.1400 
     33 CB          2.3978  -17.2980  -44.9228 C.3       8 UNK        -0.1800 
     34 N           2.3625  -17.2620  -42.4930 N.am      8 UNK        -0.5000 
     35 C           2.9560  -17.3970  -41.3012 C.2       7 UNK         0.5000 
     36 O           3.6898  -18.3425  -41.0124 O.2       7 UNK        -0.5000 
     37 CA          2.6478  -16.3188  -40.2518 C.3       7 UNK         0.1400 
     38 CB          3.3427  -14.9953  -40.6112 C.3       7 UNK        -0.1800 
     39 N           1.2064  -16.0947  -40.1582 N.am      7 UNK        -0.5000 
     40 C           0.4523  -16.3608  -39.0831 C.2       6 UNK         0.5000 
     41 O           0.9013  -16.7856  -38.0177 O.2       6 UNK        -0.5000 
     42 CA         -1.0660  -16.1138  -39.2115 C.3       6 UNK         0.1400 
     43 CB         -1.4337  -14.7315  -38.6509 C.3       6 UNK        -0.1800 
     44 N          -1.5557  -16.2120  -40.5875 N.am      6 UNK        -0.5000 
     45 C          -1.5807  -17.3401  -41.3095 C.2       5 UNK         0.5000 
     46 O          -1.2898  -18.4441  -40.8515 O.2       5 UNK        -0.5000 
     47 CA         -1.9806  -17.2241  -42.7937 C.3       5 UNK         0.1400 
     48 CB         -3.4288  -17.7009  -42.9840 C.3       5 UNK        -0.1800 
     49 N          -1.8453  -15.8909  -43.3931 N.am      5 UNK        -0.5000 
     50 C          -0.7351  -15.1424  -43.4581 C.2       4 UNK         0.5000 
     51 O           0.3123  -15.4317  -42.8773 O.2       4 UNK        -0.5000 
     52 CA         -0.8131  -13.8678  -44.3220 C.3       4 UNK         0.1400 
     53 CB          0.5712  -13.2382  -44.5623 C.3       4 UNK        -0.1800 
     54 N          -1.4327  -14.1560  -45.6162 N.am      4 UNK        -0.5000 
     55 C          -2.7439  -14.0729  -45.8853 C.2       3 UNK         0.5000 
     56 O          -3.5807  -13.7081  -45.0594 O.2       3 UNK        -0.5000 
     57 CA         -3.2103  -14.5026  -47.2920 C.3       3 UNK         0.1400 
     58 CB         -3.3230  -13.2805  -48.2161 C.3       3 UNK        -0.1800 
     59 N          -2.3297  -15.4893  -47.9175 N.am      3 UNK        -0.5000 
     60 C          -2.1367  -16.7404  -47.4774 C.2       2 UNK         0.5000 
     61 O          -2.7676  -17.2368  -46.5462 O.2       2 UNK        -0.5000 
     62 CA         -1.0500  -17.5766  -48.1854 C.3       2 UNK         0.1400 
     63 CB         -1.7038  -18.5362  -49.1909 C.3       2 UNK        -0.1800 
     64 N          -0.0262  -16.8045  -48.9001 N.am      2 UNK        -0.5000 
     65 C           0.7444  -15.8194  -48.4125 C.2       1 UNK         0.5000 
     66 O           0.6913  -15.4297  -47.2474 O.2       1 UNK        -0.5000 
     67 C           0.0391  -21.5832  -47.5719 C.2       11 UNK         0.5000 
     68 O          -0.4973  -21.9944  -48.5989 O.2       11 UNK        -0.5000 
     69 N          -0.6364  -21.1285  -46.5063 N.am      12 UNK        -0.5000 
     70 CA         -2.0923  -21.1225  -46.3797 C.3       12 UNK         0.1400 
     71 CB         -2.4968  -20.4127  -45.0823 C.3       12 UNK        -0.1800 
     72 C          -2.6982  -22.5323  -46.4539 C.2       12 UNK         0.5000 
     73 O          -3.6936  -22.7190  -47.1519 O.2       12 UNK        -0.5000 
     74 N          -2.0644  -23.5030  -45.7812 N.am      13 UNK        -0.5000 
     75 CA         -2.4248  -24.9192  -45.8398 C.3       13 UNK         0.1400 
     76 CB         -1.6185  -25.7056  -44.7955 C.3       13 UNK        -0.1800 
     77 C          -2.2423  -25.5181  -47.2467 C.2       13 UNK         0.5000 
     78 O          -3.1431  -26.2053  -47.7281 O.2       13 UNK        -0.5000 
     79 N          -1.1092  -25.2142  -47.8974 N.am      14 UNK        -0.5000 
     80 CA         -0.7928  -25.6387  -49.2647 C.3       14 UNK         0.1400 
     81 CB          0.6633  -25.2753  -49.5931 C.3       14 UNK        -0.1800 
     82 C          -1.7526  -25.0534  -50.3190 C.2       14 UNK         0.5000 
     83 O          -2.1556  -25.7668  -51.2382 O.2       14 UNK        -0.5000 
     84 N          -2.1273  -23.7793  -50.1470 N.am      15 UNK        -0.5000 
     85 CA         -3.1050  -23.0693  -50.9741 C.3       15 UNK         0.1400 
     86 CB         -2.8905  -21.5574  -50.7940 C.3       15 UNK        -0.1800 
     87 C          -4.5683  -23.4429  -50.6553 C.2       15 UNK         0.5000 
     88 O          -5.4650  -23.0003  -51.3718 O.2       15 UNK        -0.5000 
     89 N          -4.7978  -24.2062  -49.5746 N.am      16 UNK        -0.5000 
     90 CA         -6.1002  -24.5894  -49.0140 C.3       16 UNK         0.1400 
     91 CB         -6.8234  -25.5798  -49.9493 C.3       16 UNK        -0.1800 
     92 C          -6.9641  -23.3636  -48.6419 C.2       16 UNK         0.5000 
     93 O          -8.1719  -23.3532  -48.8835 O.2       16 UNK        -0.5000 
     94 N          -6.2972  -22.3338  -48.1002 N.am      17 UNK        -0.5000 
     95 CA         -6.7858  -20.9983  -47.7390 C.3       17 UNK         0.1400 
     96 CB         -7.8877  -21.0841  -46.6641 C.3       17 UNK        -0.1800 
     97 C          -7.2120  -20.1102  -48.9303 C.2       17 UNK         0.5000 
     98 O          -7.5883  -18.9581  -48.7081 O.2       17 UNK        -0.5000 
     99 N          -7.1273  -20.6169  -50.1673 N.am      18 UNK        -0.5000 
    100 CA        -7.4516  -19.8926  -51.3909 C.3       18 UNK         0.1400 
    101 CB        -8.0569  -20.8715  -52.4129 C.3       18 UNK        -0.1800 
    102 C         -6.1829  -19.2069  -51.9171 C.2       18 UNK         0.5000 
    103 O         -5.5249  -19.7281  -52.8170 O.2       18 UNK        -0.5000 
    104 N         -5.8479  -18.0447  -51.3407 N.am      19 UNK        -0.5000 
    105 CA        -4.6493  -17.2612  -51.6668 C.3       19 UNK         0.1400 
    106 CB        -4.5287  -16.0861  -50.6863 C.3       19 UNK        -0.1800 
    107 C         -4.5765  -16.7702  -53.1288 C.2       19 UNK         0.5000 
    108 O         -3.4820  -16.5076  -53.6248 O.2       19 UNK        -0.5000 
    109 N         -5.7263  -16.7078  -53.8137 N.am      20 UNK        -0.5000 
    110 CA        -5.8280  -16.4677  -55.2553 C.3       20 UNK         0.1400 
    111 CB        -7.2954  -16.1717  -55.6017 C.3       20 UNK        -0.1800 
    112 C         -5.2977  -17.6378  -56.1152 C.2       20 UNK         0.5000 
    113 O         -4.9991  -17.4293  -57.2914 O.2       20 UNK        -0.5000 
    114 N         -5.1904  -18.8355  -55.5239 N.am      21 UNK        -0.5000 
    115 CA        -4.7173  -20.0701  -56.1483 C.3       21 UNK         0.1400 
    116 CB        -5.8423  -21.1184  -56.0671 C.3       21 UNK        -0.1800 
    117 C         -3.4143  -20.5709  -55.4897 C.2       21 UNK         0.5000 
    118 O         -3.1107  -21.7622  -55.5755 O.2       21 UNK        -0.5000 
    119 N         -2.6661  -19.6645  -54.8435 N.am      22 UNK        -0.5000 
    120 CA        -1.3532  -19.9236  -54.2327 C.3       22 UNK         0.1400 
    121 C         -0.2963  -20.4026  -55.2694 C.2       22 UNK         0.5000 
    122 N          0.4504  -21.4570  -54.9698 N.am      22 UNK        -0.7600 
    123 O         -0.1278  -19.8026  -56.3288 O.2       22 UNK        -0.5000 
    124 C124       -0.8556  -18.6728  -53.4652 C.3       23 UNK        -0.0398 
    125 S125        0.3527  -19.0471  -52.1546 S.3       23 UNK        -0.2404 
    126 C126        1.9344  -18.7038  -52.9956 C.3       23 UNK        -0.0205 
    127 H127       -1.2325  -13.8110  -51.9258 H         1 UNK         0.0600 
    128 H128        0.0604  -13.0167  -51.0294 H         1 UNK         0.0600 
    129 H129       -0.9464  -14.2483  -50.2491 H         1 UNK         0.0600 
    130 H130        2.0770  -16.2344  -51.1361 H         1 UNK         0.3000 
    131 H131        1.4650  -14.0410  -49.3280 H         1 UNK         0.0600 
    132 H132        3.4101  -16.3281  -48.8282 H         1 UNK         0.0800 
    133 H133        3.3366  -14.7973  -48.0169 H         1 UNK         0.0800 
    134 H134        5.9463  -15.5840  -51.6138 H         1 UNK         0.0800 
    135 H135        6.2323  -15.9550  -49.9346 H         1 UNK         0.0800 
    136 H136        3.5462  -16.5364  -52.5385 H         1 UNK         0.1150 
    137 H137        2.8234  -20.5519  -51.2140 H         1 UNK         0.1150 
    138 H138        5.7731  -18.1498  -49.2489 H         1 UNK         0.1150 
    139 H139        4.1851  -21.5430  -49.5074 H         1 UNK         0.0800 
    140 H140        5.7014  -20.7739  -49.1066 H         1 UNK         0.0800 
    141 H141        1.9500  -19.9457  -48.7715 H         1 UNK         0.0800 
    142 H142        1.7500  -19.4854  -47.1115 H         1 UNK         0.0800 
    143 H143        1.9383  -22.3328  -48.1967 H         1 UNK         0.0600 
    144 H144        2.3386  -21.4816  -45.4805 H         1 UNK         0.3000 
    145 H145        1.6676  -24.6304  -43.9695 H         1 UNK         0.0600 
    146 H146        4.0074  -24.3289  -43.1964 H         1 UNK         0.0600 
    147 H147        3.9857  -24.8572  -44.8713 H         1 UNK         0.0600 
    148 H148        4.3160  -23.1713  -44.4914 H         1 UNK         0.0600 
    149 H149        2.6528  -22.1301  -42.9664 H         1 UNK         0.3000 
    150 H150       -0.5214  -20.6429  -42.3112 H         1 UNK         0.0600 
    151 H151       -0.1229  -22.2172  -40.4091 H         1 UNK         0.0600 
    152 H152        0.3993  -20.5874  -40.0155 H         1 UNK         0.0600 
    153 H153        1.5921  -21.8197  -40.4268 H         1 UNK         0.0600 
    154 H154        2.0445  -19.6879  -41.6834 H         1 UNK         0.3000 
    155 H155        3.5365  -18.5731  -43.6299 H         1 UNK         0.0600 
    156 H156        3.0515  -16.4264  -44.8921 H         1 UNK         0.0600 
    157 H157        2.6746  -17.8710  -45.8060 H         1 UNK         0.0600 
    158 H158        1.3767  -16.9416  -45.0646 H         1 UNK         0.0600 
    159 H159        1.7112  -16.4919  -42.6329 H         1 UNK         0.3000 
    160 H160        3.0509  -16.6636  -39.2973 H         1 UNK         0.0600 
    161 H161        2.9725  -14.5846  -41.5517 H         1 UNK         0.0600 
    162 H162        4.4198  -15.1337  -40.7125 H         1 UNK         0.0600 
    163 H163        3.1824  -14.2465  -39.8354 H         1 UNK         0.0600 
    164 H164        0.7461  -15.7790  -41.0062 H         1 UNK         0.3000 
    165 H165       -1.5755  -16.8731  -38.6146 H         1 UNK         0.0600 
    166 H166       -2.5120  -14.5722  -38.6682 H         1 UNK         0.0600 
    167 H167       -1.1083  -14.6312  -37.6145 H         1 UNK         0.0600 
    168 H168       -0.9650  -13.9284  -39.2212 H         1 UNK         0.0600 
    169 H169       -1.8179  -15.3498  -41.0414 H         1 UNK         0.3000 
    170 H170       -1.3206  -17.8912  -43.3512 H         1 UNK         0.0600 
    171 H171       -3.5607  -18.7156  -42.6057 H         1 UNK         0.0600 
    172 H172       -4.1347  -17.0583  -42.4565 H         1 UNK         0.0600 
    173 H173       -3.7092  -17.7110  -44.0371 H         1 UNK         0.0600 
    174 H174       -2.6550  -15.5537  -43.8958 H         1 UNK         0.3000 
    175 H175       -1.4175  -13.1416  -43.7751 H         1 UNK         0.0600 
    176 H176        1.0337  -12.9380  -43.6212 H         1 UNK         0.0600 
    177 H177        1.2513  -13.9349  -45.0538 H         1 UNK         0.0600 
    178 H178        0.4966  -12.3469  -45.1854 H         1 UNK         0.0600 
    179 H179       -0.8089  -14.5396  -46.3201 H         1 UNK         0.3000 
    180 H180       -4.2011  -14.9504  -47.1900 H         1 UNK         0.0600 
    181 H181       -2.3549  -12.8027  -48.3723 H         1 UNK         0.0600 
    182 H182       -3.9934  -12.5316  -47.7922 H         1 UNK         0.0600 
    183 H183       -3.7236  -13.5559  -49.1915 H         1 UNK         0.0600 
    184 H184       -1.7695  -15.1687  -48.6904 H         1 UNK         0.3000 
    185 H185       -0.5505  -18.1637  -47.4120 H         1 UNK         0.0600 
    186 H186       -2.6206  -18.9767  -48.7999 H         1 UNK         0.0600 
    187 H187       -1.9664  -18.0235  -50.1153 H         1 UNK         0.0600 
    188 H188       -1.0302  -19.3540  -49.4453 H         1 UNK         0.0600 
    189 H189        0.1063  -17.0487  -49.8719 H         1 UNK         0.3000 
    190 H190       -0.1109  -20.7618  -45.7164 H         1 UNK         0.3000 
    191 H191       -2.4961  -20.5520  -47.2149 H         1 UNK         0.0600 
    192 H192       -2.1503  -20.9476  -44.1987 H         1 UNK         0.0600 
    193 H193       -3.5811  -20.3207  -45.0092 H         1 UNK         0.0600 
    194 H194       -2.0807  -19.4068  -45.0479 H         1 UNK         0.0600 
    195 H195       -1.2886  -23.2537  -45.1751 H         1 UNK         0.3000 
    196 H196       -3.4823  -25.0019  -45.5800 H         1 UNK         0.0600 
    197 H197       -1.8910  -26.7616  -44.8061 H         1 UNK         0.0600 
    198 H198       -1.8073  -25.3309  -43.7893 H         1 UNK         0.0600 
    199 H199       -0.5461  -25.6413  -44.9790 H         1 UNK         0.0600 
    200 H200       -0.3967  -24.6753  -47.4147 H         1 UNK         0.3000 
    201 H201       -0.8859  -26.7260  -49.3023 H         1 UNK         0.0600 
    202 H202        1.3548  -25.7511  -48.8976 H         1 UNK         0.0600 
    203 H203        0.8307  -24.1991  -49.5470 H         1 UNK         0.0600 
    204 H204        0.9319  -25.6067  -50.5969 H         1 UNK         0.0600 
    205 H205       -1.6882  -23.2385  -49.4056 H         1 UNK         0.3000 
    206 H206       -2.9234  -23.3167  -52.0220 H         1 UNK         0.0600 
    207 H207       -3.1036  -21.2449  -49.7712 H         1 UNK         0.0600 
    208 H208       -1.8639  -21.2724  -51.0241 H         1 UNK         0.0600 
    209 H209       -3.5403  -20.9855  -51.4567 H         1 UNK         0.0600 
    210 H210       -3.9949  -24.5017  -49.0345 H         1 UNK         0.3000 
    211 H211       -5.8889  -25.1095  -48.0786 H         1 UNK         0.0600 
    212 H212       -6.1894  -26.4358  -50.1805 H         1 UNK         0.0600 
    213 H213       -7.7311  -25.9652  -49.4837 H         1 UNK         0.0600 
    214 H214       -7.1119  -25.1119  -50.8910 H         1 UNK         0.0600 
    215 H215       -5.3053  -22.4817  -47.9142 H         1 UNK         0.3000 
    216 H216       -5.9309  -20.4927  -47.2875 H         1 UNK         0.0600 
    217 H217       -8.8055  -21.5229  -47.0561 H         1 UNK         0.0600 
    218 H218       -8.1395  -20.0939  -46.2828 H         1 UNK         0.0600 
    219 H219       -7.5634  -21.6845  -45.8141 H         1 UNK         0.0600 
    220 H220       -6.7560  -21.5509  -50.2937 H         1 UNK         0.3000 
    221 H221       -8.2004  -19.1235  -51.1901 H         1 UNK         0.0600 
    222 H222       -8.9721  -21.3226  -52.0295 H         1 UNK         0.0600 
    223 H223       -7.3687  -21.6791  -52.6636 H         1 UNK         0.0600 
    224 H224       -8.3095  -20.3581  -53.3414 H         1 UNK         0.0600 
    225 H225       -6.4265  -17.6977  -50.5873 H         1 UNK         0.3000 
    226 H226       -3.7922  -17.9191  -51.5178 H         1 UNK         0.0600 
    227 H227       -4.5012  -16.4355  -49.6542 H         1 UNK         0.0600 
    228 H228       -3.6112  -15.5231  -50.8632 H         1 UNK         0.0600 
    229 H229       -5.3651  -15.3931  -50.7841 H         1 UNK         0.0600 
    230 H230       -6.5832  -16.9301  -53.3295 H         1 UNK         0.3000 
    231 H231       -5.2327  -15.5851  -55.4987 H         1 UNK         0.0600 
    232 H232       -7.9422  -17.0187  -55.3691 H         1 UNK         0.0600 
    233 H233       -7.4102  -15.9534  -56.6643 H         1 UNK         0.0600 
    234 H234       -7.6641  -15.3052  -55.0524 H         1 UNK         0.0600 
    235 H235       -5.4185  -18.9275  -54.5372 H         1 UNK         0.3000 
    236 H236       -4.4879  -19.9009  -57.2020 H         1 UNK         0.0600 
    237 H237       -6.7590  -20.7491  -56.5268 H         1 UNK         0.0600 
    238 H238       -5.5665  -22.0355  -56.5889 H         1 UNK         0.0600 
    239 H239       -6.0688  -21.3825  -55.0332 H         1 UNK         0.0600 
    240 H240       -2.9833  -18.7058  -54.8345 H         1 UNK         0.3000 
    241 H241       -1.5130  -20.7257  -53.5095 H         1 UNK         0.0600 
    242 H242        0.3325  -21.9571  -54.1029 H         1 UNK         0.3800 
    243 H243        1.1418  -21.7715  -55.6323 H         1 UNK         0.3800 
    244 H244       -1.6929  -18.2093  -52.9463 H         1 UNK         0.0800 
    245 H245       -0.4710  -17.9070  -54.1415 H         1 UNK         0.0800 
    246 H246        2.1670  -19.5121  -53.6892 H         1 UNK         0.0800 
    247 H247        1.8408  -17.7946  -53.5913 H         1 UNK         0.0800 
@<TRIPOS>BOND
     1    1    2 1    
     2    1  127 1    
     3    1  128 1    
     4    1  129 1    
     5    2    3 2    
     6    2    4 am   BACKBONE|DICT|INTERRES
     7    4    5 1    
     8    4  130 1    
     9    5    6 1    
    10    5   65 1    
    11    5  131 1    
    12    6    7 1    
    13    6  132 1    
    14    6  133 1    
    15    7    8 1    
    16    8    9 1    
    17    8  134 1    
    18    8  135 1    
    19    9   10 ar   
    20    9   14 ar   
    21   10   11 ar   
    22   10  136 1    
    23   11   12 ar   
    24   11  126 1    
    25   12   13 ar   
    26   12  137 1    
    27   13   14 ar   
    28   13   15 1    
    29   14  138 1    
    30   15   16 1    
    31   15  139 1    
    32   15  140 1    
    33   16   17 1    
    34   17   18 1    
    35   17  141 1    
    36   17  142 1    
    37   18   19 1    
    38   18   67 1    
    39   18  143 1    
    40   19   20 am   BACKBONE|DICT|INTERRES
    41   19  144 1    
    42   20   21 2    
    43   20   22 1    
    44   22   23 1    
    45   22   24 1    
    46   22  145 1    
    47   23  146 1    
    48   23  147 1    
    49   23  148 1    
    50   24   25 am   BACKBONE|DICT|INTERRES
    51   24  149 1    
    52   25   26 2    
    53   25   27 1    
    54   27   28 1    
    55   27   29 1    
    56   27  150 1    
    57   28  151 1    
    58   28  152 1    
    59   28  153 1    
    60   29   30 am   BACKBONE|DICT|INTERRES
    61   29  154 1    
    62   30   31 2    
    63   30   32 1    
    64   32   33 1    
    65   32   34 1    
    66   32  155 1    
    67   33  156 1    
    68   33  157 1    
    69   33  158 1    
    70   34   35 am   BACKBONE|DICT|INTERRES
    71   34  159 1    
    72   35   36 2    
    73   35   37 1    
    74   37   38 1    
    75   37   39 1    
    76   37  160 1    
    77   38  161 1    
    78   38  162 1    
    79   38  163 1    
    80   39   40 am   BACKBONE|DICT|INTERRES
    81   39  164 1    
    82   40   41 2    
    83   40   42 1    
    84   42   43 1    
    85   42   44 1    
    86   42  165 1    
    87   43  166 1    
    88   43  167 1    
    89   43  168 1    
    90   44   45 am   BACKBONE|DICT|INTERRES
    91   44  169 1    
    92   45   46 2    
    93   45   47 1    
    94   47   48 1    
    95   47   49 1    
    96   47  170 1    
    97   48  171 1    
    98   48  172 1    
    99   48  173 1    
   100   49   50 am   BACKBONE|DICT|INTERRES
   101   49  174 1    
   102   50   51 2    
   103   50   52 1    
   104   52   53 1    
   105   52   54 1    
   106   52  175 1    
   107   53  176 1    
   108   53  177 1    
   109   53  178 1    
   110   54   55 am   BACKBONE|DICT|INTERRES
   111   54  179 1    
   112   55   56 2    
   113   55   57 1    
   114   57   58 1    
   115   57   59 1    
   116   57  180 1    
   117   58  181 1    
   118   58  182 1    
   119   58  183 1    
   120   59   60 am   BACKBONE|DICT|INTERRES
   121   59  184 1    
   122   60   61 2    
   123   60   62 1    
   124   62   63 1    
   125   62   64 1    
   126   62  185 1    
   127   63  186 1    
   128   63  187 1    
   129   63  188 1    
   130   64   65 am   BACKBONE|DICT|INTERRES
   131   64  189 1    
   132   65   66 2    
   133   67   68 2    
   134   67   69 am   BACKBONE|DICT|INTERRES
   135   69   70 1    
   136   69  190 1    
   137   70   71 1    
   138   70   72 1    
   139   70  191 1    
   140   71  192 1    
   141   71  193 1    
   142   71  194 1    
   143   72   73 2    
   144   72   74 am   BACKBONE|DICT|INTERRES
   145   74   75 1    
   146   74  195 1    
   147   75   76 1    
   148   75   77 1    
   149   75  196 1    
   150   76  197 1    
   151   76  198 1    
   152   76  199 1    
   153   77   78 2    
   154   77   79 am   BACKBONE|DICT|INTERRES
   155   79   80 1    
   156   79  200 1    
   157   80   81 1    
   158   80   82 1    
   159   80  201 1    
   160   81  202 1    
   161   81  203 1    
   162   81  204 1    
   163   82   83 2    
   164   82   84 am   BACKBONE|DICT|INTERRES
   165   84   85 1    
   166   84  205 1    
   167   85   86 1    
   168   85   87 1    
   169   85  206 1    
   170   86  207 1    
   171   86  208 1    
   172   86  209 1    
   173   87   88 2    
   174   87   89 am   BACKBONE|DICT|INTERRES
   175   89   90 1    
   176   89  210 1    
   177   90   91 1    
   178   90   92 1    
   179   90  211 1    
   180   91  212 1    
   181   91  213 1    
   182   91  214 1    
   183   92   93 2    
   184   92   94 am   BACKBONE|DICT|INTERRES
   185   94   95 1    
   186   94  215 1    
   187   95   96 1    
   188   95   97 1    
   189   95  216 1    
   190   96  217 1    
   191   96  218 1    
   192   96  219 1    
   193   97   98 2    
   194   97   99 am   BACKBONE|DICT|INTERRES
   195   99  100 1    
   196   99  220 1    
   197  100  101 1    
   198  100  102 1    
   199  100  221 1    
   200  101  222 1    
   201  101  223 1    
   202  101  224 1    
   203  102  103 2    
   204  102  104 am   BACKBONE|DICT|INTERRES
   205  104  105 1    
   206  104  225 1    
   207  105  106 1    
   208  105  107 1    
   209  105  226 1    
   210  106  227 1    
   211  106  228 1    
   212  106  229 1    
   213  107  108 2    
   214  107  109 am   BACKBONE|DICT|INTERRES
   215  109  110 1    
   216  109  230 1    
   217  110  111 1    
   218  110  112 1    
   219  110  231 1    
   220  111  232 1    
   221  111  233 1    
   222  111  234 1    
   223  112  113 2    
   224  112  114 am   BACKBONE|DICT|INTERRES
   225  114  115 1    
   226  114  235 1    
   227  115  116 1    
   228  115  117 1    
   229  115  236 1    
   230  116  237 1    
   231  116  238 1    
   232  116  239 1    
   233  117  118 2    
   234  117  119 am   BACKBONE|DICT|INTERRES
   235  119  120 1    
   236  119  240 1    
   237  120  121 1    
   238  120  124 1    
   239  120  241 1    
   240  121  122 am   BACKBONE|DICT|INTERRES
   241  121  123 2    
   242  122  242 1    
   243  122  243 1    
   244  124  125 1    
   245  124  244 1    
   246  124  245 1    
   247  125  126 1    
   248  126  246 1    
   249  126  247 1    
@<TRIPOS>SUBSTRUCTURE
     1 UNK         1 GROUP             0       ****    0 ROOT    
