@<TRIPOS>MOLECULE
3R540
247   249    1
SMALL
USER_CHARGES


@<TRIPOS>ATOM
      1 CA          5.5334  -16.2633  -45.9787 C.3       0 UNK        -0.1800 
      2 C           4.3677  -15.2940  -46.1012 C.2       0 UNK         0.5000 
      3 O           3.7298  -14.9759  -45.0987 O.2       0 UNK        -0.5000 
      4 N           4.0953  -14.8098  -47.3207 N.am      1 UNK        -0.5000 
      5 CA          2.9590  -13.9349  -47.6468 C.3       1 UNK         0.1400 
      6 C6          2.7880  -13.7039  -49.1720 C.3       23 UNK        -0.0398 
      7 S7          2.8856  -15.2238  -50.1755 S.3       23 UNK        -0.2404 
      8 C8          1.2586  -15.9729  -49.8508 C.3       23 UNK        -0.0205 
      9 C9          1.1844  -17.4063  -50.3549 C.ar      23 UNK        -0.0193 
     10 C10         0.1679  -17.8021  -51.2299 C.ar      23 UNK        -0.1150 
     11 C11         0.0896  -19.1260  -51.6739 C.ar      23 UNK        -0.0193 
     12 C12         1.0294  -20.0559  -51.2191 C.ar      23 UNK        -0.1150 
     13 C13         2.0312  -19.6855  -50.3177 C.ar      23 UNK        -0.0193 
     14 C14         2.1149  -18.3509  -49.9108 C.ar      23 UNK        -0.1150 
     15 C15         3.0071  -20.7485  -49.8148 C.3       23 UNK        -0.0205 
     16 S16         3.5801  -20.5689  -48.0837 S.3       23 UNK        -0.2404 
     17 C17         2.0758  -20.1960  -47.1143 C.3       23 UNK        -0.0398 
     18 CA          1.2031  -21.4208  -46.7463 C.3       11 UNK         0.1400 
     19 N           0.4121  -21.1660  -45.5390 N.am      11 UNK        -0.5000 
     20 C          -0.3842  -22.0546  -44.9279 C.2       10 UNK         0.5000 
     21 O          -0.4947  -23.2312  -45.2723 O.2       10 UNK        -0.5000 
     22 CA         -1.2435  -21.5229  -43.7672 C.3       10 UNK         0.1400 
     23 CB         -0.4163  -21.4179  -42.4775 C.3       10 UNK        -0.1800 
     24 N          -1.8609  -20.2295  -44.0694 N.am      10 UNK        -0.5000 
     25 C          -2.7545  -20.0293  -45.0495 C.2       9 UNK         0.5000 
     26 O          -3.1767  -20.9234  -45.7804 O.2       9 UNK        -0.5000 
     27 CA         -3.2336  -18.5868  -45.2837 C.3       9 UNK         0.1400 
     28 CB         -4.3092  -18.1963  -44.2595 C.3       9 UNK        -0.1800 
     29 N          -2.1450  -17.6113  -45.2553 N.am      9 UNK        -0.5000 
     30 C          -1.1147  -17.5893  -46.1138 C.2       8 UNK         0.5000 
     31 O          -0.9731  -18.3861  -47.0409 O.2       8 UNK        -0.5000 
     32 CA         -0.0313  -16.5272  -45.8567 C.3       8 UNK         0.1400 
     33 CB         -0.5304  -15.1328  -46.2702 C.3       8 UNK        -0.1800 
     34 N           0.3935  -16.4995  -44.4580 N.am      8 UNK        -0.5000 
     35 C           0.9209  -17.5373  -43.7924 C.2       7 UNK         0.5000 
     36 O           1.1558  -18.6341  -44.2984 O.2       7 UNK        -0.5000 
     37 CA          1.1599  -17.3371  -42.2875 C.3       7 UNK         0.1400 
     38 CB          2.4552  -16.5518  -42.0316 C.3       7 UNK        -0.1800 
     39 N           0.0284  -16.6663  -41.6457 N.am      7 UNK        -0.5000 
     40 C          -1.1887  -17.2113  -41.4986 C.2       6 UNK         0.5000 
     41 O          -1.4734  -18.3554  -41.8501 O.2       6 UNK        -0.5000 
     42 CA         -2.2817  -16.3119  -40.8939 C.3       6 UNK         0.1400 
     43 CB         -2.1997  -16.3157  -39.3603 C.3       6 UNK        -0.1800 
     44 N          -2.2028  -14.9347  -41.3808 N.am      6 UNK        -0.5000 
     45 C          -2.4402  -14.5617  -42.6469 C.2       5 UNK         0.5000 
     46 O          -2.8073  -15.3357  -43.5299 O.2       5 UNK        -0.5000 
     47 CA         -2.1641  -13.0852  -42.9913 C.3       5 UNK         0.1400 
     48 CB         -3.3956  -12.2183  -42.6908 C.3       5 UNK        -0.1800 
     49 N          -1.0013  -12.5510  -42.2747 N.am      5 UNK        -0.5000 
     50 C           0.2499  -12.9940  -42.4496 C.2       4 UNK         0.5000 
     51 O           0.5578  -13.8611  -43.2707 O.2       4 UNK        -0.5000 
     52 CA          1.3174  -12.4366  -41.5017 C.3       4 UNK         0.1400 
     53 CB          1.2462  -13.1733  -40.1471 C.3       4 UNK        -0.1800 
     54 N           2.6220  -12.6204  -42.1291 N.am      4 UNK        -0.5000 
     55 C           3.7964  -12.1706  -41.6747 C.2       3 UNK         0.5000 
     56 O           3.9355  -11.5280  -40.6332 O.2       3 UNK        -0.5000 
     57 CA          5.0234  -12.4656  -42.5538 C.3       3 UNK         0.1400 
     58 CB          5.4918  -13.9190  -42.3797 C.3       3 UNK        -0.1800 
     59 N           4.7726  -12.1881  -43.9702 N.am      3 UNK        -0.5000 
     60 C           4.6735  -10.9505  -44.4811 C.2       2 UNK         0.5000 
     61 O           4.7515   -9.9293  -43.7965 O.2       2 UNK        -0.5000 
     62 CA          4.4925  -10.8046  -46.0047 C.3       2 UNK         0.1400 
     63 CB          5.7484  -10.1805  -46.6355 C.3       2 UNK        -0.1800 
     64 N           4.2258  -12.0752  -46.6764 N.am      2 UNK        -0.5000 
     65 C           3.0072  -12.5765  -46.9149 C.2       1 UNK         0.5000 
     66 O           1.9590  -12.0190  -46.5896 O.2       1 UNK        -0.5000 
     67 C           0.2983  -21.8379  -47.9223 C.2       11 UNK         0.5000 
     68 O           0.5416  -22.8720  -48.5436 O.2       11 UNK        -0.5000 
     69 N          -0.7536  -21.0475  -48.1747 N.am      12 UNK        -0.5000 
     70 CA         -1.7328  -21.2774  -49.2324 C.3       12 UNK         0.1400 
     71 CB         -2.6685  -20.0660  -49.3219 C.3       12 UNK        -0.1800 
     72 C          -2.5170  -22.5879  -49.0575 C.2       12 UNK         0.5000 
     73 O          -2.6824  -23.3238  -50.0304 O.2       12 UNK        -0.5000 
     74 N          -2.9491  -22.8800  -47.8243 N.am      13 UNK        -0.5000 
     75 CA         -3.6239  -24.1244  -47.4580 C.3       13 UNK         0.1400 
     76 CB         -4.1524  -24.0224  -46.0202 C.3       13 UNK        -0.1800 
     77 C          -2.7245  -25.3616  -47.6230 C.2       13 UNK         0.5000 
     78 O          -3.2022  -26.3917  -48.0947 O.2       13 UNK        -0.5000 
     79 N          -1.4389  -25.2410  -47.2667 N.am      14 UNK        -0.5000 
     80 CA         -0.4426  -26.2945  -47.4586 C.3       14 UNK         0.1400 
     81 CB          0.8305  -25.9509  -46.6699 C.3       14 UNK        -0.1800 
     82 C          -0.1177  -26.5380  -48.9446 C.2       14 UNK         0.5000 
     83 O           0.0004  -27.6919  -49.3587 O.2       14 UNK        -0.5000 
     84 N           0.0280  -25.4510  -49.7126 N.am      15 UNK        -0.5000 
     85 CA          0.4109  -25.4805  -51.1211 C.3       15 UNK         0.1400 
     86 CB          0.9445  -24.0984  -51.5297 C.3       15 UNK        -0.1800 
     87 C          -0.7281  -25.9109  -52.0604 C.2       15 UNK         0.5000 
     88 O          -0.5161  -26.7863  -52.9008 O.2       15 UNK        -0.5000 
     89 N          -1.8908  -25.2573  -51.9404 N.am      16 UNK        -0.5000 
     90 CA         -2.9577  -25.3046  -52.9428 C.3       16 UNK         0.1400 
     91 CB         -3.3153  -23.8607  -53.3308 C.3       16 UNK        -0.1800 
     92 C          -4.2189  -26.0497  -52.4796 C.2       16 UNK         0.5000 
     93 O          -5.1013  -26.2772  -53.3085 O.2       16 UNK        -0.5000 
     94 N          -4.3182  -26.3820  -51.1836 N.am      17 UNK        -0.5000 
     95 CA         -5.4560  -27.0096  -50.4899 C.3       17 UNK         0.1400 
     96 CB         -5.8087  -28.3873  -51.0847 C.3       17 UNK        -0.1800 
     97 C          -6.6963  -26.0994  -50.3873 C.2       17 UNK         0.5000 
     98 O          -7.1899  -25.8669  -49.2838 O.2       17 UNK        -0.5000 
     99 N          -7.1603  -25.5789  -51.5300 N.am      18 UNK        -0.5000 
    100 CA        -8.2645  -24.6243  -51.6464 C.3       18 UNK         0.1400 
    101 CB        -8.7399  -24.5935  -53.1068 C.3       18 UNK        -0.1800 
    102 C         -7.8854  -23.2053  -51.1802 C.2       18 UNK         0.5000 
    103 O         -8.7749  -22.4262  -50.8365 O.2       18 UNK        -0.5000 
    104 N         -6.5793  -22.8984  -51.1908 N.am      19 UNK        -0.5000 
    105 CA        -5.9025  -21.6682  -50.7608 C.3       19 UNK         0.1400 
    106 CB        -6.1475  -21.3917  -49.2647 C.3       19 UNK        -0.1800 
    107 C         -6.1939  -20.4143  -51.6094 C.2       19 UNK         0.5000 
    108 O         -5.2583  -19.6744  -51.9175 O.2       19 UNK        -0.5000 
    109 N         -7.4664  -20.1949  -51.9634 N.am      20 UNK        -0.5000 
    110 CA        -7.9982  -19.0465  -52.7000 C.3       20 UNK         0.1400 
    111 CB        -9.4932  -19.2796  -52.9695 C.3       20 UNK        -0.1800 
    112 C         -7.2371  -18.7682  -54.0095 C.2       20 UNK         0.5000 
    113 O         -7.3059  -19.5756  -54.9392 O.2       20 UNK        -0.5000 
    114 N         -6.4840  -17.6578  -54.0251 N.am      21 UNK        -0.5000 
    115 CA        -5.6174  -17.1814  -55.1130 C.3       21 UNK         0.1400 
    116 CB        -6.4761  -16.6912  -56.2976 C.3       21 UNK        -0.1800 
    117 C         -4.5347  -18.1970  -55.5485 C.2       21 UNK         0.5000 
    118 O         -4.0953  -18.1647  -56.6995 O.2       21 UNK        -0.5000 
    119 N         -4.1454  -19.0929  -54.6299 N.am      22 UNK        -0.5000 
    120 CA        -3.2906  -20.2668  -54.8722 C.3       22 UNK         0.1400 
    121 C         -3.9362  -21.3432  -55.8025 C.2       22 UNK         0.5000 
    122 N         -5.2518  -21.3681  -55.9857 N.am      22 UNK        -0.7600 
    123 O         -3.2396  -22.1921  -56.3518 O.2       22 UNK        -0.5000 
    124 C124       -1.8345  -19.9135  -55.3011 C.3       23 UNK        -0.0398 
    125 S125       -0.9561  -18.7296  -54.2208 S.3       23 UNK        -0.2404 
    126 C126       -1.0292  -19.5699  -52.6084 C.3       23 UNK        -0.0205 
    127 H127        6.2737  -15.8723  -45.2809 H         1 UNK         0.0600 
    128 H128        6.0229  -16.4325  -46.9380 H         1 UNK         0.0600 
    129 H129        5.1810  -17.2234  -45.6018 H         1 UNK         0.0600 
    130 H130        4.6487  -15.1110  -48.1107 H         1 UNK         0.3000 
    131 H131        2.0689  -14.4506  -47.2896 H         1 UNK         0.0600 
    132 H132        1.8363  -13.2105  -49.3783 H         1 UNK         0.0800 
    133 H133        3.5629  -13.0300  -49.5424 H         1 UNK         0.0800 
    134 H134        0.4825  -15.3557  -50.3059 H         1 UNK         0.0800 
    135 H135        1.0664  -15.9828  -48.7792 H         1 UNK         0.0800 
    136 H136       -0.5653  -17.0834  -51.5680 H         1 UNK         0.1150 
    137 H137        0.9686  -21.0818  -51.5516 H         1 UNK         0.1150 
    138 H138        2.8946  -18.0452  -49.2277 H         1 UNK         0.1150 
    139 H139        2.5645  -21.7393  -49.9179 H         1 UNK         0.0800 
    140 H140        3.8816  -20.7428  -50.4662 H         1 UNK         0.0800 
    141 H141        1.4855  -19.4084  -47.5806 H         1 UNK         0.0800 
    142 H142        2.4568  -19.7472  -46.1974 H         1 UNK         0.0800 
    143 H143        1.8620  -22.2611  -46.5179 H         1 UNK         0.0600 
    144 H144        0.4631  -20.2238  -45.1605 H         1 UNK         0.3000 
    145 H145       -2.0472  -22.2418  -43.5955 H         1 UNK         0.0600 
    146 H146       -1.0421  -21.1342  -41.6312 H         1 UNK         0.0600 
    147 H147        0.0485  -22.3736  -42.2321 H         1 UNK         0.0600 
    148 H148        0.3793  -20.6780  -42.5673 H         1 UNK         0.0600 
    149 H149       -1.5956  -19.4491  -43.4757 H         1 UNK         0.3000 
    150 H150       -3.6842  -18.5469  -46.2775 H         1 UNK         0.0600 
    151 H151       -5.1379  -18.9054  -44.2731 H         1 UNK         0.0600 
    152 H152       -4.7209  -17.2108  -44.4776 H         1 UNK         0.0600 
    153 H153       -3.9106  -18.1747  -43.2449 H         1 UNK         0.0600 
    154 H154       -2.2025  -16.8909  -44.5412 H         1 UNK         0.3000 
    155 H155        0.8446  -16.7781  -46.4583 H         1 UNK         0.0600 
    156 H156       -0.7085  -15.0840  -47.3447 H         1 UNK         0.0600 
    157 H157        0.1917  -14.3571  -46.0177 H         1 UNK         0.0600 
    158 H158       -1.4661  -14.8736  -45.7762 H         1 UNK         0.0600 
    159 H159        0.2911  -15.6131  -43.9712 H         1 UNK         0.3000 
    160 H160        1.2693  -18.3239  -41.8328 H         1 UNK         0.0600 
    161 H161        2.4158  -15.5524  -42.4632 H         1 UNK         0.0600 
    162 H162        3.3114  -17.0605  -42.4765 H         1 UNK         0.0600 
    163 H163        2.6546  -16.4510  -40.9649 H         1 UNK         0.0600 
    164 H164        0.1640  -15.7053  -41.3746 H         1 UNK         0.3000 
    165 H165       -3.2510  -16.7217  -41.1859 H         1 UNK         0.0600 
    166 H166       -3.0155  -15.7416  -38.9207 H         1 UNK         0.0600 
    167 H167       -2.2709  -17.3315  -38.9689 H         1 UNK         0.0600 
    168 H168       -1.2600  -15.8916  -39.0040 H         1 UNK         0.0600 
    169 H169       -1.9156  -14.2311  -40.7174 H         1 UNK         0.3000 
    170 H170       -1.9580  -13.0271  -44.0622 H         1 UNK         0.0600 
    171 H171       -4.2711  -12.5859  -43.2278 H         1 UNK         0.0600 
    172 H172       -3.6393  -12.2163  -41.6277 H         1 UNK         0.0600 
    173 H173       -3.2357  -11.1855  -43.0011 H         1 UNK         0.0600 
    174 H174       -1.1832  -11.8386  -41.5822 H         1 UNK         0.3000 
    175 H175        1.1406  -11.3690  -41.3582 H         1 UNK         0.0600 
    176 H176        1.4995  -14.2287  -40.2492 H         1 UNK         0.0600 
    177 H177        1.9274  -12.7391  -39.4161 H         1 UNK         0.0600 
    178 H178        0.2463  -13.1150  -39.7157 H         1 UNK         0.0600 
    179 H179        2.5875  -13.1328  -43.0032 H         1 UNK         0.3000 
    180 H180        5.8353  -11.8159  -42.2194 H         1 UNK         0.0600 
    181 H181        4.7236  -14.6326  -42.6758 H         1 UNK         0.0600 
    182 H182        5.7413  -14.1241  -41.3380 H         1 UNK         0.0600 
    183 H183        6.3832  -14.1210  -42.9738 H         1 UNK         0.0600 
    184 H184        4.6338  -12.9868  -44.5756 H         1 UNK         0.3000 
    185 H185        3.6575  -10.1201  -46.1689 H         1 UNK         0.0600 
    186 H186        5.9669   -9.2066  -46.1953 H         1 UNK         0.0600 
    187 H187        6.6272  -10.8103  -46.4916 H         1 UNK         0.0600 
    188 H188        5.6167  -10.0271  -47.7068 H         1 UNK         0.0600 
    189 H189        5.0303  -12.6094  -46.9722 H         1 UNK         0.3000 
    190 H190       -0.8731  -20.1964  -47.6307 H         1 UNK         0.3000 
    191 H191       -1.1893  -21.3569  -50.1737 H         1 UNK         0.0600 
    192 H192       -2.1064  -19.1464  -49.4851 H         1 UNK         0.0600 
    193 H193       -3.3604  -20.1688  -50.1548 H         1 UNK         0.0600 
    194 H194       -3.2540  -19.9395  -48.4113 H         1 UNK         0.0600 
    195 H195       -2.8198  -22.1971  -47.0805 H         1 UNK         0.3000 
    196 H196       -4.4792  -24.2498  -48.1256 H         1 UNK         0.0600 
    197 H197       -4.6677  -24.9376  -45.7264 H         1 UNK         0.0600 
    198 H198       -4.8635  -23.2022  -45.9206 H         1 UNK         0.0600 
    199 H199       -3.3448  -23.8536  -45.3068 H         1 UNK         0.0600 
    200 H200       -1.1178  -24.3764  -46.8425 H         1 UNK         0.3000 
    201 H201       -0.8483  -27.2230  -47.0511 H         1 UNK         0.0600 
    202 H202        0.6201  -25.8615  -45.6040 H         1 UNK         0.0600 
    203 H203        1.2708  -25.0104  -47.0023 H         1 UNK         0.0600 
    204 H204        1.5861  -26.7283  -46.7887 H         1 UNK         0.0600 
    205 H205       -0.0269  -24.5343  -49.2756 H         1 UNK         0.3000 
    206 H206        1.2262  -26.1977  -51.2386 H         1 UNK         0.0600 
    207 H207        1.8259  -23.8319  -50.9468 H         1 UNK         0.0600 
    208 H208        1.2327  -24.0817  -52.5815 H         1 UNK         0.0600 
    209 H209        0.1952  -23.3206  -51.3797 H         1 UNK         0.0600 
    210 H210       -2.0051  -24.5663  -51.2009 H         1 UNK         0.3000 
    211 H211       -2.6124  -25.8100  -53.8470 H         1 UNK         0.0600 
    212 H212       -3.6889  -23.2901  -52.4817 H         1 UNK         0.0600 
    213 H213       -4.0866  -23.8427  -54.1017 H         1 UNK         0.0600 
    214 H214       -2.4466  -23.3366  -53.7294 H         1 UNK         0.0600 
    215 H215       -3.5413  -26.1381  -50.5835 H         1 UNK         0.3000 
    216 H216       -5.1266  -27.1926  -49.4685 H         1 UNK         0.0600 
    217 H217       -6.5695  -28.8839  -50.4815 H         1 UNK         0.0600 
    218 H218       -4.9360  -29.0399  -51.1074 H         1 UNK         0.0600 
    219 H219       -6.1999  -28.3150  -52.0995 H         1 UNK         0.0600 
    220 H220       -6.6662  -25.8254  -52.3845 H         1 UNK         0.3000 
    221 H221       -9.0901  -24.9699  -51.0208 H         1 UNK         0.0600 
    222 H222       -7.9466  -24.2679  -53.7812 H         1 UNK         0.0600 
    223 H223       -9.0743  -25.5785  -53.4332 H         1 UNK         0.0600 
    224 H224       -9.5794  -23.9081  -53.2314 H         1 UNK         0.0600 
    225 H225       -5.9617  -23.6238  -51.5230 H         1 UNK         0.3000 
    226 H226       -4.8398  -21.8736  -50.8830 H         1 UNK         0.0600 
    227 H227       -5.8347  -22.2359  -48.6511 H         1 UNK         0.0600 
    228 H228       -5.5856  -20.5203  -48.9286 H         1 UNK         0.0600 
    229 H229       -7.1985  -21.1961  -49.0519 H         1 UNK         0.0600 
    230 H230       -8.1460  -20.8826  -51.6493 H         1 UNK         0.3000 
    231 H231       -7.9070  -18.1746  -52.0496 H         1 UNK         0.0600 
    232 H232       -9.6590  -20.1799  -53.5629 H         1 UNK         0.0600 
    233 H233       -9.9283  -18.4409  -53.5145 H         1 UNK         0.0600 
    234 H234      -10.0500  -19.3865  -52.0383 H         1 UNK         0.0600 
    235 H235       -6.4609  -17.0944  -53.1864 H         1 UNK         0.3000 
    236 H236       -5.0768  -16.3203  -54.7181 H         1 UNK         0.0600 
    237 H237       -7.2209  -15.9654  -55.9713 H         1 UNK         0.0600 
    238 H238       -5.8612  -16.2028  -57.0544 H         1 UNK         0.0600 
    239 H239       -7.0005  -17.5149  -56.7832 H         1 UNK         0.0600 
    240 H240       -4.5729  -19.0563  -53.7098 H         1 UNK         0.3000 
    241 H241       -3.2279  -20.7667  -53.9060 H         1 UNK         0.0600 
    242 H242       -5.6471  -22.0735  -56.5859 H         1 UNK         0.3800 
    243 H243       -5.8651  -20.6774  -55.5616 H         1 UNK         0.3800 
    244 H244       -1.2266  -20.8188  -55.3442 H         1 UNK         0.0800 
    245 H245       -1.8285  -19.5076  -56.3134 H         1 UNK         0.0800 
    246 H246       -1.9935  -19.3604  -52.1439 H         1 UNK         0.0800 
    247 H247       -0.9856  -20.6494  -52.7615 H         1 UNK         0.0800 
@<TRIPOS>BOND
     1    1    2 1    
     2    1  127 1    
     3    1  128 1    
     4    1  129 1    
     5    2    3 2    
     6    2    4 am   BACKBONE|DICT|INTERRES
     7    4    5 1    
     8    4  130 1    
     9    5    6 1    
    10    5   65 1    
    11    5  131 1    
    12    6    7 1    
    13    6  132 1    
    14    6  133 1    
    15    7    8 1    
    16    8    9 1    
    17    8  134 1    
    18    8  135 1    
    19    9   10 ar   
    20    9   14 ar   
    21   10   11 ar   
    22   10  136 1    
    23   11   12 ar   
    24   11  126 1    
    25   12   13 ar   
    26   12  137 1    
    27   13   14 ar   
    28   13   15 1    
    29   14  138 1    
    30   15   16 1    
    31   15  139 1    
    32   15  140 1    
    33   16   17 1    
    34   17   18 1    
    35   17  141 1    
    36   17  142 1    
    37   18   19 1    
    38   18   67 1    
    39   18  143 1    
    40   19   20 am   BACKBONE|DICT|INTERRES
    41   19  144 1    
    42   20   21 2    
    43   20   22 1    
    44   22   23 1    
    45   22   24 1    
    46   22  145 1    
    47   23  146 1    
    48   23  147 1    
    49   23  148 1    
    50   24   25 am   BACKBONE|DICT|INTERRES
    51   24  149 1    
    52   25   26 2    
    53   25   27 1    
    54   27   28 1    
    55   27   29 1    
    56   27  150 1    
    57   28  151 1    
    58   28  152 1    
    59   28  153 1    
    60   29   30 am   BACKBONE|DICT|INTERRES
    61   29  154 1    
    62   30   31 2    
    63   30   32 1    
    64   32   33 1    
    65   32   34 1    
    66   32  155 1    
    67   33  156 1    
    68   33  157 1    
    69   33  158 1    
    70   34   35 am   BACKBONE|DICT|INTERRES
    71   34  159 1    
    72   35   36 2    
    73   35   37 1    
    74   37   38 1    
    75   37   39 1    
    76   37  160 1    
    77   38  161 1    
    78   38  162 1    
    79   38  163 1    
    80   39   40 am   BACKBONE|DICT|INTERRES
    81   39  164 1    
    82   40   41 2    
    83   40   42 1    
    84   42   43 1    
    85   42   44 1    
    86   42  165 1    
    87   43  166 1    
    88   43  167 1    
    89   43  168 1    
    90   44   45 am   BACKBONE|DICT|INTERRES
    91   44  169 1    
    92   45   46 2    
    93   45   47 1    
    94   47   48 1    
    95   47   49 1    
    96   47  170 1    
    97   48  171 1    
    98   48  172 1    
    99   48  173 1    
   100   49   50 am   BACKBONE|DICT|INTERRES
   101   49  174 1    
   102   50   51 2    
   103   50   52 1    
   104   52   53 1    
   105   52   54 1    
   106   52  175 1    
   107   53  176 1    
   108   53  177 1    
   109   53  178 1    
   110   54   55 am   BACKBONE|DICT|INTERRES
   111   54  179 1    
   112   55   56 2    
   113   55   57 1    
   114   57   58 1    
   115   57   59 1    
   116   57  180 1    
   117   58  181 1    
   118   58  182 1    
   119   58  183 1    
   120   59   60 am   BACKBONE|DICT|INTERRES
   121   59  184 1    
   122   60   61 2    
   123   60   62 1    
   124   62   63 1    
   125   62   64 1    
   126   62  185 1    
   127   63  186 1    
   128   63  187 1    
   129   63  188 1    
   130   64   65 am   BACKBONE|DICT|INTERRES
   131   64  189 1    
   132   65   66 2    
   133   67   68 2    
   134   67   69 am   BACKBONE|DICT|INTERRES
   135   69   70 1    
   136   69  190 1    
   137   70   71 1    
   138   70   72 1    
   139   70  191 1    
   140   71  192 1    
   141   71  193 1    
   142   71  194 1    
   143   72   73 2    
   144   72   74 am   BACKBONE|DICT|INTERRES
   145   74   75 1    
   146   74  195 1    
   147   75   76 1    
   148   75   77 1    
   149   75  196 1    
   150   76  197 1    
   151   76  198 1    
   152   76  199 1    
   153   77   78 2    
   154   77   79 am   BACKBONE|DICT|INTERRES
   155   79   80 1    
   156   79  200 1    
   157   80   81 1    
   158   80   82 1    
   159   80  201 1    
   160   81  202 1    
   161   81  203 1    
   162   81  204 1    
   163   82   83 2    
   164   82   84 am   BACKBONE|DICT|INTERRES
   165   84   85 1    
   166   84  205 1    
   167   85   86 1    
   168   85   87 1    
   169   85  206 1    
   170   86  207 1    
   171   86  208 1    
   172   86  209 1    
   173   87   88 2    
   174   87   89 am   BACKBONE|DICT|INTERRES
   175   89   90 1    
   176   89  210 1    
   177   90   91 1    
   178   90   92 1    
   179   90  211 1    
   180   91  212 1    
   181   91  213 1    
   182   91  214 1    
   183   92   93 2    
   184   92   94 am   BACKBONE|DICT|INTERRES
   185   94   95 1    
   186   94  215 1    
   187   95   96 1    
   188   95   97 1    
   189   95  216 1    
   190   96  217 1    
   191   96  218 1    
   192   96  219 1    
   193   97   98 2    
   194   97   99 am   BACKBONE|DICT|INTERRES
   195   99  100 1    
   196   99  220 1    
   197  100  101 1    
   198  100  102 1    
   199  100  221 1    
   200  101  222 1    
   201  101  223 1    
   202  101  224 1    
   203  102  103 2    
   204  102  104 am   BACKBONE|DICT|INTERRES
   205  104  105 1    
   206  104  225 1    
   207  105  106 1    
   208  105  107 1    
   209  105  226 1    
   210  106  227 1    
   211  106  228 1    
   212  106  229 1    
   213  107  108 2    
   214  107  109 am   BACKBONE|DICT|INTERRES
   215  109  110 1    
   216  109  230 1    
   217  110  111 1    
   218  110  112 1    
   219  110  231 1    
   220  111  232 1    
   221  111  233 1    
   222  111  234 1    
   223  112  113 2    
   224  112  114 am   BACKBONE|DICT|INTERRES
   225  114  115 1    
   226  114  235 1    
   227  115  116 1    
   228  115  117 1    
   229  115  236 1    
   230  116  237 1    
   231  116  238 1    
   232  116  239 1    
   233  117  118 2    
   234  117  119 am   BACKBONE|DICT|INTERRES
   235  119  120 1    
   236  119  240 1    
   237  120  121 1    
   238  120  124 1    
   239  120  241 1    
   240  121  122 am   BACKBONE|DICT|INTERRES
   241  121  123 2    
   242  122  242 1    
   243  122  243 1    
   244  124  125 1    
   245  124  244 1    
   246  124  245 1    
   247  125  126 1    
   248  126  246 1    
   249  126  247 1    
@<TRIPOS>SUBSTRUCTURE
     1 UNK         1 GROUP             0       ****    0 ROOT    
