@<TRIPOS>MOLECULE
3R540
247   249    1
SMALL
USER_CHARGES


@<TRIPOS>ATOM
      1 CA         -1.6159  -19.2817  -50.0430 C.3       0 UNK        -0.1800 
      2 C          -1.2063  -17.8196  -50.1461 C.2       0 UNK         0.5000 
      3 O          -0.7515  -17.3977  -51.2046 O.2       0 UNK        -0.5000 
      4 N          -1.3564  -17.0541  -49.0575 N.am      1 UNK        -0.5000 
      5 CA         -0.9053  -15.6609  -48.9409 C.3       1 UNK         0.1400 
      6 C6          0.3782  -15.5026  -48.0761 C.3       23 UNK        -0.0398 
      7 S7          1.7282  -16.6753  -48.4374 S.3       23 UNK        -0.2404 
      8 C8          2.3060  -16.1552  -50.0939 C.3       23 UNK        -0.0205 
      9 C9          2.4596  -17.3068  -51.0915 C.ar      23 UNK        -0.0193 
     10 C10         2.3027  -17.0583  -52.4602 C.ar      23 UNK        -0.1150 
     11 C11         2.4391  -18.0898  -53.3949 C.ar      23 UNK        -0.0193 
     12 C12         2.7471  -19.3789  -52.9523 C.ar      23 UNK        -0.1150 
     13 C13         2.8949  -19.6538  -51.5918 C.ar      23 UNK        -0.0193 
     14 C14         2.7609  -18.6088  -50.6725 C.ar      23 UNK        -0.1150 
     15 C15         3.1569  -21.0896  -51.1424 C.3       23 UNK        -0.0205 
     16 S16         4.4542  -21.2387  -49.8697 S.3       23 UNK        -0.2404 
     17 C17         3.4725  -21.1216  -48.3342 C.3       23 UNK        -0.0398 
     18 CA          3.4254  -22.4584  -47.5594 C.3       11 UNK         0.1400 
     19 N           3.0916  -22.2477  -46.1511 N.am      11 UNK        -0.5000 
     20 C           3.3170  -23.1356  -45.1731 C.2       10 UNK         0.5000 
     21 O           3.8181  -24.2457  -45.3536 O.2       10 UNK        -0.5000 
     22 CA          2.9195  -22.7062  -43.7517 C.3       10 UNK         0.1400 
     23 CB          3.9386  -21.7136  -43.1716 C.3       10 UNK        -0.1800 
     24 N           1.5810  -22.1196  -43.7294 N.am      10 UNK        -0.5000 
     25 C           0.4538  -22.8439  -43.7535 C.2       9 UNK         0.5000 
     26 O           0.4390  -24.0720  -43.6765 O.2       9 UNK        -0.5000 
     27 CA         -0.8827  -22.0843  -43.8601 C.3       9 UNK         0.1400 
     28 CB         -1.5442  -21.9801  -42.4773 C.3       9 UNK        -0.1800 
     29 N          -0.7585  -20.7420  -44.4317 N.am      9 UNK        -0.5000 
     30 C          -0.4651  -20.4868  -45.7141 C.2       8 UNK         0.5000 
     31 O          -0.2299  -21.3515  -46.5535 O.2       8 UNK        -0.5000 
     32 CA         -0.3683  -19.0084  -46.1191 C.3       8 UNK         0.1400 
     33 CB         -1.7566  -18.3476  -46.1016 C.3       8 UNK        -0.1800 
     34 N           0.5430  -18.2554  -45.2622 N.am      8 UNK        -0.5000 
     35 C           1.8389  -18.5386  -45.0647 C.2       7 UNK         0.5000 
     36 O           2.4251  -19.4924  -45.5776 O.2       7 UNK        -0.5000 
     37 CA          2.5904  -17.6238  -44.0860 C.3       7 UNK         0.1400 
     38 CB          3.0153  -16.3172  -44.7738 C.3       7 UNK        -0.1800 
     39 N           1.7700  -17.3242  -42.9128 N.am      7 UNK        -0.5000 
     40 C           1.5416  -18.1920  -41.9166 C.2       6 UNK         0.5000 
     41 O           2.0595  -19.3058  -41.8475 O.2       6 UNK        -0.5000 
     42 CA          0.5429  -17.7552  -40.8293 C.3       6 UNK         0.1400 
     43 CB          1.2464  -16.9150  -39.7530 C.3       6 UNK        -0.1800 
     44 N          -0.5901  -17.0020  -41.3677 N.am      6 UNK        -0.5000 
     45 C          -1.5232  -17.5146  -42.1816 C.2       5 UNK         0.5000 
     46 O          -1.5411  -18.6881  -42.5525 O.2       5 UNK        -0.5000 
     47 CA         -2.5945  -16.5401  -42.7016 C.3       5 UNK         0.1400 
     48 CB         -3.7700  -16.4556  -41.7177 C.3       5 UNK        -0.1800 
     49 N          -2.0989  -15.1899  -42.9768 N.am      5 UNK        -0.5000 
     50 C          -1.1106  -14.8682  -43.8222 C.2       4 UNK         0.5000 
     51 O          -0.4022  -15.6995  -44.3913 O.2       4 UNK        -0.5000 
     52 CA         -0.9230  -13.3630  -44.0975 C.3       4 UNK         0.1400 
     53 CB          0.3141  -13.0589  -44.9594 C.3       4 UNK        -0.1800 
     54 N          -2.1112  -12.8246  -44.7593 N.am      4 UNK        -0.5000 
     55 C          -3.2494  -12.4948  -44.1329 C.2       3 UNK         0.5000 
     56 O          -3.3740  -12.5034  -42.9070 O.2       3 UNK        -0.5000 
     57 CA         -4.4649  -12.1420  -45.0093 C.3       3 UNK         0.1400 
     58 CB         -4.5921  -10.6189  -45.1628 C.3       3 UNK        -0.1800 
     59 N          -4.4416  -12.7538  -46.3395 N.am      3 UNK        -0.5000 
     60 C          -4.4855  -14.0676  -46.6064 C.2       2 UNK         0.5000 
     61 O          -4.5156  -14.9437  -45.7415 O.2       2 UNK        -0.5000 
     62 CA         -4.5136  -14.4771  -48.0945 C.3       2 UNK         0.1400 
     63 CB         -4.8071  -13.2985  -49.0549 C.3       2 UNK        -0.1800 
     64 N          -3.2985  -15.1921  -48.5026 N.am      2 UNK        -0.5000 
     65 C          -2.0362  -14.7363  -48.4347 C.2       1 UNK         0.5000 
     66 O          -1.7465  -13.6224  -47.9939 O.2       1 UNK        -0.5000 
     67 C           2.4825  -23.4871  -48.2169 C.2       11 UNK         0.5000 
     68 O           2.9567  -24.4607  -48.8048 O.2       11 UNK        -0.5000 
     69 N           1.1678  -23.2795  -48.0729 N.am      12 UNK        -0.5000 
     70 CA          0.1304  -24.2199  -48.4774 C.3       12 UNK         0.1400 
     71 CB         -1.0754  -23.4426  -49.0354 C.3       12 UNK        -0.1800 
     72 C          -0.2147  -25.0669  -47.2438 C.2       12 UNK         0.5000 
     73 O          -1.1203  -24.7239  -46.4851 O.2       12 UNK        -0.5000 
     74 N           0.5677  -26.1340  -47.0372 N.am      13 UNK        -0.5000 
     75 CA          0.5567  -26.9784  -45.8383 C.3       13 UNK         0.1400 
     76 CB          1.7010  -27.9982  -45.9447 C.3       13 UNK        -0.1800 
     77 C          -0.7785  -27.6942  -45.5473 C.2       13 UNK         0.5000 
     78 O          -1.0296  -28.0498  -44.3949 O.2       13 UNK        -0.5000 
     79 N          -1.6030  -27.9040  -46.5833 N.am      14 UNK        -0.5000 
     80 CA         -2.9333  -28.5040  -46.4745 C.3       14 UNK         0.1400 
     81 CB         -3.4431  -28.8685  -47.8777 C.3       14 UNK        -0.1800 
     82 C          -3.9390  -27.5905  -45.7472 C.2       14 UNK         0.5000 
     83 O          -4.6737  -28.0682  -44.8818 O.2       14 UNK        -0.5000 
     84 N          -3.9362  -26.3010  -46.1047 N.am      15 UNK        -0.5000 
     85 CA         -4.7806  -25.2294  -45.5817 C.3       15 UNK         0.1400 
     86 CB         -6.2786  -25.5261  -45.8074 C.3       15 UNK        -0.1800 
     87 C          -4.4026  -23.9296  -46.3058 C.2       15 UNK         0.5000 
     88 O          -3.9868  -23.9808  -47.4662 O.2       15 UNK        -0.5000 
     89 N          -4.5918  -22.7909  -45.6261 N.am      16 UNK        -0.5000 
     90 CA         -4.4008  -21.4485  -46.1800 C.3       16 UNK         0.1400 
     91 CB         -4.5728  -20.4158  -45.0541 C.3       16 UNK        -0.1800 
     92 C          -5.3683  -21.1427  -47.3422 C.2       16 UNK         0.5000 
     93 O          -6.4793  -21.6784  -47.3816 O.2       16 UNK        -0.5000 
     94 N          -4.9343  -20.2642  -48.2494 N.am      17 UNK        -0.5000 
     95 CA         -5.6645  -19.8453  -49.4403 C.3       17 UNK         0.1400 
     96 CB         -5.3721  -20.8276  -50.5909 C.3       17 UNK        -0.1800 
     97 C          -5.2688  -18.4047  -49.7993 C.2       17 UNK         0.5000 
     98 O          -4.3973  -17.8197  -49.1472 O.2       17 UNK        -0.5000 
     99 N          -5.9291  -17.8556  -50.8250 N.am      18 UNK        -0.5000 
    100 CA        -5.6981  -16.5124  -51.3517 C.3       18 UNK         0.1400 
    101 CB        -6.8023  -16.1870  -52.3696 C.3       18 UNK        -0.1800 
    102 C         -4.3153  -16.3555  -52.0103 C.2       18 UNK         0.5000 
    103 O         -3.7761  -17.3213  -52.5540 O.2       18 UNK        -0.5000 
    104 N         -3.8109  -15.1153  -52.0252 N.am      19 UNK        -0.5000 
    105 CA        -2.5402  -14.7230  -52.6442 C.3       19 UNK         0.1400 
    106 CB        -2.2277  -13.2700  -52.2555 C.3       19 UNK        -0.1800 
    107 C         -2.5092  -14.8999  -54.1757 C.2       19 UNK         0.5000 
    108 O         -1.4290  -15.0260  -54.7499 O.2       19 UNK        -0.5000 
    109 N         -3.6913  -14.9132  -54.8058 N.am      20 UNK        -0.5000 
    110 CA        -3.8742  -15.2264  -56.2221 C.3       20 UNK         0.1400 
    111 CB        -5.1502  -14.5276  -56.7174 C.3       20 UNK        -0.1800 
    112 C         -3.9582  -16.7434  -56.4887 C.2       20 UNK         0.5000 
    113 O         -3.7535  -17.1599  -57.6296 O.2       20 UNK        -0.5000 
    114 N         -4.2800  -17.5381  -55.4572 N.am      21 UNK        -0.5000 
    115 CA        -4.4268  -18.9901  -55.5469 C.3       21 UNK         0.1400 
    116 CB        -5.4989  -19.4651  -54.5522 C.3       21 UNK        -0.1800 
    117 C         -3.0939  -19.7126  -55.2981 C.2       21 UNK         0.5000 
    118 O         -2.8156  -20.6985  -55.9814 O.2       21 UNK        -0.5000 
    119 N         -2.2992  -19.2142  -54.3383 N.am      22 UNK        -0.5000 
    120 CA        -0.9698  -19.7369  -53.9597 C.3       22 UNK         0.1400 
    121 C         -0.9827  -21.1533  -53.3018 C.2       22 UNK         0.5000 
    122 N         -2.1237  -21.6692  -52.8597 N.am      22 UNK        -0.7600 
    123 O          0.0585  -21.7876  -53.1563 O.2       22 UNK        -0.5000 
    124 C124        0.0712  -19.6098  -55.1119 C.3       23 UNK        -0.0398 
    125 S125        0.5264  -17.8687  -55.4215 S.3       23 UNK        -0.2404 
    126 C126        2.2695  -17.8150  -54.8839 C.3       23 UNK        -0.0205 
    127 H127       -2.0149  -19.5322  -49.0618 H         1 UNK         0.0600 
    128 H128       -0.7564  -19.9245  -50.2346 H         1 UNK         0.0600 
    129 H129       -2.3775  -19.4995  -50.7904 H         1 UNK         0.0600 
    130 H130       -1.7742  -17.4463  -48.2276 H         1 UNK         0.3000 
    131 H131       -0.6735  -15.2756  -49.9348 H         1 UNK         0.0600 
    132 H132        0.1328  -15.6370  -47.0221 H         1 UNK         0.0800 
    133 H133        0.7778  -14.4913  -48.1677 H         1 UNK         0.0800 
    134 H134        1.6185  -15.4139  -50.5018 H         1 UNK         0.0800 
    135 H135        3.2692  -15.6556  -49.9859 H         1 UNK         0.0800 
    136 H136        2.0625  -16.0611  -52.8009 H         1 UNK         0.1150 
    137 H137        2.8588  -20.1791  -53.6696 H         1 UNK         0.1150 
    138 H138        2.8886  -18.8105  -49.6220 H         1 UNK         0.1150 
    139 H139        2.2238  -21.5306  -50.7885 H         1 UNK         0.0800 
    140 H140        3.4671  -21.6944  -51.9958 H         1 UNK         0.0800 
    141 H141        3.9528  -20.3575  -47.7211 H         1 UNK         0.0800 
    142 H142        2.4658  -20.7490  -48.5313 H         1 UNK         0.0800 
    143 H143        4.4313  -22.8845  -47.5790 H         1 UNK         0.0600 
    144 H144        2.7015  -21.3395  -45.9115 H         1 UNK         0.3000 
    145 H145        2.9291  -23.5957  -43.1179 H         1 UNK         0.0600 
    146 H146        3.7116  -21.4835  -42.1307 H         1 UNK         0.0600 
    147 H147        4.9467  -22.1289  -43.1986 H         1 UNK         0.0600 
    148 H148        3.9554  -20.7748  -43.7252 H         1 UNK         0.0600 
    149 H149        1.5174  -21.1123  -43.7742 H         1 UNK         0.3000 
    150 H150       -1.5382  -22.6678  -44.5106 H         1 UNK         0.0600 
    151 H151       -1.6853  -22.9672  -42.0351 H         1 UNK         0.0600 
    152 H152       -2.5250  -21.5099  -42.5388 H         1 UNK         0.0600 
    153 H153       -0.9360  -21.3936  -41.7873 H         1 UNK         0.0600 
    154 H154       -0.9357  -19.9646  -43.7988 H         1 UNK         0.3000 
    155 H155        0.0274  -18.9607  -47.1356 H         1 UNK         0.0600 
    156 H156       -1.7000  -17.2782  -46.3018 H         1 UNK         0.0600 
    157 H157       -2.2412  -18.4691  -45.1354 H         1 UNK         0.0600 
    158 H158       -2.4156  -18.7945  -46.8447 H         1 UNK         0.0600 
    159 H159        0.1649  -17.4212  -44.8204 H         1 UNK         0.3000 
    160 H160        3.4937  -18.1444  -43.7606 H         1 UNK         0.0600 
    161 H161        2.1591  -15.7562  -45.1487 H         1 UNK         0.0600 
    162 H162        3.6651  -16.5223  -45.6256 H         1 UNK         0.0600 
    163 H163        3.5671  -15.6718  -44.0905 H         1 UNK         0.0600 
    164 H164        1.2495  -16.4586  -42.9339 H         1 UNK         0.3000 
    165 H165        0.1527  -18.6590  -40.3564 H         1 UNK         0.0600 
    166 H166        1.6364  -15.9813  -40.1603 H         1 UNK         0.0600 
    167 H167        0.5656  -16.6681  -38.9381 H         1 UNK         0.0600 
    168 H168        2.0859  -17.4604  -39.3197 H         1 UNK         0.0600 
    169 H169       -0.6522  -16.0253  -41.1211 H         1 UNK         0.3000 
    170 H170       -2.9778  -16.9364  -43.6423 H         1 UNK         0.0600 
    171 H171       -4.1796  -17.4456  -41.5119 H         1 UNK         0.0600 
    172 H172       -3.4676  -16.0191  -40.7650 H         1 UNK         0.0600 
    173 H173       -4.5795  -15.8484  -42.1238 H         1 UNK         0.0600 
    174 H174       -2.6422  -14.4247  -42.5932 H         1 UNK         0.3000 
    175 H175       -0.7842  -12.8671  -43.1346 H         1 UNK         0.0600 
    176 H176        0.2259  -13.4863  -45.9569 H         1 UNK         0.0600 
    177 H177        0.4588  -11.9843  -45.0711 H         1 UNK         0.0600 
    178 H178        1.2193  -13.4624  -44.5041 H         1 UNK         0.0600 
    179 H179       -2.1091  -12.8451  -45.7716 H         1 UNK         0.3000 
    180 H180       -5.3540  -12.5095  -44.4928 H         1 UNK         0.0600 
    181 H181       -5.4995  -10.3504  -45.7042 H         1 UNK         0.0600 
    182 H182       -4.6407  -10.1303  -44.1886 H         1 UNK         0.0600 
    183 H183       -3.7418  -10.1965  -45.6998 H         1 UNK         0.0600 
    184 H184       -4.3920  -12.1163  -47.1208 H         1 UNK         0.3000 
    185 H185       -5.3342  -15.1897  -48.1883 H         1 UNK         0.0600 
    186 H186       -5.7227  -12.7780  -48.7707 H         1 UNK         0.0600 
    187 H187       -3.9998  -12.5656  -49.0741 H         1 UNK         0.0600 
    188 H188       -4.9551  -13.6430  -50.0746 H         1 UNK         0.0600 
    189 H189       -3.4544  -16.1415  -48.8309 H         1 UNK         0.3000 
    190 H190        0.8363  -22.4992  -47.5079 H         1 UNK         0.3000 
    191 H191        0.4923  -24.8788  -49.2695 H         1 UNK         0.0600 
    192 H192       -1.8526  -24.1280  -49.3748 H         1 UNK         0.0600 
    193 H193       -0.7875  -22.8265  -49.8876 H         1 UNK         0.0600 
    194 H194       -1.5266  -22.7880  -48.2897 H         1 UNK         0.0600 
    195 H195        1.3102  -26.3141  -47.6986 H         1 UNK         0.3000 
    196 H196        0.7633  -26.3315  -44.9846 H         1 UNK         0.0600 
    197 H197        1.7485  -28.6285  -45.0556 H         1 UNK         0.0600 
    198 H198        2.6660  -27.4990  -46.0378 H         1 UNK         0.0600 
    199 H199        1.5754  -28.6545  -46.8067 H         1 UNK         0.0600 
    200 H200       -1.3139  -27.5859  -47.4961 H         1 UNK         0.3000 
    201 H201       -2.8437  -29.4273  -45.8979 H         1 UNK         0.0600 
    202 H202       -2.7776  -29.5803  -48.3664 H         1 UNK         0.0600 
    203 H203       -3.5257  -27.9903  -48.5193 H         1 UNK         0.0600 
    204 H204       -4.4299  -29.3306  -47.8256 H         1 UNK         0.0600 
    205 H205       -3.2676  -25.9791  -46.7951 H         1 UNK         0.3000 
    206 H206       -4.5787  -25.1169  -44.5149 H         1 UNK         0.0600 
    207 H207       -6.6212  -26.3723  -45.2130 H         1 UNK         0.0600 
    208 H208       -6.8945  -24.6720  -45.5224 H         1 UNK         0.0600 
    209 H209       -6.4885  -25.7437  -46.8553 H         1 UNK         0.0600 
    210 H210       -4.9798  -22.8374  -44.6958 H         1 UNK         0.3000 
    211 H211       -3.3784  -21.3878  -46.5597 H         1 UNK         0.0600 
    212 H212       -5.5438  -20.5115  -44.5668 H         1 UNK         0.0600 
    213 H213       -4.5036  -19.3967  -45.4360 H         1 UNK         0.0600 
    214 H214       -3.8014  -20.5277  -44.2931 H         1 UNK         0.0600 
    215 H215       -4.0619  -19.7750  -48.1109 H         1 UNK         0.3000 
    216 H216       -6.7359  -19.8435  -49.2292 H         1 UNK         0.0600 
    217 H217       -5.9313  -20.5694  -51.4903 H         1 UNK         0.0600 
    218 H218       -5.6566  -21.8447  -50.3205 H         1 UNK         0.0600 
    219 H219       -4.3140  -20.8398  -50.8507 H         1 UNK         0.0600 
    220 H220       -6.6147  -18.4110  -51.3141 H         1 UNK         0.3000 
    221 H221       -5.7741  -15.8124  -50.5196 H         1 UNK         0.0600 
    222 H222       -6.7768  -16.8652  -53.2237 H         1 UNK         0.0600 
    223 H223       -7.7907  -16.2587  -51.9153 H         1 UNK         0.0600 
    224 H224       -6.6994  -15.1715  -52.7539 H         1 UNK         0.0600 
    225 H225       -4.3337  -14.3701  -51.5907 H         1 UNK         0.3000 
    226 H226       -1.7543  -15.3557  -52.2354 H         1 UNK         0.0600 
    227 H227       -2.9893  -12.5820  -52.6244 H         1 UNK         0.0600 
    228 H228       -2.1653  -13.1541  -51.1733 H         1 UNK         0.0600 
    229 H229       -1.2698  -12.9528  -52.6699 H         1 UNK         0.0600 
    230 H230       -4.5273  -14.7618  -54.2622 H         1 UNK         0.3000 
    231 H231       -3.0290  -14.8351  -56.7924 H         1 UNK         0.0600 
    232 H232       -5.3096  -14.7125  -57.7806 H         1 UNK         0.0600 
    233 H233       -5.0857  -13.4476  -56.5833 H         1 UNK         0.0600 
    234 H234       -6.0355  -14.8805  -56.1866 H         1 UNK         0.0600 
    235 H235       -4.3380  -17.1417  -54.5284 H         1 UNK         0.3000 
    236 H236       -4.7692  -19.2570  -56.5492 H         1 UNK         0.0600 
    237 H237       -5.2187  -19.2602  -53.5197 H         1 UNK         0.0600 
    238 H238       -6.4558  -18.9795  -54.7432 H         1 UNK         0.0600 
    239 H239       -5.6584  -20.5406  -54.6384 H         1 UNK         0.0600 
    240 H240       -2.6358  -18.4316  -53.7859 H         1 UNK         0.3000 
    241 H241       -0.6269  -19.0921  -53.1518 H         1 UNK         0.0600 
    242 H242       -2.9886  -21.1703  -52.9798 H         1 UNK         0.3800 
    243 H243       -2.1193  -22.5822  -52.4350 H         1 UNK         0.3800 
    244 H244        0.9767  -20.1752  -54.9019 H         1 UNK         0.0800 
    245 H245       -0.3121  -20.0373  -56.0379 H         1 UNK         0.0800 
    246 H246        2.6760  -16.8303  -55.1190 H         1 UNK         0.0800 
    247 H247        2.8503  -18.5277  -55.4714 H         1 UNK         0.0800 
@<TRIPOS>BOND
     1    1    2 1    
     2    1  127 1    
     3    1  128 1    
     4    1  129 1    
     5    2    3 2    
     6    2    4 am   BACKBONE|DICT|INTERRES
     7    4    5 1    
     8    4  130 1    
     9    5    6 1    
    10    5   65 1    
    11    5  131 1    
    12    6    7 1    
    13    6  132 1    
    14    6  133 1    
    15    7    8 1    
    16    8    9 1    
    17    8  134 1    
    18    8  135 1    
    19    9   10 ar   
    20    9   14 ar   
    21   10   11 ar   
    22   10  136 1    
    23   11   12 ar   
    24   11  126 1    
    25   12   13 ar   
    26   12  137 1    
    27   13   14 ar   
    28   13   15 1    
    29   14  138 1    
    30   15   16 1    
    31   15  139 1    
    32   15  140 1    
    33   16   17 1    
    34   17   18 1    
    35   17  141 1    
    36   17  142 1    
    37   18   19 1    
    38   18   67 1    
    39   18  143 1    
    40   19   20 am   BACKBONE|DICT|INTERRES
    41   19  144 1    
    42   20   21 2    
    43   20   22 1    
    44   22   23 1    
    45   22   24 1    
    46   22  145 1    
    47   23  146 1    
    48   23  147 1    
    49   23  148 1    
    50   24   25 am   BACKBONE|DICT|INTERRES
    51   24  149 1    
    52   25   26 2    
    53   25   27 1    
    54   27   28 1    
    55   27   29 1    
    56   27  150 1    
    57   28  151 1    
    58   28  152 1    
    59   28  153 1    
    60   29   30 am   BACKBONE|DICT|INTERRES
    61   29  154 1    
    62   30   31 2    
    63   30   32 1    
    64   32   33 1    
    65   32   34 1    
    66   32  155 1    
    67   33  156 1    
    68   33  157 1    
    69   33  158 1    
    70   34   35 am   BACKBONE|DICT|INTERRES
    71   34  159 1    
    72   35   36 2    
    73   35   37 1    
    74   37   38 1    
    75   37   39 1    
    76   37  160 1    
    77   38  161 1    
    78   38  162 1    
    79   38  163 1    
    80   39   40 am   BACKBONE|DICT|INTERRES
    81   39  164 1    
    82   40   41 2    
    83   40   42 1    
    84   42   43 1    
    85   42   44 1    
    86   42  165 1    
    87   43  166 1    
    88   43  167 1    
    89   43  168 1    
    90   44   45 am   BACKBONE|DICT|INTERRES
    91   44  169 1    
    92   45   46 2    
    93   45   47 1    
    94   47   48 1    
    95   47   49 1    
    96   47  170 1    
    97   48  171 1    
    98   48  172 1    
    99   48  173 1    
   100   49   50 am   BACKBONE|DICT|INTERRES
   101   49  174 1    
   102   50   51 2    
   103   50   52 1    
   104   52   53 1    
   105   52   54 1    
   106   52  175 1    
   107   53  176 1    
   108   53  177 1    
   109   53  178 1    
   110   54   55 am   BACKBONE|DICT|INTERRES
   111   54  179 1    
   112   55   56 2    
   113   55   57 1    
   114   57   58 1    
   115   57   59 1    
   116   57  180 1    
   117   58  181 1    
   118   58  182 1    
   119   58  183 1    
   120   59   60 am   BACKBONE|DICT|INTERRES
   121   59  184 1    
   122   60   61 2    
   123   60   62 1    
   124   62   63 1    
   125   62   64 1    
   126   62  185 1    
   127   63  186 1    
   128   63  187 1    
   129   63  188 1    
   130   64   65 am   BACKBONE|DICT|INTERRES
   131   64  189 1    
   132   65   66 2    
   133   67   68 2    
   134   67   69 am   BACKBONE|DICT|INTERRES
   135   69   70 1    
   136   69  190 1    
   137   70   71 1    
   138   70   72 1    
   139   70  191 1    
   140   71  192 1    
   141   71  193 1    
   142   71  194 1    
   143   72   73 2    
   144   72   74 am   BACKBONE|DICT|INTERRES
   145   74   75 1    
   146   74  195 1    
   147   75   76 1    
   148   75   77 1    
   149   75  196 1    
   150   76  197 1    
   151   76  198 1    
   152   76  199 1    
   153   77   78 2    
   154   77   79 am   BACKBONE|DICT|INTERRES
   155   79   80 1    
   156   79  200 1    
   157   80   81 1    
   158   80   82 1    
   159   80  201 1    
   160   81  202 1    
   161   81  203 1    
   162   81  204 1    
   163   82   83 2    
   164   82   84 am   BACKBONE|DICT|INTERRES
   165   84   85 1    
   166   84  205 1    
   167   85   86 1    
   168   85   87 1    
   169   85  206 1    
   170   86  207 1    
   171   86  208 1    
   172   86  209 1    
   173   87   88 2    
   174   87   89 am   BACKBONE|DICT|INTERRES
   175   89   90 1    
   176   89  210 1    
   177   90   91 1    
   178   90   92 1    
   179   90  211 1    
   180   91  212 1    
   181   91  213 1    
   182   91  214 1    
   183   92   93 2    
   184   92   94 am   BACKBONE|DICT|INTERRES
   185   94   95 1    
   186   94  215 1    
   187   95   96 1    
   188   95   97 1    
   189   95  216 1    
   190   96  217 1    
   191   96  218 1    
   192   96  219 1    
   193   97   98 2    
   194   97   99 am   BACKBONE|DICT|INTERRES
   195   99  100 1    
   196   99  220 1    
   197  100  101 1    
   198  100  102 1    
   199  100  221 1    
   200  101  222 1    
   201  101  223 1    
   202  101  224 1    
   203  102  103 2    
   204  102  104 am   BACKBONE|DICT|INTERRES
   205  104  105 1    
   206  104  225 1    
   207  105  106 1    
   208  105  107 1    
   209  105  226 1    
   210  106  227 1    
   211  106  228 1    
   212  106  229 1    
   213  107  108 2    
   214  107  109 am   BACKBONE|DICT|INTERRES
   215  109  110 1    
   216  109  230 1    
   217  110  111 1    
   218  110  112 1    
   219  110  231 1    
   220  111  232 1    
   221  111  233 1    
   222  111  234 1    
   223  112  113 2    
   224  112  114 am   BACKBONE|DICT|INTERRES
   225  114  115 1    
   226  114  235 1    
   227  115  116 1    
   228  115  117 1    
   229  115  236 1    
   230  116  237 1    
   231  116  238 1    
   232  116  239 1    
   233  117  118 2    
   234  117  119 am   BACKBONE|DICT|INTERRES
   235  119  120 1    
   236  119  240 1    
   237  120  121 1    
   238  120  124 1    
   239  120  241 1    
   240  121  122 am   BACKBONE|DICT|INTERRES
   241  121  123 2    
   242  122  242 1    
   243  122  243 1    
   244  124  125 1    
   245  124  244 1    
   246  124  245 1    
   247  125  126 1    
   248  126  246 1    
   249  126  247 1    
@<TRIPOS>SUBSTRUCTURE
     1 UNK         1 GROUP             0       ****    0 ROOT    
