@<TRIPOS>MOLECULE
3R540
247   249    1
SMALL
USER_CHARGES


@<TRIPOS>ATOM
      1 CA         -4.8724  -12.2880  -48.9702 C.3       0 UNK        -0.1800 
      2 C          -3.7071  -13.2558  -48.8271 C.2       0 UNK         0.5000 
      3 O          -3.7203  -14.1029  -47.9345 O.2       0 UNK        -0.5000 
      4 N          -2.6862  -13.1206  -49.6873 N.am      1 UNK        -0.5000 
      5 CA         -1.4933  -13.9826  -49.7593 C.3       1 UNK         0.1400 
      6 C6         -1.8593  -15.4313  -50.1884 C.3       23 UNK        -0.0398 
      7 S7         -0.5434  -16.2655  -51.1381 S.3       23 UNK        -0.2404 
      8 C8         -0.3008  -17.7502  -50.1184 C.3       23 UNK        -0.0205 
      9 C9          0.8350  -18.6096  -50.6445 C.ar      23 UNK        -0.0193 
     10 C10         0.6376  -19.4184  -51.7655 C.ar      23 UNK        -0.1150 
     11 C11         1.6847  -20.1841  -52.2844 C.ar      23 UNK        -0.0193 
     12 C12         2.9273  -20.1671  -51.6463 C.ar      23 UNK        -0.1150 
     13 C13         3.1296  -19.3842  -50.5059 C.ar      23 UNK        -0.0193 
     14 C14         2.0819  -18.5993  -50.0140 C.ar      23 UNK        -0.1150 
     15 C15         4.4875  -19.3764  -49.8220 C.3       23 UNK        -0.0205 
     16 S16         4.7737  -20.8909  -48.8525 S.3       23 UNK        -0.2404 
     17 C17         3.6568  -20.6439  -47.4320 C.3       23 UNK        -0.0398 
     18 CA          2.7395  -21.8615  -47.1583 C.3       11 UNK         0.1400 
     19 N           2.3232  -21.9023  -45.7512 N.am      11 UNK        -0.5000 
     20 C           1.6824  -22.9210  -45.1600 C.2       10 UNK         0.5000 
     21 O           1.3995  -23.9752  -45.7291 O.2       10 UNK        -0.5000 
     22 CA          1.2348  -22.7042  -43.7024 C.3       10 UNK         0.1400 
     23 CB          2.3996  -22.9287  -42.7267 C.3       10 UNK        -0.1800 
     24 N           0.6608  -21.3747  -43.4921 N.am      10 UNK        -0.5000 
     25 C          -0.4794  -20.9484  -44.0550 C.2       9 UNK         0.5000 
     26 O          -1.2060  -21.6618  -44.7439 O.2       9 UNK        -0.5000 
     27 CA         -0.8486  -19.4673  -43.8523 C.3       9 UNK         0.1400 
     28 CB         -1.5476  -19.2678  -42.5005 C.3       9 UNK        -0.1800 
     29 N           0.3105  -18.5776  -43.9463 N.am      9 UNK        -0.5000 
     30 C           1.0675  -18.4274  -45.0431 C.2       8 UNK         0.5000 
     31 O           0.8382  -18.9855  -46.1130 O.2       8 UNK        -0.5000 
     32 CA          2.3283  -17.5595  -44.9114 C.3       8 UNK         0.1400 
     33 CB          1.9891  -16.0749  -45.0637 C.3       8 UNK        -0.1800 
     34 N           3.0103  -17.7785  -43.6382 N.am      8 UNK        -0.5000 
     35 C           3.6593  -18.9056  -43.3180 C.2       7 UNK         0.5000 
     36 O           3.7798  -19.8649  -44.0799 O.2       7 UNK        -0.5000 
     37 CA          4.2245  -18.9863  -41.8891 C.3       7 UNK         0.1400 
     38 CB          5.5713  -18.2542  -41.7940 C.3       7 UNK        -0.1800 
     39 N           3.2995  -18.4387  -40.8946 N.am      7 UNK        -0.5000 
     40 C           2.1165  -18.9884  -40.5867 C.2       6 UNK         0.5000 
     41 O           1.6962  -20.0289  -41.0919 O.2       6 UNK        -0.5000 
     42 CA          1.2404  -18.2299  -39.5729 C.3       6 UNK         0.1400 
     43 CB          1.6119  -18.6274  -38.1367 C.3       6 UNK        -0.1800 
     44 N           1.3074  -16.7712  -39.7067 N.am      6 UNK        -0.5000 
     45 C           0.9106  -16.0875  -40.7877 C.2       5 UNK         0.5000 
     46 O           0.5231  -16.6202  -41.8302 O.2       5 UNK        -0.5000 
     47 CA          0.9929  -14.5550  -40.7042 C.3       5 UNK         0.1400 
     48 CB          2.2298  -14.0405  -41.4563 C.3       5 UNK        -0.1800 
     49 N          -0.2062  -13.9621  -41.2896 N.am      5 UNK        -0.5000 
     50 C          -1.3751  -13.8192  -40.6458 C.2       4 UNK         0.5000 
     51 O          -1.5243  -14.0492  -39.4449 O.2       4 UNK        -0.5000 
     52 CA         -2.5885  -13.3612  -41.4836 C.3       4 UNK         0.1400 
     53 CB         -2.7196  -11.8310  -41.4563 C.3       4 UNK        -0.1800 
     54 N          -2.4874  -13.8073  -42.8719 N.am      4 UNK        -0.5000 
     55 C          -2.5976  -15.0819  -43.2658 C.2       3 UNK         0.5000 
     56 O          -3.0746  -15.9624  -42.5499 O.2       3 UNK        -0.5000 
     57 CA         -2.0610  -15.4485  -44.6686 C.3       3 UNK         0.1400 
     58 CB         -3.0680  -16.2995  -45.4604 C.3       3 UNK        -0.1800 
     59 N          -1.6262  -14.3227  -45.5074 N.am      3 UNK        -0.5000 
     60 C          -0.5644  -13.5293  -45.2899 C.2       2 UNK         0.5000 
     61 O           0.0665  -13.5316  -44.2324 O.2       2 UNK        -0.5000 
     62 CA         -0.1551  -12.5429  -46.4074 C.3       2 UNK         0.1400 
     63 CB          1.3773  -12.4134  -46.5309 C.3       2 UNK        -0.1800 
     64 N          -0.7627  -12.8218  -47.7149 N.am      2 UNK        -0.5000 
     65 C          -0.6189  -13.9181  -48.4788 C.2       1 UNK         0.5000 
     66 O           0.1340  -14.8485  -48.1934 O.2       1 UNK        -0.5000 
     67 C           1.5349  -21.9240  -48.1284 C.2       11 UNK         0.5000 
     68 O           1.6022  -22.6175  -49.1436 O.2       11 UNK        -0.5000 
     69 N           0.4336  -21.2542  -47.7590 N.am      12 UNK        -0.5000 
     70 CA         -0.8490  -21.2600  -48.4642 C.3       12 UNK         0.1400 
     71 CB         -1.7273  -20.1256  -47.9122 C.3       12 UNK        -0.1800 
     72 C          -1.6066  -22.6041  -48.3915 C.2       12 UNK         0.5000 
     73 O          -2.5708  -22.7792  -49.1368 O.2       12 UNK        -0.5000 
     74 N          -1.1721  -23.5185  -47.5131 N.am      13 UNK        -0.5000 
     75 CA         -1.7315  -24.8484  -47.2590 C.3       13 UNK         0.1400 
     76 CB         -1.6754  -25.7189  -48.5355 C.3       13 UNK        -0.1800 
     77 C          -3.1356  -24.8063  -46.6153 C.2       13 UNK         0.5000 
     78 O          -3.5637  -23.7654  -46.1088 O.2       13 UNK        -0.5000 
     79 N          -3.8135  -25.9634  -46.6012 N.am      14 UNK        -0.5000 
     80 CA         -5.1374  -26.1745  -46.0112 C.3       14 UNK         0.1400 
     81 CB         -5.5556  -27.6378  -46.2203 C.3       14 UNK        -0.1800 
     82 C          -6.1937  -25.2186  -46.5929 C.2       14 UNK         0.5000 
     83 O          -6.3278  -25.1329  -47.8150 O.2       14 UNK        -0.5000 
     84 N          -6.8802  -24.4855  -45.7043 N.am      15 UNK        -0.5000 
     85 CA         -7.8818  -23.4480  -45.9938 C.3       15 UNK         0.1400 
     86 CB         -9.1465  -24.0825  -46.6100 C.3       15 UNK        -0.1800 
     87 C          -7.3490  -22.2680  -46.8419 C.2       15 UNK         0.5000 
     88 O          -8.1458  -21.5404  -47.4363 O.2       15 UNK        -0.5000 
     89 N          -6.0163  -22.1113  -46.8962 N.am      16 UNK        -0.5000 
     90 CA         -5.2592  -21.1893  -47.7463 C.3       16 UNK         0.1400 
     91 CB         -5.4922  -19.7232  -47.3244 C.3       16 UNK        -0.1800 
     92 C          -5.4753  -21.4278  -49.2590 C.2       16 UNK         0.5000 
     93 O          -5.3521  -20.4914  -50.0495 O.2       16 UNK        -0.5000 
     94 N          -5.7937  -22.6741  -49.6430 N.am      17 UNK        -0.5000 
     95 CA         -6.1834  -23.0684  -50.9985 C.3       17 UNK         0.1400 
     96 CB         -6.5986  -24.5466  -50.9943 C.3       17 UNK        -0.1800 
     97 C          -5.1269  -22.8151  -52.0904 C.2       17 UNK         0.5000 
     98 O          -5.5044  -22.5944  -53.2422 O.2       17 UNK        -0.5000 
     99 N          -3.8341  -22.8240  -51.7328 N.am      18 UNK        -0.5000 
    100 CA        -2.7363  -22.5856  -52.6726 C.3       18 UNK         0.1400 
    101 CB        -1.4129  -23.0976  -52.0853 C.3       18 UNK        -0.1800 
    102 C         -2.6200  -21.1122  -53.1077 C.2       18 UNK         0.5000 
    103 O         -1.9680  -20.8415  -54.1159 O.2       18 UNK        -0.5000 
    104 N         -3.2821  -20.1813  -52.4013 N.am      19 UNK        -0.5000 
    105 CA        -3.3716  -18.7674  -52.7845 C.3       19 UNK         0.1400 
    106 CB        -4.1440  -17.9890  -51.7106 C.3       19 UNK        -0.1800 
    107 C         -4.0162  -18.5550  -54.1693 C.2       19 UNK         0.5000 
    108 O         -3.6377  -17.6235  -54.8781 O.2       19 UNK        -0.5000 
    109 N         -4.9339  -19.4531  -54.5552 N.am      20 UNK        -0.5000 
    110 CA        -5.5541  -19.4870  -55.8796 C.3       20 UNK         0.1400 
    111 CB        -6.7914  -20.3959  -55.8249 C.3       20 UNK        -0.1800 
    112 C         -4.5929  -19.9511  -56.9938 C.2       20 UNK         0.5000 
    113 O         -4.8235  -19.6190  -58.1572 O.2       20 UNK        -0.5000 
    114 N         -3.5467  -20.7076  -56.6322 N.am      21 UNK        -0.5000 
    115 CA        -2.5221  -21.1969  -57.5521 C.3       21 UNK         0.1400 
    116 CB        -1.9989  -22.5606  -57.0702 C.3       21 UNK        -0.1800 
    117 C         -1.3767  -20.1821  -57.6945 C.2       21 UNK         0.5000 
    118 O         -0.9953  -19.8582  -58.8203 O.2       21 UNK        -0.5000 
    119 N         -0.8535  -19.6965  -56.5603 N.am      22 UNK        -0.5000 
    120 CA         0.2298  -18.6990  -56.5201 C.3       22 UNK         0.1400 
    121 C         -0.2208  -17.2469  -56.8518 C.2       22 UNK         0.5000 
    122 N         -1.4829  -16.8746  -56.6825 N.am      22 UNK        -0.7600 
    123 O          0.5958  -16.4397  -57.2871 O.2       22 UNK        -0.5000 
    124 C124        1.0119  -18.7398  -55.1837 C.3       23 UNK        -0.0398 
    125 S125        2.0815  -20.2158  -55.0408 S.3       23 UNK        -0.2404 
    126 C126        1.4742  -21.0313  -53.5303 C.3       23 UNK        -0.0205 
    127 H127       -4.7188  -11.5859  -49.7899 H         1 UNK         0.0600 
    128 H128       -5.7937  -12.8382  -49.1613 H         1 UNK         0.0600 
    129 H129       -5.0000  -11.7164  -48.0510 H         1 UNK         0.0600 
    130 H130       -2.7301  -12.3903  -50.3853 H         1 UNK         0.3000 
    131 H131       -0.8817  -13.5439  -50.5492 H         1 UNK         0.0600 
    132 H132       -2.1616  -16.0311  -49.3278 H         1 UNK         0.0800 
    133 H133       -2.7297  -15.4071  -50.8441 H         1 UNK         0.0800 
    134 H134       -1.2236  -18.3307  -50.1129 H         1 UNK         0.0800 
    135 H135       -0.1041  -17.4534  -49.0867 H         1 UNK         0.0800 
    136 H136       -0.3281  -19.4324  -52.2472 H         1 UNK         0.1150 
    137 H137        3.7387  -20.7651  -52.0369 H         1 UNK         0.1150 
    138 H138        2.2344  -17.9794  -49.1415 H         1 UNK         0.1150 
    139 H139        4.5953  -18.5026  -49.1773 H         1 UNK         0.0800 
    140 H140        5.2683  -19.2920  -50.5793 H         1 UNK         0.0800 
    141 H141        3.0736  -19.7296  -47.5461 H         1 UNK         0.0800 
    142 H142        4.3073  -20.4702  -46.5745 H         1 UNK         0.0800 
    143 H143        3.3267  -22.7678  -47.3219 H         1 UNK         0.0600 
    144 H144        2.5512  -21.0879  -45.1910 H         1 UNK         0.3000 
    145 H145        0.4612  -23.4420  -43.4792 H         1 UNK         0.0600 
    146 H146        2.0670  -22.8452  -41.6919 H         1 UNK         0.0600 
    147 H147        2.8273  -23.9241  -42.8521 H         1 UNK         0.0600 
    148 H148        3.2009  -22.2055  -42.8779 H         1 UNK         0.0600 
    149 H149        1.1670  -20.7489  -42.8734 H         1 UNK         0.3000 
    150 H150       -1.5460  -19.1828  -44.6429 H         1 UNK         0.0600 
    151 H151       -0.9211  -19.5912  -41.6699 H         1 UNK         0.0600 
    152 H152       -2.4747  -19.8401  -42.4542 H         1 UNK         0.0600 
    153 H153       -1.8009  -18.2219  -42.3362 H         1 UNK         0.0600 
    154 H154        0.5362  -18.0336  -43.1177 H         1 UNK         0.3000 
    155 H155        3.0101  -17.8348  -45.7189 H         1 UNK         0.0600 
    156 H156        1.3385  -15.7417  -44.2574 H         1 UNK         0.0600 
    157 H157        1.4723  -15.8858  -46.0053 H         1 UNK         0.0600 
    158 H158        2.8858  -15.4557  -45.0515 H         1 UNK         0.0600 
    159 H159        2.9097  -17.0594  -42.9380 H         1 UNK         0.3000 
    160 H160        4.3912  -20.0403  -41.6563 H         1 UNK         0.0600 
    161 H161        5.4668  -17.1864  -41.9904 H         1 UNK         0.0600 
    162 H162        6.2835  -18.6532  -42.5177 H         1 UNK         0.0600 
    163 H163        6.0145  -18.3720  -40.8050 H         1 UNK         0.0600 
    164 H164        3.5709  -17.5833  -40.4328 H         1 UNK         0.3000 
    165 H165        0.2050  -18.5287  -39.7485 H         1 UNK         0.0600 
    166 H166        0.9340  -18.1734  -37.4136 H         1 UNK         0.0600 
    167 H167        2.6279  -18.3222  -37.8832 H         1 UNK         0.0600 
    168 H168        1.5506  -19.7083  -38.0025 H         1 UNK         0.0600 
    169 H169        1.6246  -16.2616  -38.8946 H         1 UNK         0.3000 
    170 H170        1.0743  -14.2517  -39.6583 H         1 UNK         0.0600 
    171 H171        3.1457  -14.4615  -41.0399 H         1 UNK         0.0600 
    172 H172        2.1985  -14.3013  -42.5144 H         1 UNK         0.0600 
    173 H173        2.3087  -12.9556  -41.3851 H         1 UNK         0.0600 
    174 H174       -0.1733  -13.8003  -42.2919 H         1 UNK         0.3000 
    175 H175       -3.4884  -13.7931  -41.0406 H         1 UNK         0.0600 
    176 H176       -1.8483  -11.3440  -41.8963 H         1 UNK         0.0600 
    177 H177       -3.6021  -11.5009  -42.0046 H         1 UNK         0.0600 
    178 H178       -2.8179  -11.4666  -40.4328 H         1 UNK         0.0600 
    179 H179       -2.0615  -13.1623  -43.5213 H         1 UNK         0.3000 
    180 H180       -1.1806  -16.0693  -44.4923 H         1 UNK         0.0600 
    181 H181       -3.9830  -15.7440  -45.6685 H         1 UNK         0.0600 
    182 H182       -3.3463  -17.1994  -44.9105 H         1 UNK         0.0600 
    183 H183       -2.6475  -16.6232  -46.4131 H         1 UNK         0.0600 
    184 H184       -2.1289  -14.2134  -46.3803 H         1 UNK         0.3000 
    185 H185       -0.5413  -11.5707  -46.0988 H         1 UNK         0.0600 
    186 H186        1.6518  -11.7016  -47.3093 H         1 UNK         0.0600 
    187 H187        1.8178  -12.0577  -45.5988 H         1 UNK         0.0600 
    188 H188        1.8478  -13.3679  -46.7675 H         1 UNK         0.0600 
    189 H189       -1.4175  -12.1252  -48.0418 H         1 UNK         0.3000 
    190 H190        0.4914  -20.6465  -46.9461 H         1 UNK         0.3000 
    191 H191       -0.6441  -21.0475  -49.5141 H         1 UNK         0.0600 
    192 H192       -2.5830  -19.9501  -48.5643 H         1 UNK         0.0600 
    193 H193       -1.1801  -19.1877  -47.8391 H         1 UNK         0.0600 
    194 H194       -2.1076  -20.3577  -46.9175 H         1 UNK         0.0600 
    195 H195       -0.3988  -23.2589  -46.9147 H         1 UNK         0.3000 
    196 H196       -1.0720  -25.3028  -46.5186 H         1 UNK         0.0600 
    197 H197       -2.4328  -25.4241  -49.2630 H         1 UNK         0.0600 
    198 H198       -0.7019  -25.6424  -49.0204 H         1 UNK         0.0600 
    199 H199       -1.8328  -26.7731  -48.3069 H         1 UNK         0.0600 
    200 H200       -3.4011  -26.7644  -47.0554 H         1 UNK         0.3000 
    201 H201       -5.0484  -25.9946  -44.9380 H         1 UNK         0.0600 
    202 H202       -5.6220  -27.8893  -47.2797 H         1 UNK         0.0600 
    203 H203       -6.5326  -27.8317  -45.7755 H         1 UNK         0.0600 
    204 H204       -4.8463  -28.3229  -45.7556 H         1 UNK         0.0600 
    205 H205       -6.6714  -24.6128  -44.7235 H         1 UNK         0.3000 
    206 H206       -8.1632  -23.0202  -45.0306 H         1 UNK         0.0600 
    207 H207       -9.5123  -24.9073  -45.9986 H         1 UNK         0.0600 
    208 H208       -9.9551  -23.3546  -46.6853 H         1 UNK         0.0600 
    209 H209       -8.9586  -24.4660  -47.6135 H         1 UNK         0.0600 
    210 H210       -5.4404  -22.7737  -46.3875 H         1 UNK         0.3000 
    211 H211       -4.2148  -21.4211  -47.5506 H         1 UNK         0.0600 
    212 H212       -4.8240  -19.0488  -47.8611 H         1 UNK         0.0600 
    213 H213       -5.3019  -19.5846  -46.2602 H         1 UNK         0.0600 
    214 H214       -6.5127  -19.3997  -47.5297 H         1 UNK         0.0600 
    215 H215       -5.8591  -23.3972  -48.9347 H         1 UNK         0.3000 
    216 H216       -7.0602  -22.4743  -51.2633 H         1 UNK         0.0600 
    217 H217       -5.7801  -25.1910  -50.6706 H         1 UNK         0.0600 
    218 H218       -6.9031  -24.8739  -51.9893 H         1 UNK         0.0600 
    219 H219       -7.4432  -24.7163  -50.3261 H         1 UNK         0.0600 
    220 H220       -3.5801  -22.9508  -50.7553 H         1 UNK         0.3000 
    221 H221       -2.9389  -23.1707  -53.5723 H         1 UNK         0.0600 
    222 H222       -1.5328  -24.0739  -51.6151 H         1 UNK         0.0600 
    223 H223       -1.0050  -22.4133  -51.3433 H         1 UNK         0.0600 
    224 H224       -0.6630  -23.2092  -52.8682 H         1 UNK         0.0600 
    225 H225       -3.8317  -20.4695  -51.5992 H         1 UNK         0.3000 
    226 H226       -2.3572  -18.3676  -52.8316 H         1 UNK         0.0600 
    227 H227       -5.1724  -18.3406  -51.6224 H         1 UNK         0.0600 
    228 H228       -3.6716  -18.0832  -50.7328 H         1 UNK         0.0600 
    229 H229       -4.1856  -16.9274  -51.9553 H         1 UNK         0.0600 
    230 H230       -5.1737  -20.2055  -53.9235 H         1 UNK         0.3000 
    231 H231       -5.8845  -18.4764  -56.1292 H         1 UNK         0.0600 
    232 H232       -6.5237  -21.4244  -55.5791 H         1 UNK         0.0600 
    233 H233       -7.3075  -20.4119  -56.7857 H         1 UNK         0.0600 
    234 H234       -7.5055  -20.0474  -55.0787 H         1 UNK         0.0600 
    235 H235       -3.3842  -20.8806  -55.6487 H         1 UNK         0.3000 
    236 H236       -2.9637  -21.3470  -58.5397 H         1 UNK         0.0600 
    237 H237       -2.8087  -23.2856  -56.9878 H         1 UNK         0.0600 
    238 H238       -1.2707  -22.9655  -57.7739 H         1 UNK         0.0600 
    239 H239       -1.5090  -22.4954  -56.0988 H         1 UNK         0.0600 
    240 H240       -1.2088  -20.0292  -55.6685 H         1 UNK         0.3000 
    241 H241        0.9391  -18.9602  -57.3084 H         1 UNK         0.0600 
    242 H242       -1.7453  -15.9301  -56.9142 H         1 UNK         0.3800 
    243 H243       -2.1671  -17.4765  -56.2397 H         1 UNK         0.3800 
    244 H244        0.3146  -18.6786  -54.3498 H         1 UNK         0.0800 
    245 H245        1.6697  -17.8739  -55.0877 H         1 UNK         0.0800 
    246 H246        1.9924  -21.9838  -53.4117 H         1 UNK         0.0800 
    247 H247        0.4241  -21.2772  -53.6569 H         1 UNK         0.0800 
@<TRIPOS>BOND
     1    1    2 1    
     2    1  127 1    
     3    1  128 1    
     4    1  129 1    
     5    2    3 2    
     6    2    4 am   BACKBONE|DICT|INTERRES
     7    4    5 1    
     8    4  130 1    
     9    5    6 1    
    10    5   65 1    
    11    5  131 1    
    12    6    7 1    
    13    6  132 1    
    14    6  133 1    
    15    7    8 1    
    16    8    9 1    
    17    8  134 1    
    18    8  135 1    
    19    9   10 ar   
    20    9   14 ar   
    21   10   11 ar   
    22   10  136 1    
    23   11   12 ar   
    24   11  126 1    
    25   12   13 ar   
    26   12  137 1    
    27   13   14 ar   
    28   13   15 1    
    29   14  138 1    
    30   15   16 1    
    31   15  139 1    
    32   15  140 1    
    33   16   17 1    
    34   17   18 1    
    35   17  141 1    
    36   17  142 1    
    37   18   19 1    
    38   18   67 1    
    39   18  143 1    
    40   19   20 am   BACKBONE|DICT|INTERRES
    41   19  144 1    
    42   20   21 2    
    43   20   22 1    
    44   22   23 1    
    45   22   24 1    
    46   22  145 1    
    47   23  146 1    
    48   23  147 1    
    49   23  148 1    
    50   24   25 am   BACKBONE|DICT|INTERRES
    51   24  149 1    
    52   25   26 2    
    53   25   27 1    
    54   27   28 1    
    55   27   29 1    
    56   27  150 1    
    57   28  151 1    
    58   28  152 1    
    59   28  153 1    
    60   29   30 am   BACKBONE|DICT|INTERRES
    61   29  154 1    
    62   30   31 2    
    63   30   32 1    
    64   32   33 1    
    65   32   34 1    
    66   32  155 1    
    67   33  156 1    
    68   33  157 1    
    69   33  158 1    
    70   34   35 am   BACKBONE|DICT|INTERRES
    71   34  159 1    
    72   35   36 2    
    73   35   37 1    
    74   37   38 1    
    75   37   39 1    
    76   37  160 1    
    77   38  161 1    
    78   38  162 1    
    79   38  163 1    
    80   39   40 am   BACKBONE|DICT|INTERRES
    81   39  164 1    
    82   40   41 2    
    83   40   42 1    
    84   42   43 1    
    85   42   44 1    
    86   42  165 1    
    87   43  166 1    
    88   43  167 1    
    89   43  168 1    
    90   44   45 am   BACKBONE|DICT|INTERRES
    91   44  169 1    
    92   45   46 2    
    93   45   47 1    
    94   47   48 1    
    95   47   49 1    
    96   47  170 1    
    97   48  171 1    
    98   48  172 1    
    99   48  173 1    
   100   49   50 am   BACKBONE|DICT|INTERRES
   101   49  174 1    
   102   50   51 2    
   103   50   52 1    
   104   52   53 1    
   105   52   54 1    
   106   52  175 1    
   107   53  176 1    
   108   53  177 1    
   109   53  178 1    
   110   54   55 am   BACKBONE|DICT|INTERRES
   111   54  179 1    
   112   55   56 2    
   113   55   57 1    
   114   57   58 1    
   115   57   59 1    
   116   57  180 1    
   117   58  181 1    
   118   58  182 1    
   119   58  183 1    
   120   59   60 am   BACKBONE|DICT|INTERRES
   121   59  184 1    
   122   60   61 2    
   123   60   62 1    
   124   62   63 1    
   125   62   64 1    
   126   62  185 1    
   127   63  186 1    
   128   63  187 1    
   129   63  188 1    
   130   64   65 am   BACKBONE|DICT|INTERRES
   131   64  189 1    
   132   65   66 2    
   133   67   68 2    
   134   67   69 am   BACKBONE|DICT|INTERRES
   135   69   70 1    
   136   69  190 1    
   137   70   71 1    
   138   70   72 1    
   139   70  191 1    
   140   71  192 1    
   141   71  193 1    
   142   71  194 1    
   143   72   73 2    
   144   72   74 am   BACKBONE|DICT|INTERRES
   145   74   75 1    
   146   74  195 1    
   147   75   76 1    
   148   75   77 1    
   149   75  196 1    
   150   76  197 1    
   151   76  198 1    
   152   76  199 1    
   153   77   78 2    
   154   77   79 am   BACKBONE|DICT|INTERRES
   155   79   80 1    
   156   79  200 1    
   157   80   81 1    
   158   80   82 1    
   159   80  201 1    
   160   81  202 1    
   161   81  203 1    
   162   81  204 1    
   163   82   83 2    
   164   82   84 am   BACKBONE|DICT|INTERRES
   165   84   85 1    
   166   84  205 1    
   167   85   86 1    
   168   85   87 1    
   169   85  206 1    
   170   86  207 1    
   171   86  208 1    
   172   86  209 1    
   173   87   88 2    
   174   87   89 am   BACKBONE|DICT|INTERRES
   175   89   90 1    
   176   89  210 1    
   177   90   91 1    
   178   90   92 1    
   179   90  211 1    
   180   91  212 1    
   181   91  213 1    
   182   91  214 1    
   183   92   93 2    
   184   92   94 am   BACKBONE|DICT|INTERRES
   185   94   95 1    
   186   94  215 1    
   187   95   96 1    
   188   95   97 1    
   189   95  216 1    
   190   96  217 1    
   191   96  218 1    
   192   96  219 1    
   193   97   98 2    
   194   97   99 am   BACKBONE|DICT|INTERRES
   195   99  100 1    
   196   99  220 1    
   197  100  101 1    
   198  100  102 1    
   199  100  221 1    
   200  101  222 1    
   201  101  223 1    
   202  101  224 1    
   203  102  103 2    
   204  102  104 am   BACKBONE|DICT|INTERRES
   205  104  105 1    
   206  104  225 1    
   207  105  106 1    
   208  105  107 1    
   209  105  226 1    
   210  106  227 1    
   211  106  228 1    
   212  106  229 1    
   213  107  108 2    
   214  107  109 am   BACKBONE|DICT|INTERRES
   215  109  110 1    
   216  109  230 1    
   217  110  111 1    
   218  110  112 1    
   219  110  231 1    
   220  111  232 1    
   221  111  233 1    
   222  111  234 1    
   223  112  113 2    
   224  112  114 am   BACKBONE|DICT|INTERRES
   225  114  115 1    
   226  114  235 1    
   227  115  116 1    
   228  115  117 1    
   229  115  236 1    
   230  116  237 1    
   231  116  238 1    
   232  116  239 1    
   233  117  118 2    
   234  117  119 am   BACKBONE|DICT|INTERRES
   235  119  120 1    
   236  119  240 1    
   237  120  121 1    
   238  120  124 1    
   239  120  241 1    
   240  121  122 am   BACKBONE|DICT|INTERRES
   241  121  123 2    
   242  122  242 1    
   243  122  243 1    
   244  124  125 1    
   245  124  244 1    
   246  124  245 1    
   247  125  126 1    
   248  126  246 1    
   249  126  247 1    
@<TRIPOS>SUBSTRUCTURE
     1 UNK         1 GROUP             0       ****    0 ROOT    
