@<TRIPOS>MOLECULE
3R540
247   249    1
SMALL
USER_CHARGES


@<TRIPOS>ATOM
      1 CA          5.3208  -11.0619  -48.3569 C.3       0 UNK        -0.1800 
      2 C           4.4963  -12.3232  -48.1461 C.2       0 UNK         0.5000 
      3 O           4.9885  -13.2858  -47.5584 O.2       0 UNK        -0.5000 
      4 N           3.2378  -12.3176  -48.6058 N.am      1 UNK        -0.5000 
      5 CA          2.3033  -13.4508  -48.5204 C.3       1 UNK         0.1400 
      6 C6          1.0981  -13.3044  -49.4878 C.3       23 UNK        -0.0398 
      7 S7          1.4974  -12.8145  -51.2066 S.3       23 UNK        -0.2404 
      8 C8          2.5655  -14.1586  -51.8256 C.3       23 UNK        -0.0205 
      9 C9          1.9807  -15.5453  -51.5980 C.ar      23 UNK        -0.0193 
     10 C10         0.7984  -15.9429  -52.2335 C.ar      23 UNK        -0.1150 
     11 C11         0.2442  -17.2021  -51.9748 C.ar      23 UNK        -0.0193 
     12 C12         0.8890  -18.0665  -51.0878 C.ar      23 UNK        -0.1150 
     13 C13         2.0734  -17.6818  -50.4576 C.ar      23 UNK        -0.0193 
     14 C14         2.6225  -16.4282  -50.7270 C.ar      23 UNK        -0.1150 
     15 C15         2.7268  -18.5930  -49.4356 C.3       23 UNK        -0.0205 
     16 S16         2.4279  -18.0073  -47.7367 S.3       23 UNK        -0.2404 
     17 C17         0.6007  -17.9056  -47.6573 C.3       23 UNK        -0.0398 
     18 CA         -0.0632  -19.2972  -47.5781 C.3       11 UNK         0.1400 
     19 N           0.2631  -19.9837  -46.3290 N.am      11 UNK        -0.5000 
     20 C           0.1220  -21.2955  -46.1160 C.2       10 UNK         0.5000 
     21 O          -0.3038  -22.0789  -46.9635 O.2       10 UNK        -0.5000 
     22 CA          0.4861  -21.8094  -44.7107 C.3       10 UNK         0.1400 
     23 CB          2.0043  -21.9968  -44.5720 C.3       10 UNK        -0.1800 
     24 N           0.0015  -20.9300  -43.6446 N.am      10 UNK        -0.5000 
     25 C          -1.2942  -20.7142  -43.3773 C.2       9 UNK         0.5000 
     26 O          -2.2159  -21.2540  -43.9909 O.2       9 UNK        -0.5000 
     27 CA         -1.6149  -19.6948  -42.2673 C.3       9 UNK         0.1400 
     28 CB         -1.4012  -20.3107  -40.8766 C.3       9 UNK        -0.1800 
     29 N          -0.8323  -18.4637  -42.3834 N.am      9 UNK        -0.5000 
     30 C          -0.9067  -17.6139  -43.4180 C.2       8 UNK         0.5000 
     31 O          -1.6759  -17.7564  -44.3657 O.2       8 UNK        -0.5000 
     32 CA          0.0793  -16.4334  -43.4256 C.3       8 UNK         0.1400 
     33 CB         -0.4257  -15.3049  -42.5135 C.3       8 UNK        -0.1800 
     34 N           1.4336  -16.8190  -43.0288 N.am      8 UNK        -0.5000 
     35 C           2.1746  -17.7617  -43.6283 C.2       7 UNK         0.5000 
     36 O           1.7920  -18.4247  -44.5868 O.2       7 UNK        -0.5000 
     37 CA          3.5425  -18.0737  -43.0042 C.3       7 UNK         0.1400 
     38 CB          4.5752  -16.9876  -43.3455 C.3       7 UNK        -0.1800 
     39 N           3.4383  -18.2390  -41.5560 N.am      7 UNK        -0.5000 
     40 C           2.7840  -19.2455  -40.9572 C.2       6 UNK         0.5000 
     41 O           2.2511  -20.1766  -41.5627 O.2       6 UNK        -0.5000 
     42 CA          2.6730  -19.1705  -39.4239 C.3       6 UNK         0.1400 
     43 CB          3.9314  -19.7482  -38.7592 C.3       6 UNK        -0.1800 
     44 N           2.4560  -17.8024  -38.9486 N.am      6 UNK        -0.5000 
     45 C           1.3350  -17.0992  -39.1632 C.2       5 UNK         0.5000 
     46 O           0.3518  -17.5440  -39.7565 O.2       5 UNK        -0.5000 
     47 CA          1.3361  -15.6384  -38.6721 C.3       5 UNK         0.1400 
     48 CB          0.9825  -15.5682  -37.1790 C.3       5 UNK        -0.1800 
     49 N           2.6086  -14.9449  -38.9073 N.am      5 UNK        -0.5000 
     50 C           3.1226  -14.7139  -40.1217 C.2       4 UNK         0.5000 
     51 O           2.5922  -15.0969  -41.1671 O.2       4 UNK        -0.5000 
     52 CA          4.4591  -13.9638  -40.1932 C.3       4 UNK         0.1400 
     53 CB          5.6345  -14.8934  -39.8448 C.3       4 UNK        -0.1800 
     54 N           4.6079  -13.4729  -41.5574 N.am      4 UNK        -0.5000 
     55 C           5.3030  -12.4053  -41.9578 C.2       3 UNK         0.5000 
     56 O           5.9960  -11.7199  -41.2048 O.2       3 UNK        -0.5000 
     57 CA          5.2047  -12.0331  -43.4538 C.3       3 UNK         0.1400 
     58 CB          6.4562  -12.5099  -44.2070 C.3       3 UNK        -0.1800 
     59 N           4.0170  -12.5656  -44.1340 N.am      3 UNK        -0.5000 
     60 C           2.7528  -12.1928  -43.8859 C.2       2 UNK         0.5000 
     61 O           2.4458  -11.3433  -43.0487 O.2       2 UNK        -0.5000 
     62 CA          1.6705  -12.8670  -44.7455 C.3       2 UNK         0.1400 
     63 CB          0.2651  -12.2646  -44.5535 C.3       2 UNK        -0.1800 
     64 N           2.0515  -12.7902  -46.1525 N.am      2 UNK        -0.5000 
     65 C           1.7946  -13.7187  -47.0819 C.2       1 UNK         0.5000 
     66 O           1.1643  -14.7482  -46.8461 O.2       1 UNK        -0.5000 
     67 C          -1.5834  -19.2247  -47.8308 C.2       11 UNK         0.5000 
     68 O          -1.9997  -19.2963  -48.9865 O.2       11 UNK        -0.5000 
     69 N          -2.3968  -19.1428  -46.7677 N.am      12 UNK        -0.5000 
     70 CA         -3.8532  -19.2726  -46.8438 C.3       12 UNK         0.1400 
     71 CB         -4.4955  -18.8537  -45.5135 C.3       12 UNK        -0.1800 
     72 C          -4.2798  -20.6984  -47.2334 C.2       12 UNK         0.5000 
     73 O          -5.1595  -20.8560  -48.0800 O.2       12 UNK        -0.5000 
     74 N          -3.6144  -21.7099  -46.6567 N.am      13 UNK        -0.5000 
     75 CA         -3.8141  -23.1276  -46.9720 C.3       13 UNK         0.1400 
     76 CB         -3.0932  -23.9900  -45.9252 C.3       13 UNK        -0.1800 
     77 C          -3.3777  -23.5142  -48.4011 C.2       13 UNK         0.5000 
     78 O          -3.8956  -24.4893  -48.9441 O.2       13 UNK        -0.5000 
     79 N          -2.4643  -22.7367  -49.0004 N.am      14 UNK        -0.5000 
     80 CA         -2.0601  -22.8565  -50.4037 C.3       14 UNK         0.1400 
     81 CB         -0.7620  -22.0661  -50.6326 C.3       14 UNK        -0.1800 
     82 C          -3.1574  -22.3969  -51.3856 C.2       14 UNK         0.5000 
     83 O          -3.1322  -22.8047  -52.5473 O.2       14 UNK        -0.5000 
     84 N          -4.1024  -21.5730  -50.9128 N.am      15 UNK        -0.5000 
     85 CA         -5.3004  -21.1876  -51.6494 C.3       15 UNK         0.1400 
     86 CB         -5.6279  -19.7084  -51.3792 C.3       15 UNK        -0.1800 
     87 C          -6.4635  -22.1080  -51.2568 C.2       15 UNK         0.5000 
     88 O          -6.9831  -22.8301  -52.1073 O.2       15 UNK        -0.5000 
     89 N          -6.8725  -22.0557  -49.9792 N.am      16 UNK        -0.5000 
     90 CA         -7.9357  -22.8413  -49.3270 C.3       16 UNK         0.1400 
     91 CB         -7.4750  -24.3050  -49.1755 C.3       16 UNK        -0.1800 
     92 C          -9.3364  -22.7692  -49.9849 C.2       16 UNK         0.5000 
     93 O         -10.2281  -23.5207  -49.5885 O.2       16 UNK        -0.5000 
     94 N          -9.4922  -21.9055  -50.9997 N.am      17 UNK        -0.5000 
     95 CA        -10.5752  -21.8605  -51.9866 C.3       17 UNK         0.1400 
     96 CB        -11.8981  -21.4164  -51.3279 C.3       17 UNK        -0.1800 
     97 C         -10.7166  -23.1716  -52.7997 C.2       17 UNK         0.5000 
     98 O         -11.8108  -23.4591  -53.2898 O.2       17 UNK        -0.5000 
     99 N          -9.6284  -23.9504  -52.9280 N.am      18 UNK        -0.5000 
    100 CA        -9.6472  -25.2892  -53.5283 C.3       18 UNK         0.1400 
    101 CB       -10.3743  -26.2764  -52.5904 C.3       18 UNK        -0.1800 
    102 C         -8.2606  -25.8567  -53.8875 C.2       18 UNK         0.5000 
    103 O         -8.1991  -26.7558  -54.7284 O.2       18 UNK        -0.5000 
    104 N         -7.1805  -25.3849  -53.2497 N.am      19 UNK        -0.5000 
    105 CA        -5.8255  -25.8950  -53.4623 C.3       19 UNK         0.1400 
    106 CB        -4.9772  -25.6350  -52.2099 C.3       19 UNK        -0.1800 
    107 C         -5.1906  -25.2732  -54.7179 C.2       19 UNK         0.5000 
    108 O         -5.3924  -24.0901  -54.9965 O.2       19 UNK        -0.5000 
    109 N         -4.4380  -26.0912  -55.4619 N.am      20 UNK        -0.5000 
    110 CA        -3.9278  -25.7697  -56.7969 C.3       20 UNK         0.1400 
    111 CB        -3.4781  -27.0752  -57.4731 C.3       20 UNK        -0.1800 
    112 C         -2.7920  -24.7285  -56.8366 C.2       20 UNK         0.5000 
    113 O         -2.5188  -24.1950  -57.9129 O.2       20 UNK        -0.5000 
    114 N         -2.1301  -24.4766  -55.6981 N.am      21 UNK        -0.5000 
    115 CA        -0.9898  -23.5630  -55.6021 C.3       21 UNK         0.1400 
    116 CB        -0.2473  -23.7845  -54.2755 C.3       21 UNK        -0.1800 
    117 C         -1.3785  -22.0867  -55.8094 C.2       21 UNK         0.5000 
    118 O         -0.7347  -21.4079  -56.6115 O.2       21 UNK        -0.5000 
    119 N         -2.4281  -21.6309  -55.1145 N.am      22 UNK        -0.5000 
    120 CA        -2.9705  -20.2642  -55.2177 C.3       22 UNK         0.1400 
    121 C         -4.4809  -20.2115  -55.5867 C.2       22 UNK         0.5000 
    122 N         -5.2166  -21.3132  -55.6505 N.am      22 UNK        -0.7600 
    123 O         -5.0047  -19.1313  -55.8449 O.2       22 UNK        -0.5000 
    124 C124       -2.6921  -19.4298  -53.9409 C.3       23 UNK        -0.0398 
    125 S125       -0.9265  -19.0840  -53.6552 S.3       23 UNK        -0.2404 
    126 C126       -1.0832  -17.6143  -52.5915 C.3       23 UNK        -0.0205 
    127 H127        5.6305  -10.6517  -47.3956 H         1 UNK         0.0600 
    128 H128        6.2156  -11.2917  -48.9350 H         1 UNK         0.0600 
    129 H129        4.7590  -10.2945  -48.8900 H         1 UNK         0.0600 
    130 H130        2.8883  -11.5029  -49.0909 H         1 UNK         0.3000 
    131 H131        2.8558  -14.3443  -48.8127 H         1 UNK         0.0600 
    132 H132        0.5319  -14.2371  -49.5244 H         1 UNK         0.0800 
    133 H133        0.4035  -12.5542  -49.1053 H         1 UNK         0.0800 
    134 H134        2.7293  -14.0137  -52.8942 H         1 UNK         0.0800 
    135 H135        3.5456  -14.0690  -51.3543 H         1 UNK         0.0800 
    136 H136        0.2971  -15.2581  -52.9031 H         1 UNK         0.1150 
    137 H137        0.4486  -19.0286  -50.8682 H         1 UNK         0.1150 
    138 H138        3.5338  -16.1313  -50.2271 H         1 UNK         0.1150 
    139 H139        2.3693  -19.6180  -49.5412 H         1 UNK         0.0800 
    140 H140        3.8025  -18.6273  -49.6139 H         1 UNK         0.0800 
    141 H141        0.2347  -17.3317  -48.5090 H         1 UNK         0.0800 
    142 H142        0.3340  -17.3183  -46.7772 H         1 UNK         0.0800 
    143 H143        0.3387  -19.9035  -48.3915 H         1 UNK         0.0600 
    144 H144        0.6931  -19.4118  -45.6027 H         1 UNK         0.3000 
    145 H145        0.0117  -22.7844  -44.5818 H         1 UNK         0.0600 
    146 H146        2.2612  -22.4243  -43.6026 H         1 UNK         0.0600 
    147 H147        2.3858  -22.6724  -45.3385 H         1 UNK         0.0600 
    148 H148        2.5390  -21.0517  -44.6712 H         1 UNK         0.0600 
    149 H149        0.7044  -20.4469  -43.0968 H         1 UNK         0.3000 
    150 H150       -2.6695  -19.4273  -42.3600 H         1 UNK         0.0600 
    151 H151       -1.9879  -21.2225  -40.7584 H         1 UNK         0.0600 
    152 H152       -1.7083  -19.6213  -40.0899 H         1 UNK         0.0600 
    153 H153       -0.3555  -20.5672  -40.7045 H         1 UNK         0.0600 
    154 H154       -0.2003  -18.2479  -41.6196 H         1 UNK         0.3000 
    155 H155        0.1367  -16.0507  -44.4468 H         1 UNK         0.0600 
    156 H156        0.2692  -14.4670  -42.4918 H         1 UNK         0.0600 
    157 H157       -0.5601  -15.6457  -41.4870 H         1 UNK         0.0600 
    158 H158       -1.3867  -14.9246  -42.8616 H         1 UNK         0.0600 
    159 H159        1.8358  -16.3060  -42.2469 H         1 UNK         0.3000 
    160 H160        3.8954  -19.0171  -43.4268 H         1 UNK         0.0600 
    161 H161        4.2841  -16.0102  -42.9648 H         1 UNK         0.0600 
    162 H162        4.6922  -16.8930  -44.4259 H         1 UNK         0.0600 
    163 H163        5.5544  -17.2302  -42.9328 H         1 UNK         0.0600 
    164 H164        3.8058  -17.4949  -40.9838 H         1 UNK         0.3000 
    165 H165        1.8169  -19.7777  -39.1218 H         1 UNK         0.0600 
    166 H166        4.8217  -19.1678  -39.0049 H         1 UNK         0.0600 
    167 H167        3.8308  -19.7658  -37.6738 H         1 UNK         0.0600 
    168 H168        4.1079  -20.7742  -39.0849 H         1 UNK         0.0600 
    169 H169        3.2157  -17.3620  -38.4512 H         1 UNK         0.3000 
    170 H170        0.5610  -15.1068  -39.2281 H         1 UNK         0.0600 
    171 H171        0.0310  -16.0632  -36.9797 H         1 UNK         0.0600 
    172 H172        1.7400  -16.0516  -36.5609 H         1 UNK         0.0600 
    173 H173        0.8854  -14.5350  -36.8451 H         1 UNK         0.0600 
    174 H174        3.0992  -14.6091  -38.0909 H         1 UNK         0.3000 
    175 H175        4.4252  -13.1217  -39.4991 H         1 UNK         0.0600 
    176 H176        5.5426  -15.2828  -38.8304 H         1 UNK         0.0600 
    177 H177        6.5855  -14.3635  -39.9018 H         1 UNK         0.0600 
    178 H178        5.6879  -15.7461  -40.5229 H         1 UNK         0.0600 
    179 H179        4.0090  -13.9439  -42.2227 H         1 UNK         0.3000 
    180 H180        5.1651  -10.9436  -43.5140 H         1 UNK         0.0600 
    181 H181        6.5358  -13.5978  -44.2047 H         1 UNK         0.0600 
    182 H182        7.3639  -12.1128  -43.7507 H         1 UNK         0.0600 
    183 H183        6.4437  -12.1767  -45.2450 H         1 UNK         0.0600 
    184 H184        4.1857  -13.2486  -44.8600 H         1 UNK         0.3000 
    185 H185        1.6449  -13.9126  -44.4325 H         1 UNK         0.0600 
    186 H186       -0.4822  -12.8247  -45.1158 H         1 UNK         0.0600 
    187 H187       -0.0364  -12.2860  -43.5059 H         1 UNK         0.0600 
    188 H188        0.2265  -11.2266  -44.8854 H         1 UNK         0.0600 
    189 H189        2.5838  -11.9755  -46.4249 H         1 UNK         0.3000 
    190 H190       -1.9999  -18.9930  -45.8448 H         1 UNK         0.3000 
    191 H191       -4.2151  -18.5946  -47.6197 H         1 UNK         0.0600 
    192 H192       -4.2771  -17.8109  -45.2835 H         1 UNK         0.0600 
    193 H193       -5.5806  -18.9561  -45.5541 H         1 UNK         0.0600 
    194 H194       -4.1387  -19.4612  -44.6817 H         1 UNK         0.0600 
    195 H195       -2.9300  -21.4976  -45.9383 H         1 UNK         0.3000 
    196 H196       -4.8838  -23.3334  -46.8965 H         1 UNK         0.0600 
    197 H197       -3.2700  -25.0510  -46.1052 H         1 UNK         0.0600 
    198 H198       -3.4480  -23.7671  -44.9188 H         1 UNK         0.0600 
    199 H199       -2.0155  -23.8303  -45.9422 H         1 UNK         0.0600 
    200 H200       -2.0261  -22.0048  -48.4565 H         1 UNK         0.3000 
    201 H201       -1.8560  -23.9094  -50.6088 H         1 UNK         0.0600 
    202 H202        0.0115  -22.3542  -49.9204 H         1 UNK         0.0600 
    203 H203       -0.9221  -20.9934  -50.5425 H         1 UNK         0.0600 
    204 H204       -0.3668  -22.2434  -51.6325 H         1 UNK         0.0600 
    205 H205       -4.0654  -21.3031  -49.9381 H         1 UNK         0.3000 
    206 H206       -5.1399  -21.3011  -52.7230 H         1 UNK         0.0600 
    207 H207       -4.8166  -19.0581  -51.7048 H         1 UNK         0.0600 
    208 H208       -6.5232  -19.4036  -51.9222 H         1 UNK         0.0600 
    209 H209       -5.8000  -19.5073  -50.3218 H         1 UNK         0.0600 
    210 H210       -6.3526  -21.4508  -49.3457 H         1 UNK         0.3000 
    211 H211       -8.0510  -22.4222  -48.3266 H         1 UNK         0.0600 
    212 H212       -7.3407  -24.7900  -50.1427 H         1 UNK         0.0600 
    213 H213       -8.1985  -24.8946  -48.6115 H         1 UNK         0.0600 
    214 H214       -6.5304  -24.3642  -48.6374 H         1 UNK         0.0600 
    215 H215       -8.6839  -21.3473  -51.2323 H         1 UNK         0.3000 
    216 H216      -10.2937  -21.0922  -52.7079 H         1 UNK         0.0600 
    217 H217      -11.7659  -20.4961  -50.7591 H         1 UNK         0.0600 
    218 H218      -12.2895  -22.1762  -50.6511 H         1 UNK         0.0600 
    219 H219      -12.6645  -21.2236  -52.0793 H         1 UNK         0.0600 
    220 H220       -8.7433  -23.6128  -52.5648 H         1 UNK         0.3000 
    221 H221      -10.2029  -25.2304  -54.4666 H         1 UNK         0.0600 
    222 H222       -9.9044  -26.3073  -51.6065 H         1 UNK         0.0600 
    223 H223      -11.4209  -26.0066  -52.4513 H         1 UNK         0.0600 
    224 H224      -10.3602  -27.2898  -52.9938 H         1 UNK         0.0600 
    225 H225       -7.2413  -24.5531  -52.6714 H         1 UNK         0.3000 
    226 H226       -5.8756  -26.9772  -53.6019 H         1 UNK         0.0600 
    227 H227       -5.3609  -26.1882  -51.3527 H         1 UNK         0.0600 
    228 H228       -3.9414  -25.9417  -52.3596 H         1 UNK         0.0600 
    229 H229       -4.9718  -24.5815  -51.9422 H         1 UNK         0.0600 
    230 H230       -4.2991  -27.0422  -55.1521 H         1 UNK         0.3000 
    231 H231       -4.7548  -25.3575  -57.3792 H         1 UNK         0.0600 
    232 H232       -3.1269  -26.8910  -58.4894 H         1 UNK         0.0600 
    233 H233       -4.2998  -27.7884  -57.5416 H         1 UNK         0.0600 
    234 H234       -2.6633  -27.5509  -56.9259 H         1 UNK         0.0600 
    235 H235       -2.4302  -24.9343  -54.8504 H         1 UNK         0.3000 
    236 H236       -0.2933  -23.8210  -56.4031 H         1 UNK         0.0600 
    237 H237        0.5489  -23.0508  -54.1424 H         1 UNK         0.0600 
    238 H238       -0.9136  -23.7076  -53.4194 H         1 UNK         0.0600 
    239 H239        0.2131  -24.7720  -54.2466 H         1 UNK         0.0600 
    240 H240       -2.8610  -22.2335  -54.4207 H         1 UNK         0.3000 
    241 H241       -2.4847  -19.7480  -56.0475 H         1 UNK         0.0600 
    242 H242       -4.8658  -22.2371  -55.4223 H         1 UNK         0.3800 
    243 H243       -6.1861  -21.2251  -55.9071 H         1 UNK         0.3800 
    244 H244       -3.2126  -18.4715  -53.9906 H         1 UNK         0.0800 
    245 H245       -3.0795  -19.9417  -53.0624 H         1 UNK         0.0800 
    246 H246       -1.7880  -17.8274  -51.7856 H         1 UNK         0.0800 
    247 H247       -1.5103  -16.7955  -53.1725 H         1 UNK         0.0800 
@<TRIPOS>BOND
     1    1    2 1    
     2    1  127 1    
     3    1  128 1    
     4    1  129 1    
     5    2    3 2    
     6    2    4 am   BACKBONE|DICT|INTERRES
     7    4    5 1    
     8    4  130 1    
     9    5    6 1    
    10    5   65 1    
    11    5  131 1    
    12    6    7 1    
    13    6  132 1    
    14    6  133 1    
    15    7    8 1    
    16    8    9 1    
    17    8  134 1    
    18    8  135 1    
    19    9   10 ar   
    20    9   14 ar   
    21   10   11 ar   
    22   10  136 1    
    23   11   12 ar   
    24   11  126 1    
    25   12   13 ar   
    26   12  137 1    
    27   13   14 ar   
    28   13   15 1    
    29   14  138 1    
    30   15   16 1    
    31   15  139 1    
    32   15  140 1    
    33   16   17 1    
    34   17   18 1    
    35   17  141 1    
    36   17  142 1    
    37   18   19 1    
    38   18   67 1    
    39   18  143 1    
    40   19   20 am   BACKBONE|DICT|INTERRES
    41   19  144 1    
    42   20   21 2    
    43   20   22 1    
    44   22   23 1    
    45   22   24 1    
    46   22  145 1    
    47   23  146 1    
    48   23  147 1    
    49   23  148 1    
    50   24   25 am   BACKBONE|DICT|INTERRES
    51   24  149 1    
    52   25   26 2    
    53   25   27 1    
    54   27   28 1    
    55   27   29 1    
    56   27  150 1    
    57   28  151 1    
    58   28  152 1    
    59   28  153 1    
    60   29   30 am   BACKBONE|DICT|INTERRES
    61   29  154 1    
    62   30   31 2    
    63   30   32 1    
    64   32   33 1    
    65   32   34 1    
    66   32  155 1    
    67   33  156 1    
    68   33  157 1    
    69   33  158 1    
    70   34   35 am   BACKBONE|DICT|INTERRES
    71   34  159 1    
    72   35   36 2    
    73   35   37 1    
    74   37   38 1    
    75   37   39 1    
    76   37  160 1    
    77   38  161 1    
    78   38  162 1    
    79   38  163 1    
    80   39   40 am   BACKBONE|DICT|INTERRES
    81   39  164 1    
    82   40   41 2    
    83   40   42 1    
    84   42   43 1    
    85   42   44 1    
    86   42  165 1    
    87   43  166 1    
    88   43  167 1    
    89   43  168 1    
    90   44   45 am   BACKBONE|DICT|INTERRES
    91   44  169 1    
    92   45   46 2    
    93   45   47 1    
    94   47   48 1    
    95   47   49 1    
    96   47  170 1    
    97   48  171 1    
    98   48  172 1    
    99   48  173 1    
   100   49   50 am   BACKBONE|DICT|INTERRES
   101   49  174 1    
   102   50   51 2    
   103   50   52 1    
   104   52   53 1    
   105   52   54 1    
   106   52  175 1    
   107   53  176 1    
   108   53  177 1    
   109   53  178 1    
   110   54   55 am   BACKBONE|DICT|INTERRES
   111   54  179 1    
   112   55   56 2    
   113   55   57 1    
   114   57   58 1    
   115   57   59 1    
   116   57  180 1    
   117   58  181 1    
   118   58  182 1    
   119   58  183 1    
   120   59   60 am   BACKBONE|DICT|INTERRES
   121   59  184 1    
   122   60   61 2    
   123   60   62 1    
   124   62   63 1    
   125   62   64 1    
   126   62  185 1    
   127   63  186 1    
   128   63  187 1    
   129   63  188 1    
   130   64   65 am   BACKBONE|DICT|INTERRES
   131   64  189 1    
   132   65   66 2    
   133   67   68 2    
   134   67   69 am   BACKBONE|DICT|INTERRES
   135   69   70 1    
   136   69  190 1    
   137   70   71 1    
   138   70   72 1    
   139   70  191 1    
   140   71  192 1    
   141   71  193 1    
   142   71  194 1    
   143   72   73 2    
   144   72   74 am   BACKBONE|DICT|INTERRES
   145   74   75 1    
   146   74  195 1    
   147   75   76 1    
   148   75   77 1    
   149   75  196 1    
   150   76  197 1    
   151   76  198 1    
   152   76  199 1    
   153   77   78 2    
   154   77   79 am   BACKBONE|DICT|INTERRES
   155   79   80 1    
   156   79  200 1    
   157   80   81 1    
   158   80   82 1    
   159   80  201 1    
   160   81  202 1    
   161   81  203 1    
   162   81  204 1    
   163   82   83 2    
   164   82   84 am   BACKBONE|DICT|INTERRES
   165   84   85 1    
   166   84  205 1    
   167   85   86 1    
   168   85   87 1    
   169   85  206 1    
   170   86  207 1    
   171   86  208 1    
   172   86  209 1    
   173   87   88 2    
   174   87   89 am   BACKBONE|DICT|INTERRES
   175   89   90 1    
   176   89  210 1    
   177   90   91 1    
   178   90   92 1    
   179   90  211 1    
   180   91  212 1    
   181   91  213 1    
   182   91  214 1    
   183   92   93 2    
   184   92   94 am   BACKBONE|DICT|INTERRES
   185   94   95 1    
   186   94  215 1    
   187   95   96 1    
   188   95   97 1    
   189   95  216 1    
   190   96  217 1    
   191   96  218 1    
   192   96  219 1    
   193   97   98 2    
   194   97   99 am   BACKBONE|DICT|INTERRES
   195   99  100 1    
   196   99  220 1    
   197  100  101 1    
   198  100  102 1    
   199  100  221 1    
   200  101  222 1    
   201  101  223 1    
   202  101  224 1    
   203  102  103 2    
   204  102  104 am   BACKBONE|DICT|INTERRES
   205  104  105 1    
   206  104  225 1    
   207  105  106 1    
   208  105  107 1    
   209  105  226 1    
   210  106  227 1    
   211  106  228 1    
   212  106  229 1    
   213  107  108 2    
   214  107  109 am   BACKBONE|DICT|INTERRES
   215  109  110 1    
   216  109  230 1    
   217  110  111 1    
   218  110  112 1    
   219  110  231 1    
   220  111  232 1    
   221  111  233 1    
   222  111  234 1    
   223  112  113 2    
   224  112  114 am   BACKBONE|DICT|INTERRES
   225  114  115 1    
   226  114  235 1    
   227  115  116 1    
   228  115  117 1    
   229  115  236 1    
   230  116  237 1    
   231  116  238 1    
   232  116  239 1    
   233  117  118 2    
   234  117  119 am   BACKBONE|DICT|INTERRES
   235  119  120 1    
   236  119  240 1    
   237  120  121 1    
   238  120  124 1    
   239  120  241 1    
   240  121  122 am   BACKBONE|DICT|INTERRES
   241  121  123 2    
   242  122  242 1    
   243  122  243 1    
   244  124  125 1    
   245  124  244 1    
   246  124  245 1    
   247  125  126 1    
   248  126  246 1    
   249  126  247 1    
@<TRIPOS>SUBSTRUCTURE
     1 UNK         1 GROUP             0       ****    0 ROOT    
