@<TRIPOS>MOLECULE
3R540
247   249    1
SMALL
USER_CHARGES


@<TRIPOS>ATOM
      1 CA          0.6860  -12.0846  -50.2112 C.3       0 UNK        -0.1800 
      2 C           1.0771  -13.2151  -49.2715 C.2       0 UNK         0.5000 
      3 O           1.0097  -13.0512  -48.0564 O.2       0 UNK        -0.5000 
      4 N           1.4779  -14.3643  -49.8273 N.am      1 UNK        -0.5000 
      5 CA          1.8659  -15.5745  -49.0928 C.3       1 UNK         0.1400 
      6 C6          2.4959  -16.6195  -50.0467 C.3       23 UNK        -0.0398 
      7 S7          3.6852  -17.7228  -49.2146 S.3       23 UNK        -0.2404 
      8 C8          4.4247  -18.5726  -50.6458 C.3       23 UNK        -0.0205 
      9 C9          3.4336  -19.5158  -51.3107 C.ar      23 UNK        -0.0193 
     10 C10         2.7168  -19.1102  -52.4391 C.ar      23 UNK        -0.1150 
     11 C11         1.7852  -19.9660  -53.0318 C.ar      23 UNK        -0.0193 
     12 C12         1.5848  -21.2393  -52.4912 C.ar      23 UNK        -0.1150 
     13 C13         2.3012  -21.6692  -51.3687 C.ar      23 UNK        -0.0193 
     14 C14         3.2316  -20.7960  -50.7891 C.ar      23 UNK        -0.1150 
     15 C15         2.0168  -23.0748  -50.8321 C.3       23 UNK        -0.0205 
     16 S16         3.1217  -23.7004  -49.5123 S.3       23 UNK        -0.2404 
     17 C17         2.5752  -22.7675  -48.0383 C.3       23 UNK        -0.0398 
     18 CA          1.5274  -23.5335  -47.1920 C.3       11 UNK         0.1400 
     19 N           1.6044  -23.1780  -45.7739 N.am      11 UNK        -0.5000 
     20 C           0.8373  -23.6427  -44.7798 C.2       10 UNK         0.5000 
     21 O          -0.1323  -24.3811  -44.9515 O.2       10 UNK        -0.5000 
     22 CA          1.1952  -23.1934  -43.3493 C.3       10 UNK         0.1400 
     23 CB          2.3910  -23.9898  -42.7949 C.3       10 UNK        -0.1800 
     24 N           1.3943  -21.7453  -43.2171 N.am      10 UNK        -0.5000 
     25 C           2.3373  -20.9603  -43.7614 C.2       9 UNK         0.5000 
     26 O           3.3045  -21.3851  -44.3968 O.2       9 UNK        -0.5000 
     27 CA          2.1055  -19.4417  -43.6151 C.3       9 UNK         0.1400 
     28 CB          2.8898  -18.6089  -44.6499 C.3       9 UNK        -0.1800 
     29 N           0.6826  -19.0801  -43.6437 N.am      9 UNK        -0.5000 
     30 C          -0.2017  -19.3354  -44.6246 C.2       8 UNK         0.5000 
     31 O           0.0707  -19.9652  -45.6488 O.2       8 UNK        -0.5000 
     32 CA         -1.6561  -18.8685  -44.4021 C.3       8 UNK         0.1400 
     33 CB         -2.5658  -20.0780  -44.1272 C.3       8 UNK        -0.1800 
     34 N          -1.8131  -17.9196  -43.2998 N.am      8 UNK        -0.5000 
     35 C          -1.3918  -16.6494  -43.3083 C.2       7 UNK         0.5000 
     36 O          -0.8576  -16.1105  -44.2769 O.2       7 UNK        -0.5000 
     37 CA         -1.5558  -15.8498  -42.0023 C.3       7 UNK         0.1400 
     38 CB         -2.5538  -16.4663  -40.9958 C.3       7 UNK        -0.1800 
     39 N          -0.2571  -15.6114  -41.3675 N.am      7 UNK        -0.5000 
     40 C           0.6262  -16.5255  -40.9340 C.2       6 UNK         0.5000 
     41 O           0.4273  -17.7402  -41.0018 O.2       6 UNK        -0.5000 
     42 CA          1.9648  -16.0091  -40.3564 C.3       6 UNK         0.1400 
     43 CB          3.1451  -16.9031  -40.7760 C.3       6 UNK        -0.1800 
     44 N           2.2571  -14.6390  -40.7779 N.am      6 UNK        -0.5000 
     45 C           1.9544  -13.5197  -40.1059 C.2       5 UNK         0.5000 
     46 O           1.4682  -13.5070  -38.9753 O.2       5 UNK        -0.5000 
     47 CA          2.1905  -12.1898  -40.8567 C.3       5 UNK         0.1400 
     48 CB          3.5554  -11.5931  -40.4819 C.3       5 UNK        -0.1800 
     49 N           2.1129  -12.3371  -42.3168 N.am      5 UNK        -0.5000 
     50 C           1.0093  -12.7107  -42.9799 C.2       4 UNK         0.5000 
     51 O          -0.0864  -12.8530  -42.4309 O.2       4 UNK        -0.5000 
     52 CA          1.1919  -13.0561  -44.4700 C.3       4 UNK         0.1400 
     53 CB          2.1827  -14.2219  -44.6473 C.3       4 UNK        -0.1800 
     54 N          -0.0693  -13.4520  -45.0868 N.am      4 UNK        -0.5000 
     55 C          -1.0097  -12.6167  -45.5398 C.2       3 UNK         0.5000 
     56 O          -0.9199  -11.3881  -45.4858 O.2       3 UNK        -0.5000 
     57 CA         -2.2328  -13.2842  -46.1924 C.3       3 UNK         0.1400 
     58 CB         -3.1110  -12.3023  -46.9902 C.3       3 UNK        -0.1800 
     59 N          -1.7894  -14.3627  -47.0739 N.am      3 UNK        -0.5000 
     60 C          -2.3847  -15.5545  -47.2053 C.2       2 UNK         0.5000 
     61 O          -3.4086  -15.8704  -46.5977 O.2       2 UNK        -0.5000 
     62 CA         -1.7566  -16.5672  -48.1860 C.3       2 UNK         0.1400 
     63 CB         -2.7567  -16.9565  -49.2889 C.3       2 UNK        -0.1800 
     64 N          -0.5292  -16.0788  -48.8172 N.am      2 UNK        -0.5000 
     65 C           0.6968  -16.1844  -48.2840 C.2       1 UNK         0.5000 
     66 O           0.9211  -16.7104  -47.1953 O.2       1 UNK        -0.5000 
     67 C           0.1207  -23.3599  -47.7893 C.2       11 UNK         0.5000 
     68 O          -0.3818  -24.2864  -48.4245 O.2       11 UNK        -0.5000 
     69 N          -0.5032  -22.1937  -47.5682 N.am      12 UNK        -0.5000 
     70 CA         -1.7996  -21.8654  -48.1624 C.3       12 UNK         0.1400 
     71 CB         -2.0376  -20.3513  -48.0895 C.3       12 UNK        -0.1800 
     72 C          -2.9696  -22.6669  -47.5641 C.2       12 UNK         0.5000 
     73 O          -3.9962  -22.8069  -48.2281 O.2       12 UNK        -0.5000 
     74 N          -2.7843  -23.2120  -46.3554 N.am      13 UNK        -0.5000 
     75 CA         -3.7105  -24.1520  -45.7329 C.3       13 UNK         0.1400 
     76 CB         -3.6060  -24.0384  -44.2037 C.3       13 UNK        -0.1800 
     77 C          -3.4279  -25.5884  -46.2065 C.2       13 UNK         0.5000 
     78 O          -4.3584  -26.2884  -46.6047 O.2       13 UNK        -0.5000 
     79 N          -2.1500  -25.9938  -46.1705 N.am      14 UNK        -0.5000 
     80 CA         -1.6793  -27.3414  -46.4966 C.3       14 UNK         0.1400 
     81 CB         -0.1996  -27.4700  -46.1024 C.3       14 UNK        -0.1800 
     82 C          -1.8805  -27.7289  -47.9721 C.2       14 UNK         0.5000 
     83 O          -2.3606  -28.8282  -48.2510 O.2       14 UNK        -0.5000 
     84 N          -1.5233  -26.8189  -48.8869 N.am      15 UNK        -0.5000 
     85 CA         -1.6685  -26.9957  -50.3340 C.3       15 UNK         0.1400 
     86 CB         -0.5362  -26.2304  -51.0410 C.3       15 UNK        -0.1800 
     87 C          -3.0400  -26.5202  -50.8516 C.2       15 UNK         0.5000 
     88 O          -3.3222  -26.6870  -52.0382 O.2       15 UNK        -0.5000 
     89 N          -3.8438  -25.9028  -49.9708 N.am      16 UNK        -0.5000 
     90 CA         -5.1327  -25.2484  -50.2320 C.3       16 UNK         0.1400 
     91 CB         -6.1862  -26.2602  -50.7268 C.3       16 UNK        -0.1800 
     92 C          -5.0192  -24.0117  -51.1510 C.2       16 UNK         0.5000 
     93 O          -6.0215  -23.5650  -51.7116 O.2       16 UNK        -0.5000 
     94 N          -3.8080  -23.4445  -51.2605 N.am      17 UNK        -0.5000 
     95 CA         -3.4840  -22.2800  -52.0874 C.3       17 UNK         0.1400 
     96 CB         -1.9597  -22.1561  -52.2236 C.3       17 UNK        -0.1800 
     97 C          -4.1258  -20.9639  -51.5993 C.2       17 UNK         0.5000 
     98 O          -4.1023  -19.9748  -52.3300 O.2       17 UNK        -0.5000 
     99 N          -4.7538  -20.9738  -50.4148 N.am      18 UNK        -0.5000 
    100 CA        -5.6457  -19.9175  -49.9336 C.3       18 UNK         0.1400 
    101 CB        -6.0492  -20.2133  -48.4813 C.3       18 UNK        -0.1800 
    102 C         -6.8968  -19.7311  -50.8181 C.2       18 UNK         0.5000 
    103 O         -7.4351  -18.6254  -50.8622 O.2       18 UNK        -0.5000 
    104 N         -7.3133  -20.7877  -51.5359 N.am      19 UNK        -0.5000 
    105 CA        -8.3772  -20.7309  -52.5415 C.3       19 UNK         0.1400 
    106 CB        -8.8419  -22.1560  -52.8766 C.3       19 UNK        -0.1800 
    107 C         -7.9381  -19.9893  -53.8199 C.2       19 UNK         0.5000 
    108 O         -8.7601  -19.3144  -54.4405 O.2       19 UNK        -0.5000 
    109 N         -6.6504  -20.1083  -54.1776 N.am      20 UNK        -0.5000 
    110 CA        -6.0157  -19.3464  -55.2572 C.3       20 UNK         0.1400 
    111 CB        -4.7492  -20.0809  -55.7261 C.3       20 UNK        -0.1800 
    112 C         -5.6835  -17.9039  -54.8257 C.2       20 UNK         0.5000 
    113 O         -5.6563  -17.0117  -55.6737 O.2       20 UNK        -0.5000 
    114 N         -5.4638  -17.7152  -53.5160 N.am      21 UNK        -0.5000 
    115 CA        -5.1682  -16.4672  -52.8129 C.3       21 UNK         0.1400 
    116 CB        -6.3419  -15.4722  -52.9264 C.3       21 UNK        -0.1800 
    117 C         -3.8133  -15.8784  -53.2437 C.2       21 UNK         0.5000 
    118 O         -3.7521  -14.7514  -53.7395 O.2       21 UNK        -0.5000 
    119 N         -2.7557  -16.6796  -53.0567 N.am      22 UNK        -0.5000 
    120 CA        -1.3484  -16.3275  -53.3074 C.3       22 UNK         0.1400 
    121 C         -0.9072  -15.0222  -52.5892 C.2       22 UNK         0.5000 
    122 N         -0.2893  -14.0887  -53.2992 N.am      22 UNK        -0.7600 
    123 O         -1.0742  -14.8785  -51.3812 O.2       22 UNK        -0.5000 
    124 C124       -0.4012  -17.4811  -52.8965 C.3       23 UNK        -0.0398 
    125 S125       -0.6922  -19.0034  -53.8554 S.3       23 UNK        -0.2404 
    126 C126        1.0055  -19.5239  -54.2635 C.3       23 UNK        -0.0205 
    127 H127        1.0839  -12.2407  -51.2135 H         1 UNK         0.0600 
    128 H128        1.0710  -11.1348  -49.8402 H         1 UNK         0.0600 
    129 H129       -0.3997  -12.0132  -50.2766 H         1 UNK         0.0600 
    130 H130        1.4671  -14.4439  -50.8336 H         1 UNK         0.3000 
    131 H131        2.6259  -15.2622  -48.3729 H         1 UNK         0.0600 
    132 H132        3.0435  -16.1129  -50.8429 H         1 UNK         0.0800 
    133 H133        1.7284  -17.2159  -50.5425 H         1 UNK         0.0800 
    134 H134        4.7980  -17.8372  -51.3603 H         1 UNK         0.0800 
    135 H135        5.2957  -19.1368  -50.3091 H         1 UNK         0.0800 
    136 H136        2.8805  -18.1245  -52.8511 H         1 UNK         0.1150 
    137 H137        0.8645  -21.9010  -52.9514 H         1 UNK         0.1150 
    138 H138        3.8048  -21.0918  -49.9239 H         1 UNK         0.1150 
    139 H139        0.9821  -23.1169  -50.4940 H         1 UNK         0.0800 
    140 H140        2.0857  -23.7754  -51.6655 H         1 UNK         0.0800 
    141 H141        3.4739  -22.5963  -47.4437 H         1 UNK         0.0800 
    142 H142        2.2214  -21.7729  -48.3160 H         1 UNK         0.0800 
    143 H143        1.7637  -24.5988  -47.2340 H         1 UNK         0.0600 
    144 H144        2.3535  -22.5455  -45.5043 H         1 UNK         0.3000 
    145 H145        0.3316  -23.4290  -42.7253 H         1 UNK         0.0600 
    146 H146        2.6058  -23.7100  -41.7636 H         1 UNK         0.0600 
    147 H147        2.1802  -25.0599  -42.8043 H         1 UNK         0.0600 
    148 H148        3.2973  -23.8337  -43.3802 H         1 UNK         0.0600 
    149 H149        0.6452  -21.2641  -42.7401 H         1 UNK         0.3000 
    150 H150        2.4723  -19.1753  -42.6239 H         1 UNK         0.0600 
    151 H151        3.9638  -18.7708  -44.5536 H         1 UNK         0.0600 
    152 H152        2.7083  -17.5425  -44.5157 H         1 UNK         0.0600 
    153 H153        2.6089  -18.8656  -45.6723 H         1 UNK         0.0600 
    154 H154        0.3505  -18.5876  -42.8201 H         1 UNK         0.3000 
    155 H155       -1.9874  -18.3820  -45.3212 H         1 UNK         0.0600 
    156 H156       -3.6143  -19.7821  -44.0901 H         1 UNK         0.0600 
    157 H157       -2.3188  -20.5605  -43.1808 H         1 UNK         0.0600 
    158 H158       -2.4722  -20.8332  -44.9062 H         1 UNK         0.0600 
    159 H159       -2.2158  -18.2812  -42.4475 H         1 UNK         0.3000 
    160 H160       -1.9458  -14.8732  -42.2924 H         1 UNK         0.0600 
    161 H161       -2.2201  -17.4298  -40.6098 H         1 UNK         0.0600 
    162 H162       -3.5332  -16.6111  -41.4535 H         1 UNK         0.0600 
    163 H163       -2.6962  -15.8049  -40.1411 H         1 UNK         0.0600 
    164 H164        0.0134  -14.6357  -41.3373 H         1 UNK         0.3000 
    165 H165        1.8799  -16.0500  -39.2688 H         1 UNK         0.0600 
    166 H166        3.2618  -16.9313  -41.8599 H         1 UNK         0.0600 
    167 H167        4.0812  -16.5434  -40.3486 H         1 UNK         0.0600 
    168 H168        3.0088  -17.9282  -40.4292 H         1 UNK         0.0600 
    169 H169        2.6532  -14.5370  -41.7002 H         1 UNK         0.3000 
    170 H170        1.4117  -11.4909  -40.5444 H         1 UNK         0.0600 
    171 H171        3.6348  -11.4476  -39.4037 H         1 UNK         0.0600 
    172 H172        4.3769  -12.2427  -40.7867 H         1 UNK         0.0600 
    173 H173        3.7033  -10.6203  -40.9512 H         1 UNK         0.0600 
    174 H174        2.9775  -12.2214  -42.8261 H         1 UNK         0.3000 
    175 H175        1.5832  -12.1762  -44.9848 H         1 UNK         0.0600 
    176 H176        1.8534  -15.1138  -44.1120 H         1 UNK         0.0600 
    177 H177        2.2851  -14.4897  -45.6996 H         1 UNK         0.0600 
    178 H178        3.1787  -13.9650  -44.2862 H         1 UNK         0.0600 
    179 H179       -0.2696  -14.4488  -45.0872 H         1 UNK         0.3000 
    180 H180       -2.8276  -13.6940  -45.3734 H         1 UNK         0.0600 
    181 H181       -2.5546  -11.8447  -47.8091 H         1 UNK         0.0600 
    182 H182       -3.4828  -11.4998  -46.3521 H         1 UNK         0.0600 
    183 H183       -3.9791  -12.8063  -47.4152 H         1 UNK         0.0600 
    184 H184       -0.9181  -14.1940  -47.5628 H         1 UNK         0.3000 
    185 H185       -1.5260  -17.4647  -47.6094 H         1 UNK         0.0600 
    186 H186       -2.3368  -17.7068  -49.9591 H         1 UNK         0.0600 
    187 H187       -3.6654  -17.3785  -48.8589 H         1 UNK         0.0600 
    188 H188       -3.0479  -16.0941  -49.8893 H         1 UNK         0.0600 
    189 H189       -0.6444  -15.5949  -49.7061 H         1 UNK         0.3000 
    190 H190       -0.0716  -21.4818  -46.9844 H         1 UNK         0.3000 
    191 H191       -1.7496  -22.1375  -49.2156 H         1 UNK         0.0600 
    192 H192       -2.8979  -20.0580  -48.6873 H         1 UNK         0.0600 
    193 H193       -1.1791  -19.7985  -48.4719 H         1 UNK         0.0600 
    194 H194       -2.2261  -20.0188  -47.0719 H         1 UNK         0.0600 
    195 H195       -1.8856  -23.0950  -45.9086 H         1 UNK         0.3000 
    196 H196       -4.7341  -23.8969  -46.0163 H         1 UNK         0.0600 
    197 H197       -4.2970  -24.7262  -43.7148 H         1 UNK         0.0600 
    198 H198       -3.8571  -23.0323  -43.8674 H         1 UNK         0.0600 
    199 H199       -2.6035  -24.2699  -43.8431 H         1 UNK         0.0600 
    200 H200       -1.4444  -25.3541  -45.8127 H         1 UNK         0.3000 
    201 H201       -2.2519  -28.0462  -45.8902 H         1 UNK         0.0600 
    202 H202       -0.0597  -27.2940  -45.0356 H         1 UNK         0.0600 
    203 H203        0.4237  -26.7561  -46.6423 H         1 UNK         0.0600 
    204 H204        0.1793  -28.4695  -46.3197 H         1 UNK         0.0600 
    205 H205       -1.1242  -25.9318  -48.5822 H         1 UNK         0.3000 
    206 H206       -1.5689  -28.0536  -50.5851 H         1 UNK         0.0600 
    207 H207        0.4412  -26.5244  -50.6579 H         1 UNK         0.0600 
    208 H208       -0.5386  -26.4315  -52.1129 H         1 UNK         0.0600 
    209 H209       -0.6349  -25.1523  -50.9130 H         1 UNK         0.0600 
    210 H210       -3.5184  -25.8463  -49.0157 H         1 UNK         0.3000 
    211 H211       -5.4747  -24.8717  -49.2671 H         1 UNK         0.0600 
    212 H212       -5.9636  -26.6225  -51.7306 H         1 UNK         0.0600 
    213 H213       -7.1776  -25.8068  -50.7586 H         1 UNK         0.0600 
    214 H214       -6.2465  -27.1224  -50.0628 H         1 UNK         0.0600 
    215 H215       -3.0504  -23.8587  -50.7398 H         1 UNK         0.3000 
    216 H216       -3.8873  -22.4768  -53.0829 H         1 UNK         0.0600 
    217 H217       -1.7139  -21.5462  -53.0910 H         1 UNK         0.0600 
    218 H218       -1.4861  -23.1260  -52.3764 H         1 UNK         0.0600 
    219 H219       -1.4975  -21.6827  -51.3588 H         1 UNK         0.0600 
    220 H220       -4.6879  -21.8054  -49.8368 H         1 UNK         0.3000 
    221 H221       -5.0923  -18.9773  -49.9524 H         1 UNK         0.0600 
    222 H222       -6.5561  -21.1752  -48.3941 H         1 UNK         0.0600 
    223 H223       -5.1807  -20.2328  -47.8235 H         1 UNK         0.0600 
    224 H224       -6.7255  -19.4479  -48.0986 H         1 UNK         0.0600 
    225 H225       -6.8268  -21.6737  -51.4444 H         1 UNK         0.3000 
    226 H226       -9.2246  -20.1900  -52.1149 H         1 UNK         0.0600 
    227 H227       -9.1725  -22.6847  -51.9824 H         1 UNK         0.0600 
    228 H228       -9.6807  -22.1380  -53.5736 H         1 UNK         0.0600 
    229 H229       -8.0461  -22.7422  -53.3376 H         1 UNK         0.0600 
    230 H230       -6.0393  -20.6678  -53.6019 H         1 UNK         0.3000 
    231 H231       -6.7062  -19.2920  -56.1015 H         1 UNK         0.0600 
    232 H232       -4.2954  -19.5662  -56.5738 H         1 UNK         0.0600 
    233 H233       -4.9779  -21.0970  -56.0480 H         1 UNK         0.0600 
    234 H234       -3.9946  -20.1385  -54.9417 H         1 UNK         0.0600 
    235 H235       -5.4003  -18.5514  -52.9478 H         1 UNK         0.3000 
    236 H236       -5.0693  -16.7288  -51.7581 H         1 UNK         0.0600 
    237 H237       -7.2715  -15.9228  -52.5780 H         1 UNK         0.0600 
    238 H238       -6.1603  -14.5875  -52.3152 H         1 UNK         0.0600 
    239 H239       -6.4963  -15.1340  -53.9512 H         1 UNK         0.0600 
    240 H240       -2.9152  -17.6110  -52.6983 H         1 UNK         0.3000 
    241 H241       -1.2511  -16.1727  -54.3835 H         1 UNK         0.0600 
    242 H242       -0.1466  -14.1909  -54.2923 H         1 UNK         0.3800 
    243 H243       -0.0196  -13.2287  -52.8520 H         1 UNK         0.3800 
    244 H244        0.6361  -17.1742  -53.0361 H         1 UNK         0.0800 
    245 H245       -0.5107  -17.7163  -51.8362 H         1 UNK         0.0800 
    246 H246        1.5225  -18.7138  -54.7800 H         1 UNK         0.0800 
    247 H247        0.9558  -20.3509  -54.9732 H         1 UNK         0.0800 
@<TRIPOS>BOND
     1    1    2 1    
     2    1  127 1    
     3    1  128 1    
     4    1  129 1    
     5    2    3 2    
     6    2    4 am   BACKBONE|DICT|INTERRES
     7    4    5 1    
     8    4  130 1    
     9    5    6 1    
    10    5   65 1    
    11    5  131 1    
    12    6    7 1    
    13    6  132 1    
    14    6  133 1    
    15    7    8 1    
    16    8    9 1    
    17    8  134 1    
    18    8  135 1    
    19    9   10 ar   
    20    9   14 ar   
    21   10   11 ar   
    22   10  136 1    
    23   11   12 ar   
    24   11  126 1    
    25   12   13 ar   
    26   12  137 1    
    27   13   14 ar   
    28   13   15 1    
    29   14  138 1    
    30   15   16 1    
    31   15  139 1    
    32   15  140 1    
    33   16   17 1    
    34   17   18 1    
    35   17  141 1    
    36   17  142 1    
    37   18   19 1    
    38   18   67 1    
    39   18  143 1    
    40   19   20 am   BACKBONE|DICT|INTERRES
    41   19  144 1    
    42   20   21 2    
    43   20   22 1    
    44   22   23 1    
    45   22   24 1    
    46   22  145 1    
    47   23  146 1    
    48   23  147 1    
    49   23  148 1    
    50   24   25 am   BACKBONE|DICT|INTERRES
    51   24  149 1    
    52   25   26 2    
    53   25   27 1    
    54   27   28 1    
    55   27   29 1    
    56   27  150 1    
    57   28  151 1    
    58   28  152 1    
    59   28  153 1    
    60   29   30 am   BACKBONE|DICT|INTERRES
    61   29  154 1    
    62   30   31 2    
    63   30   32 1    
    64   32   33 1    
    65   32   34 1    
    66   32  155 1    
    67   33  156 1    
    68   33  157 1    
    69   33  158 1    
    70   34   35 am   BACKBONE|DICT|INTERRES
    71   34  159 1    
    72   35   36 2    
    73   35   37 1    
    74   37   38 1    
    75   37   39 1    
    76   37  160 1    
    77   38  161 1    
    78   38  162 1    
    79   38  163 1    
    80   39   40 am   BACKBONE|DICT|INTERRES
    81   39  164 1    
    82   40   41 2    
    83   40   42 1    
    84   42   43 1    
    85   42   44 1    
    86   42  165 1    
    87   43  166 1    
    88   43  167 1    
    89   43  168 1    
    90   44   45 am   BACKBONE|DICT|INTERRES
    91   44  169 1    
    92   45   46 2    
    93   45   47 1    
    94   47   48 1    
    95   47   49 1    
    96   47  170 1    
    97   48  171 1    
    98   48  172 1    
    99   48  173 1    
   100   49   50 am   BACKBONE|DICT|INTERRES
   101   49  174 1    
   102   50   51 2    
   103   50   52 1    
   104   52   53 1    
   105   52   54 1    
   106   52  175 1    
   107   53  176 1    
   108   53  177 1    
   109   53  178 1    
   110   54   55 am   BACKBONE|DICT|INTERRES
   111   54  179 1    
   112   55   56 2    
   113   55   57 1    
   114   57   58 1    
   115   57   59 1    
   116   57  180 1    
   117   58  181 1    
   118   58  182 1    
   119   58  183 1    
   120   59   60 am   BACKBONE|DICT|INTERRES
   121   59  184 1    
   122   60   61 2    
   123   60   62 1    
   124   62   63 1    
   125   62   64 1    
   126   62  185 1    
   127   63  186 1    
   128   63  187 1    
   129   63  188 1    
   130   64   65 am   BACKBONE|DICT|INTERRES
   131   64  189 1    
   132   65   66 2    
   133   67   68 2    
   134   67   69 am   BACKBONE|DICT|INTERRES
   135   69   70 1    
   136   69  190 1    
   137   70   71 1    
   138   70   72 1    
   139   70  191 1    
   140   71  192 1    
   141   71  193 1    
   142   71  194 1    
   143   72   73 2    
   144   72   74 am   BACKBONE|DICT|INTERRES
   145   74   75 1    
   146   74  195 1    
   147   75   76 1    
   148   75   77 1    
   149   75  196 1    
   150   76  197 1    
   151   76  198 1    
   152   76  199 1    
   153   77   78 2    
   154   77   79 am   BACKBONE|DICT|INTERRES
   155   79   80 1    
   156   79  200 1    
   157   80   81 1    
   158   80   82 1    
   159   80  201 1    
   160   81  202 1    
   161   81  203 1    
   162   81  204 1    
   163   82   83 2    
   164   82   84 am   BACKBONE|DICT|INTERRES
   165   84   85 1    
   166   84  205 1    
   167   85   86 1    
   168   85   87 1    
   169   85  206 1    
   170   86  207 1    
   171   86  208 1    
   172   86  209 1    
   173   87   88 2    
   174   87   89 am   BACKBONE|DICT|INTERRES
   175   89   90 1    
   176   89  210 1    
   177   90   91 1    
   178   90   92 1    
   179   90  211 1    
   180   91  212 1    
   181   91  213 1    
   182   91  214 1    
   183   92   93 2    
   184   92   94 am   BACKBONE|DICT|INTERRES
   185   94   95 1    
   186   94  215 1    
   187   95   96 1    
   188   95   97 1    
   189   95  216 1    
   190   96  217 1    
   191   96  218 1    
   192   96  219 1    
   193   97   98 2    
   194   97   99 am   BACKBONE|DICT|INTERRES
   195   99  100 1    
   196   99  220 1    
   197  100  101 1    
   198  100  102 1    
   199  100  221 1    
   200  101  222 1    
   201  101  223 1    
   202  101  224 1    
   203  102  103 2    
   204  102  104 am   BACKBONE|DICT|INTERRES
   205  104  105 1    
   206  104  225 1    
   207  105  106 1    
   208  105  107 1    
   209  105  226 1    
   210  106  227 1    
   211  106  228 1    
   212  106  229 1    
   213  107  108 2    
   214  107  109 am   BACKBONE|DICT|INTERRES
   215  109  110 1    
   216  109  230 1    
   217  110  111 1    
   218  110  112 1    
   219  110  231 1    
   220  111  232 1    
   221  111  233 1    
   222  111  234 1    
   223  112  113 2    
   224  112  114 am   BACKBONE|DICT|INTERRES
   225  114  115 1    
   226  114  235 1    
   227  115  116 1    
   228  115  117 1    
   229  115  236 1    
   230  116  237 1    
   231  116  238 1    
   232  116  239 1    
   233  117  118 2    
   234  117  119 am   BACKBONE|DICT|INTERRES
   235  119  120 1    
   236  119  240 1    
   237  120  121 1    
   238  120  124 1    
   239  120  241 1    
   240  121  122 am   BACKBONE|DICT|INTERRES
   241  121  123 2    
   242  122  242 1    
   243  122  243 1    
   244  124  125 1    
   245  124  244 1    
   246  124  245 1    
   247  125  126 1    
   248  126  246 1    
   249  126  247 1    
@<TRIPOS>SUBSTRUCTURE
     1 UNK         1 GROUP             0       ****    0 ROOT    
