@<TRIPOS>MOLECULE
3R540
247   249    1
SMALL
USER_CHARGES


@<TRIPOS>ATOM
      1 CA          3.8987  -11.1002  -50.5093 C.3       0 UNK        -0.1800 
      2 C           2.9856  -12.0970  -51.2210 C.2       0 UNK         0.5000 
      3 O           2.6374  -11.8759  -52.3793 O.2       0 UNK        -0.5000 
      4 N           2.5818  -13.2056  -50.5871 N.am      1 UNK        -0.5000 
      5 CA          2.8367  -13.5637  -49.1880 C.3       1 UNK         0.1400 
      6 C6          2.6566  -15.0804  -48.9348 C.3       23 UNK        -0.0398 
      7 S7          3.8635  -16.1025  -49.8448 S.3       23 UNK        -0.2404 
      8 C8          2.9001  -16.6567  -51.2881 C.3       23 UNK        -0.0205 
      9 C9          1.8603  -17.7087  -50.9299 C.ar      23 UNK        -0.0193 
     10 C10         0.5168  -17.3535  -50.7748 C.ar      23 UNK        -0.1150 
     11 C11        -0.4492  -18.3253  -50.4981 C.ar      23 UNK        -0.0193 
     12 C12        -0.0580  -19.6600  -50.3604 C.ar      23 UNK        -0.1150 
     13 C13         1.2814  -20.0295  -50.5131 C.ar      23 UNK        -0.0193 
     14 C14         2.2357  -19.0489  -50.7993 C.ar      23 UNK        -0.1150 
     15 C15         1.6846  -21.4943  -50.4118 C.3       23 UNK        -0.0205 
     16 S16         2.8405  -21.8400  -49.0433 S.3       23 UNK        -0.2404 
     17 C17         1.9633  -21.2061  -47.5739 C.3       23 UNK        -0.0398 
     18 CA          1.0078  -22.2440  -46.9304 C.3       11 UNK         0.1400 
     19 N           0.9344  -22.1046  -45.4721 N.am      11 UNK        -0.5000 
     20 C           0.2796  -22.9415  -44.6531 C.2       10 UNK         0.5000 
     21 O          -0.2844  -23.9677  -45.0311 O.2       10 UNK        -0.5000 
     22 CA          0.1932  -22.5411  -43.1693 C.3       10 UNK         0.1400 
     23 CB          1.4709  -22.9427  -42.4180 C.3       10 UNK        -0.1800 
     24 N          -0.0656  -21.1120  -42.9870 N.am      10 UNK        -0.5000 
     25 C          -1.1828  -20.4873  -43.3884 C.2       9 UNK         0.5000 
     26 O          -2.1408  -21.0660  -43.8990 O.2       9 UNK        -0.5000 
     27 CA         -1.2158  -18.9545  -43.2507 C.3       9 UNK         0.1400 
     28 CB         -1.5557  -18.5397  -41.8119 C.3       9 UNK        -0.1800 
     29 N           0.0416  -18.3305  -43.6603 N.am      9 UNK        -0.5000 
     30 C           0.5624  -18.3985  -44.8936 C.2       8 UNK         0.5000 
     31 O           0.0090  -18.9510  -45.8436 O.2       8 UNK        -0.5000 
     32 CA          1.9643  -17.7982  -45.0836 C.3       8 UNK         0.1400 
     33 CB          1.8874  -16.2782  -45.2620 C.3       8 UNK        -0.1800 
     34 N           2.8476  -18.1139  -43.9620 N.am      8 UNK        -0.5000 
     35 C           3.3214  -19.3389  -43.6972 C.2       7 UNK         0.5000 
     36 O           3.0815  -20.3283  -44.3883 O.2       7 UNK        -0.5000 
     37 CA          4.1726  -19.4874  -42.4236 C.3       7 UNK         0.1400 
     38 CB          5.6194  -19.0408  -42.6812 C.3       7 UNK        -0.1800 
     39 N           3.6245  -18.7360  -41.2934 N.am      7 UNK        -0.5000 
     40 C           2.4636  -19.0248  -40.6889 C.2       6 UNK         0.5000 
     41 O           1.7442  -19.9706  -41.0073 O.2       6 UNK        -0.5000 
     42 CA          2.0093  -18.0721  -39.5681 C.3       6 UNK         0.1400 
     43 CB          2.6339  -18.4813  -38.2260 C.3       6 UNK        -0.1800 
     44 N           2.3077  -16.6615  -39.8343 N.am      6 UNK        -0.5000 
     45 C           1.8296  -15.9654  -40.8738 C.2       5 UNK         0.5000 
     46 O           1.1479  -16.4607  -41.7735 O.2       5 UNK        -0.5000 
     47 CA          2.2167  -14.4792  -40.9431 C.3       5 UNK         0.1400 
     48 CB          3.4337  -14.2890  -41.8617 C.3       5 UNK        -0.1800 
     49 N           1.1022  -13.6749  -41.4415 N.am      5 UNK        -0.5000 
     50 C           0.0073  -13.3757  -40.7255 C.2       4 UNK         0.5000 
     51 O          -0.1274  -13.6748  -39.5378 O.2       4 UNK        -0.5000 
     52 CA         -1.1287  -12.6073  -41.4347 C.3       4 UNK         0.1400 
     53 CB         -1.0390  -11.1062  -41.1191 C.3       4 UNK        -0.1800 
     54 N          -1.1308  -12.7832  -42.8862 N.am      4 UNK        -0.5000 
     55 C          -1.4403  -13.9210  -43.5213 C.2       3 UNK         0.5000 
     56 O          -1.8973  -14.9122  -42.9525 O.2       3 UNK        -0.5000 
     57 CA         -1.1956  -13.9733  -45.0454 C.3       3 UNK         0.1400 
     58 CB         -2.5310  -13.9655  -45.8056 C.3       3 UNK        -0.1800 
     59 N          -0.3343  -12.9188  -45.6012 N.am      3 UNK        -0.5000 
     60 C           0.9257  -12.6412  -45.2396 C.2       2 UNK         0.5000 
     61 O           1.5060  -13.1867  -44.3019 O.2       2 UNK        -0.5000 
     62 CA          1.6729  -11.6012  -46.0907 C.3       2 UNK         0.1400 
     63 CB          2.6397  -10.7557  -45.2436 C.3       2 UNK        -0.1800 
     64 N           2.4297  -12.2838  -47.1375 N.am      2 UNK        -0.5000 
     65 C           1.8957  -12.7641  -48.2663 C.2       1 UNK         0.5000 
     66 O           0.7126  -12.6141  -48.5810 O.2       1 UNK        -0.5000 
     67 C          -0.3934  -22.1852  -47.5708 C.2       11 UNK         0.5000 
     68 O          -0.7460  -23.0701  -48.3506 O.2       11 UNK        -0.5000 
     69 N          -1.1815  -21.1680  -47.1933 N.am      12 UNK        -0.5000 
     70 CA         -2.5628  -20.9763  -47.6304 C.3       12 UNK         0.1400 
     71 CB         -3.0964  -19.6383  -47.0987 C.3       12 UNK        -0.1800 
     72 C          -3.4820  -22.1406  -47.2280 C.2       12 UNK         0.5000 
     73 O          -4.2663  -22.5936  -48.0593 O.2       12 UNK        -0.5000 
     74 N          -3.3402  -22.6336  -45.9900 N.am      13 UNK        -0.5000 
     75 CA         -4.0581  -23.7989  -45.4739 C.3       13 UNK         0.1400 
     76 CB         -3.7911  -23.9513  -43.9690 C.3       13 UNK        -0.1800 
     77 C          -3.7107  -25.0951  -46.2281 C.2       13 UNK         0.5000 
     78 O          -4.6207  -25.8393  -46.5937 O.2       13 UNK        -0.5000 
     79 N          -2.4143  -25.3230  -46.4852 N.am      14 UNK        -0.5000 
     80 CA         -1.9038  -26.4657  -47.2482 C.3       14 UNK         0.1400 
     81 CB         -0.3709  -26.5038  -47.1533 C.3       14 UNK        -0.1800 
     82 C          -2.3580  -26.4571  -48.7201 C.2       14 UNK         0.5000 
     83 O          -2.6913  -27.5113  -49.2622 O.2       14 UNK        -0.5000 
     84 N          -2.3954  -25.2638  -49.3262 N.am      15 UNK        -0.5000 
     85 CA         -2.8943  -25.0233  -50.6809 C.3       15 UNK         0.1400 
     86 CB         -2.3483  -23.6683  -51.1613 C.3       15 UNK        -0.1800 
     87 C          -4.4335  -25.0357  -50.7872 C.2       15 UNK         0.5000 
     88 O          -4.9561  -25.0075  -51.9033 O.2       15 UNK        -0.5000 
     89 N          -5.1281  -25.0044  -49.6378 N.am      16 UNK        -0.5000 
     90 CA         -6.5728  -24.7953  -49.4717 C.3       16 UNK         0.1400 
     91 CB         -7.3556  -26.0329  -49.9544 C.3       16 UNK        -0.1800 
     92 C          -7.0508  -23.4845  -50.1365 C.2       16 UNK         0.5000 
     93 O          -8.1467  -23.4338  -50.6984 O.2       16 UNK        -0.5000 
     94 N          -6.1697  -22.4725  -50.1190 N.am      17 UNK        -0.5000 
     95 CA         -6.1597  -21.2062  -50.8583 C.3       17 UNK         0.1400 
     96 CB         -7.3256  -20.3003  -50.4269 C.3       17 UNK        -0.1800 
     97 C          -6.1108  -21.3620  -52.3935 C.2       17 UNK         0.5000 
     98 O          -5.3168  -20.6834  -53.0463 O.2       17 UNK        -0.5000 
     99 N          -6.9584  -22.2413  -52.9378 N.am      18 UNK        -0.5000 
    100 CA        -7.2166  -22.4615  -54.3576 C.3       18 UNK         0.1400 
    101 CB        -8.3210  -23.5185  -54.5055 C.3       18 UNK        -0.1800 
    102 C         -5.9840  -22.8533  -55.1876 C.2       18 UNK         0.5000 
    103 O         -5.8180  -22.3216  -56.2856 O.2       18 UNK        -0.5000 
    104 N         -5.1285  -23.7443  -54.6625 N.am      19 UNK        -0.5000 
    105 CA        -3.9442  -24.2360  -55.3802 C.3       19 UNK         0.1400 
    106 CB        -3.3972  -25.4945  -54.6908 C.3       19 UNK        -0.1800 
    107 C         -2.8370  -23.1748  -55.5348 C.2       19 UNK         0.5000 
    108 O         -2.0218  -23.2798  -56.4517 O.2       19 UNK        -0.5000 
    109 N         -2.8422  -22.1687  -54.6520 N.am      20 UNK        -0.5000 
    110 CA        -1.9468  -21.0130  -54.6880 C.3       20 UNK         0.1400 
    111 CB        -1.5236  -20.6915  -53.2473 C.3       20 UNK        -0.1800 
    112 C         -2.6015  -19.7882  -55.3613 C.2       20 UNK         0.5000 
    113 O         -1.9295  -18.7715  -55.5364 O.2       20 UNK        -0.5000 
    114 N         -3.8902  -19.9038  -55.7222 N.am      21 UNK        -0.5000 
    115 CA        -4.7683  -18.8650  -56.2712 C.3       21 UNK         0.1400 
    116 CB        -4.2905  -18.4159  -57.6679 C.3       21 UNK        -0.1800 
    117 C         -4.9972  -17.6884  -55.2961 C.2       21 UNK         0.5000 
    118 O         -5.1535  -16.5457  -55.7312 O.2       21 UNK        -0.5000 
    119 N         -5.0234  -17.9935  -53.9929 N.am      22 UNK        -0.5000 
    120 CA        -5.2154  -17.0284  -52.8966 C.3       22 UNK         0.1400 
    121 C         -6.7081  -16.7871  -52.5262 C.2       22 UNK         0.5000 
    122 N         -7.6686  -17.4699  -53.1381 N.am      22 UNK        -0.7600 
    123 O         -7.0038  -15.9545  -51.6737 O.2       22 UNK        -0.5000 
    124 C124       -4.3817  -17.4110  -51.6450 C.3       23 UNK        -0.0398 
    125 S125       -2.5969  -17.4848  -52.0070 S.3       23 UNK        -0.2404 
    126 C126       -1.9159  -17.9361  -50.3824 C.3       23 UNK        -0.0205 
    127 H127        3.4019  -10.6608  -49.6448 H         1 UNK         0.0600 
    128 H128        4.1718  -10.2867  -51.1818 H         1 UNK         0.0600 
    129 H129        4.8211  -11.5802  -50.1827 H         1 UNK         0.0600 
    130 H130        1.9515  -13.8242  -51.0735 H         1 UNK         0.3000 
    131 H131        3.8685  -13.3082  -48.9401 H         1 UNK         0.0600 
    132 H132        1.6398  -15.3983  -49.1651 H         1 UNK         0.0800 
    133 H133        2.8049  -15.3009  -47.8774 H         1 UNK         0.0800 
    134 H134        2.4303  -15.8005  -51.7728 H         1 UNK         0.0800 
    135 H135        3.5895  -17.0728  -52.0241 H         1 UNK         0.0800 
    136 H136        0.2124  -16.3236  -50.8970 H         1 UNK         0.1150 
    137 H137       -0.8007  -20.4188  -50.1632 H         1 UNK         0.1150 
    138 H138        3.2711  -19.3316  -50.9287 H         1 UNK         0.1150 
    139 H139        0.8074  -22.1339  -50.3120 H         1 UNK         0.0800 
    140 H140        2.1601  -21.7889  -51.3482 H         1 UNK         0.0800 
    141 H141        1.4656  -20.2608  -47.7959 H         1 UNK         0.0800 
    142 H142        2.7513  -20.9477  -46.8675 H         1 UNK         0.0800 
    143 H143        1.4077  -23.2434  -47.1151 H         1 UNK         0.0600 
    144 H144        1.4135  -21.3074  -45.0674 H         1 UNK         0.3000 
    145 H145       -0.6422  -23.0879  -42.7276 H         1 UNK         0.0600 
    146 H146        1.6740  -24.0079  -42.5346 H         1 UNK         0.0600 
    147 H147        2.3427  -22.3998  -42.7830 H         1 UNK         0.0600 
    148 H148        1.3775  -22.7449  -41.3501 H         1 UNK         0.0600 
    149 H149        0.6565  -20.5758  -42.5149 H         1 UNK         0.3000 
    150 H150       -2.0011  -18.5760  -43.9080 H         1 UNK         0.0600 
    151 H151       -1.6237  -17.4554  -41.7205 H         1 UNK         0.0600 
    152 H152       -0.8040  -18.8875  -41.1037 H         1 UNK         0.0600 
    153 H153       -2.5159  -18.9545  -41.5032 H         1 UNK         0.0600 
    154 H154        0.5383  -17.7998  -42.9485 H         1 UNK         0.3000 
    155 H155        2.3945  -18.2265  -45.9917 H         1 UNK         0.0600 
    156 H156        1.2682  -16.0176  -46.1206 H         1 UNK         0.0600 
    157 H157        2.8742  -15.8447  -45.4240 H         1 UNK         0.0600 
    158 H158        1.4529  -15.7997  -44.3846 H         1 UNK         0.0600 
    159 H159        3.0395  -17.3677  -43.3107 H         1 UNK         0.3000 
    160 H160        4.1854  -20.5457  -42.1540 H         1 UNK         0.0600 
    161 H161        6.0565  -19.5963  -43.5121 H         1 UNK         0.0600 
    162 H162        6.2475  -19.2172  -41.8079 H         1 UNK         0.0600 
    163 H163        5.6778  -17.9800  -42.9284 H         1 UNK         0.0600 
    164 H164        4.1525  -17.9392  -40.9699 H         1 UNK         0.3000 
    165 H165        0.9252  -18.1663  -39.4791 H         1 UNK         0.0600 
    166 H166        2.2422  -17.8769  -37.4076 H         1 UNK         0.0600 
    167 H167        2.4108  -19.5235  -37.9933 H         1 UNK         0.0600 
    168 H168        3.7191  -18.3721  -38.2356 H         1 UNK         0.0600 
    169 H169        2.8736  -16.1862  -39.1461 H         1 UNK         0.3000 
    170 H170        2.4792  -14.1280  -39.9430 H         1 UNK         0.0600 
    171 H171        3.7039  -13.2362  -41.9460 H         1 UNK         0.0600 
    172 H172        4.3039  -14.8190  -41.4730 H         1 UNK         0.0600 
    173 H173        3.2436  -14.6653  -42.8674 H         1 UNK         0.0600 
    174 H174        1.1285  -13.4434  -42.4307 H         1 UNK         0.3000 
    175 H175       -2.0758  -12.9840  -41.0429 H         1 UNK         0.0600 
    176 H176       -0.1153  -10.6696  -41.5013 H         1 UNK         0.0600 
    177 H177       -1.8756  -10.5601  -41.5554 H         1 UNK         0.0600 
    178 H178       -1.0641  -10.9310  -40.0427 H         1 UNK         0.0600 
    179 H179       -0.7632  -12.0212  -43.4356 H         1 UNK         0.3000 
    180 H180       -0.7070  -14.9275  -45.2454 H         1 UNK         0.0600 
    181 H181       -2.3784  -14.1226  -46.8737 H         1 UNK         0.0600 
    182 H182       -3.0601  -13.0206  -45.6757 H         1 UNK         0.0600 
    183 H183       -3.1887  -14.7618  -45.4542 H         1 UNK         0.0600 
    184 H184       -0.7034  -12.4381  -46.4102 H         1 UNK         0.3000 
    185 H185        0.9451  -10.9250  -46.5446 H         1 UNK         0.0600 
    186 H186        3.4222  -11.3641  -44.7880 H         1 UNK         0.0600 
    187 H187        3.1233   -9.9883  -45.8482 H         1 UNK         0.0600 
    188 H188        2.1088  -10.2477  -44.4376 H         1 UNK         0.0600 
    189 H189        3.3997  -12.4714  -46.9278 H         1 UNK         0.3000 
    190 H190       -0.8014  -20.4598  -46.5687 H         1 UNK         0.3000 
    191 H191       -2.5601  -20.9296  -48.7202 H         1 UNK         0.0600 
    192 H192       -3.1347  -19.6240  -46.0094 H         1 UNK         0.0600 
    193 H193       -4.1051  -19.4466  -47.4665 H         1 UNK         0.0600 
    194 H194       -2.4676  -18.8072  -47.4184 H         1 UNK         0.0600 
    195 H195       -2.7099  -22.1641  -45.3448 H         1 UNK         0.3000 
    196 H196       -5.1259  -23.6143  -45.6090 H         1 UNK         0.0600 
    197 H197       -4.3350  -24.8035  -43.5599 H         1 UNK         0.0600 
    198 H198       -4.1133  -23.0660  -43.4206 H         1 UNK         0.0600 
    199 H199       -2.7325  -24.1060  -43.7606 H         1 UNK         0.0600 
    200 H200       -1.7194  -24.6779  -46.1182 H         1 UNK         0.3000 
    201 H201       -2.2947  -27.3750  -46.7871 H         1 UNK         0.0600 
    202 H202       -0.0433  -26.6001  -46.1180 H         1 UNK         0.0600 
    203 H203        0.0807  -25.5999  -47.5633 H         1 UNK         0.0600 
    204 H204        0.0347  -27.3537  -47.7035 H         1 UNK         0.0600 
    205 H205       -2.0319  -24.4551  -48.8283 H         1 UNK         0.3000 
    206 H206       -2.5118  -25.8053  -51.3394 H         1 UNK         0.0600 
    207 H207       -2.6829  -23.4435  -52.1728 H         1 UNK         0.0600 
    208 H208       -2.6801  -22.8510  -50.5199 H         1 UNK         0.0600 
    209 H209       -1.2583  -23.6631  -51.1714 H         1 UNK         0.0600 
    210 H210       -4.5964  -25.0062  -48.7770 H         1 UNK         0.3000 
    211 H211       -6.7478  -24.6811  -48.4011 H         1 UNK         0.0600 
    212 H212       -7.2677  -26.1724  -51.0324 H         1 UNK         0.0600 
    213 H213       -8.4169  -25.9401  -49.7215 H         1 UNK         0.0600 
    214 H214       -6.9953  -26.9396  -49.4683 H         1 UNK         0.0600 
    215 H215       -5.3411  -22.6266  -49.5473 H         1 UNK         0.3000 
    216 H216       -5.2325  -20.7103  -50.5675 H         1 UNK         0.0600 
    217 H217       -7.2577  -19.3238  -50.9059 H         1 UNK         0.0600 
    218 H218       -7.3158  -20.1342  -49.3497 H         1 UNK         0.0600 
    219 H219       -8.2937  -20.7261  -50.6918 H         1 UNK         0.0600 
    220 H220       -7.5448  -22.7605  -52.2885 H         1 UNK         0.3000 
    221 H221       -7.5935  -21.5201  -54.7624 H         1 UNK         0.0600 
    222 H222       -8.0249  -24.4716  -54.0649 H         1 UNK         0.0600 
    223 H223       -9.2417  -23.1971  -54.0180 H         1 UNK         0.0600 
    224 H224       -8.5552  -23.6984  -55.5556 H         1 UNK         0.0600 
    225 H225       -5.3003  -24.1294  -53.7380 H         1 UNK         0.3000 
    226 H226       -4.2602  -24.5226  -56.3857 H         1 UNK         0.0600 
    227 H227       -4.1765  -26.2447  -54.5554 H         1 UNK         0.0600 
    228 H228       -2.6063  -25.9503  -55.2876 H         1 UNK         0.0600 
    229 H229       -2.9739  -25.2677  -53.7139 H         1 UNK         0.0600 
    230 H230       -3.5709  -22.1474  -53.9515 H         1 UNK         0.3000 
    231 H231       -1.0460  -21.2504  -55.2575 H         1 UNK         0.0600 
    232 H232       -0.9760  -21.5220  -52.8024 H         1 UNK         0.0600 
    233 H233       -0.8664  -19.8215  -53.2171 H         1 UNK         0.0600 
    234 H234       -2.3844  -20.4777  -52.6127 H         1 UNK         0.0600 
    235 H235       -4.3409  -20.7941  -55.5569 H         1 UNK         0.3000 
    236 H236       -5.7428  -19.3385  -56.3987 H         1 UNK         0.0600 
    237 H237       -3.3505  -17.8658  -57.6188 H         1 UNK         0.0600 
    238 H238       -4.1457  -19.2710  -58.3281 H         1 UNK         0.0600 
    239 H239       -5.0252  -17.7634  -58.1408 H         1 UNK         0.0600 
    240 H240       -4.9260  -18.9668  -53.7156 H         1 UNK         0.3000 
    241 H241       -4.8478  -16.0572  -53.2330 H         1 UNK         0.0600 
    242 H242       -8.6317  -17.2963  -52.8973 H         1 UNK         0.3800 
    243 H243       -7.4414  -18.1448  -53.8495 H         1 UNK         0.3800 
    244 H244       -4.5301  -16.6849  -50.8437 H         1 UNK         0.0800 
    245 H245       -4.7027  -18.3773  -51.2546 H         1 UNK         0.0800 
    246 H246       -2.4973  -18.7602  -49.9683 H         1 UNK         0.0800 
    247 H247       -2.0225  -17.0974  -49.6930 H         1 UNK         0.0800 
@<TRIPOS>BOND
     1    1    2 1    
     2    1  127 1    
     3    1  128 1    
     4    1  129 1    
     5    2    3 2    
     6    2    4 am   BACKBONE|DICT|INTERRES
     7    4    5 1    
     8    4  130 1    
     9    5    6 1    
    10    5   65 1    
    11    5  131 1    
    12    6    7 1    
    13    6  132 1    
    14    6  133 1    
    15    7    8 1    
    16    8    9 1    
    17    8  134 1    
    18    8  135 1    
    19    9   10 ar   
    20    9   14 ar   
    21   10   11 ar   
    22   10  136 1    
    23   11   12 ar   
    24   11  126 1    
    25   12   13 ar   
    26   12  137 1    
    27   13   14 ar   
    28   13   15 1    
    29   14  138 1    
    30   15   16 1    
    31   15  139 1    
    32   15  140 1    
    33   16   17 1    
    34   17   18 1    
    35   17  141 1    
    36   17  142 1    
    37   18   19 1    
    38   18   67 1    
    39   18  143 1    
    40   19   20 am   BACKBONE|DICT|INTERRES
    41   19  144 1    
    42   20   21 2    
    43   20   22 1    
    44   22   23 1    
    45   22   24 1    
    46   22  145 1    
    47   23  146 1    
    48   23  147 1    
    49   23  148 1    
    50   24   25 am   BACKBONE|DICT|INTERRES
    51   24  149 1    
    52   25   26 2    
    53   25   27 1    
    54   27   28 1    
    55   27   29 1    
    56   27  150 1    
    57   28  151 1    
    58   28  152 1    
    59   28  153 1    
    60   29   30 am   BACKBONE|DICT|INTERRES
    61   29  154 1    
    62   30   31 2    
    63   30   32 1    
    64   32   33 1    
    65   32   34 1    
    66   32  155 1    
    67   33  156 1    
    68   33  157 1    
    69   33  158 1    
    70   34   35 am   BACKBONE|DICT|INTERRES
    71   34  159 1    
    72   35   36 2    
    73   35   37 1    
    74   37   38 1    
    75   37   39 1    
    76   37  160 1    
    77   38  161 1    
    78   38  162 1    
    79   38  163 1    
    80   39   40 am   BACKBONE|DICT|INTERRES
    81   39  164 1    
    82   40   41 2    
    83   40   42 1    
    84   42   43 1    
    85   42   44 1    
    86   42  165 1    
    87   43  166 1    
    88   43  167 1    
    89   43  168 1    
    90   44   45 am   BACKBONE|DICT|INTERRES
    91   44  169 1    
    92   45   46 2    
    93   45   47 1    
    94   47   48 1    
    95   47   49 1    
    96   47  170 1    
    97   48  171 1    
    98   48  172 1    
    99   48  173 1    
   100   49   50 am   BACKBONE|DICT|INTERRES
   101   49  174 1    
   102   50   51 2    
   103   50   52 1    
   104   52   53 1    
   105   52   54 1    
   106   52  175 1    
   107   53  176 1    
   108   53  177 1    
   109   53  178 1    
   110   54   55 am   BACKBONE|DICT|INTERRES
   111   54  179 1    
   112   55   56 2    
   113   55   57 1    
   114   57   58 1    
   115   57   59 1    
   116   57  180 1    
   117   58  181 1    
   118   58  182 1    
   119   58  183 1    
   120   59   60 am   BACKBONE|DICT|INTERRES
   121   59  184 1    
   122   60   61 2    
   123   60   62 1    
   124   62   63 1    
   125   62   64 1    
   126   62  185 1    
   127   63  186 1    
   128   63  187 1    
   129   63  188 1    
   130   64   65 am   BACKBONE|DICT|INTERRES
   131   64  189 1    
   132   65   66 2    
   133   67   68 2    
   134   67   69 am   BACKBONE|DICT|INTERRES
   135   69   70 1    
   136   69  190 1    
   137   70   71 1    
   138   70   72 1    
   139   70  191 1    
   140   71  192 1    
   141   71  193 1    
   142   71  194 1    
   143   72   73 2    
   144   72   74 am   BACKBONE|DICT|INTERRES
   145   74   75 1    
   146   74  195 1    
   147   75   76 1    
   148   75   77 1    
   149   75  196 1    
   150   76  197 1    
   151   76  198 1    
   152   76  199 1    
   153   77   78 2    
   154   77   79 am   BACKBONE|DICT|INTERRES
   155   79   80 1    
   156   79  200 1    
   157   80   81 1    
   158   80   82 1    
   159   80  201 1    
   160   81  202 1    
   161   81  203 1    
   162   81  204 1    
   163   82   83 2    
   164   82   84 am   BACKBONE|DICT|INTERRES
   165   84   85 1    
   166   84  205 1    
   167   85   86 1    
   168   85   87 1    
   169   85  206 1    
   170   86  207 1    
   171   86  208 1    
   172   86  209 1    
   173   87   88 2    
   174   87   89 am   BACKBONE|DICT|INTERRES
   175   89   90 1    
   176   89  210 1    
   177   90   91 1    
   178   90   92 1    
   179   90  211 1    
   180   91  212 1    
   181   91  213 1    
   182   91  214 1    
   183   92   93 2    
   184   92   94 am   BACKBONE|DICT|INTERRES
   185   94   95 1    
   186   94  215 1    
   187   95   96 1    
   188   95   97 1    
   189   95  216 1    
   190   96  217 1    
   191   96  218 1    
   192   96  219 1    
   193   97   98 2    
   194   97   99 am   BACKBONE|DICT|INTERRES
   195   99  100 1    
   196   99  220 1    
   197  100  101 1    
   198  100  102 1    
   199  100  221 1    
   200  101  222 1    
   201  101  223 1    
   202  101  224 1    
   203  102  103 2    
   204  102  104 am   BACKBONE|DICT|INTERRES
   205  104  105 1    
   206  104  225 1    
   207  105  106 1    
   208  105  107 1    
   209  105  226 1    
   210  106  227 1    
   211  106  228 1    
   212  106  229 1    
   213  107  108 2    
   214  107  109 am   BACKBONE|DICT|INTERRES
   215  109  110 1    
   216  109  230 1    
   217  110  111 1    
   218  110  112 1    
   219  110  231 1    
   220  111  232 1    
   221  111  233 1    
   222  111  234 1    
   223  112  113 2    
   224  112  114 am   BACKBONE|DICT|INTERRES
   225  114  115 1    
   226  114  235 1    
   227  115  116 1    
   228  115  117 1    
   229  115  236 1    
   230  116  237 1    
   231  116  238 1    
   232  116  239 1    
   233  117  118 2    
   234  117  119 am   BACKBONE|DICT|INTERRES
   235  119  120 1    
   236  119  240 1    
   237  120  121 1    
   238  120  124 1    
   239  120  241 1    
   240  121  122 am   BACKBONE|DICT|INTERRES
   241  121  123 2    
   242  122  242 1    
   243  122  243 1    
   244  124  125 1    
   245  124  244 1    
   246  124  245 1    
   247  125  126 1    
   248  126  246 1    
   249  126  247 1    
@<TRIPOS>SUBSTRUCTURE
     1 UNK         1 GROUP             0       ****    0 ROOT    
