@<TRIPOS>MOLECULE
3R540
247   249    1
SMALL
USER_CHARGES


@<TRIPOS>ATOM
      1 CA         -5.1360  -11.4113  -45.4159 C.3       0 UNK        -0.1800 
      2 C          -3.8893  -12.2530  -45.1882 C.2       0 UNK         0.5000 
      3 O          -3.1631  -12.0204  -44.2219 O.2       0 UNK        -0.5000 
      4 N          -3.6487  -13.2406  -46.0626 N.am      1 UNK        -0.5000 
      5 CA         -2.4809  -14.1362  -46.0541 C.3       1 UNK         0.1400 
      6 C6         -2.4839  -15.1053  -47.2608 C.3       23 UNK        -0.0398 
      7 S7         -2.3815  -14.2171  -48.8508 S.3       23 UNK        -0.2404 
      8 C8         -2.9686  -15.4854  -50.0162 C.3       23 UNK        -0.0205 
      9 C9         -1.8457  -16.3893  -50.5055 C.ar      23 UNK        -0.0193 
     10 C10        -1.2125  -16.1213  -51.7225 C.ar      23 UNK        -0.1150 
     11 C11        -0.2282  -16.9812  -52.2168 C.ar      23 UNK        -0.0193 
     12 C12         0.1185  -18.1212  -51.4846 C.ar      23 UNK        -0.1150 
     13 C13        -0.4931  -18.3939  -50.2567 C.ar      23 UNK        -0.0193 
     14 C14        -1.4654  -17.5139  -49.7676 C.ar      23 UNK        -0.1150 
     15 C15        -0.0893  -19.6335  -49.4669 C.3       23 UNK        -0.0205 
     16 S16        -1.3027  -20.9815  -49.6168 S.3       23 UNK        -0.2404 
     17 C17        -2.4744  -20.6032  -48.2722 C.3       23 UNK        -0.0398 
     18 CA         -2.3854  -21.6577  -47.1479 C.3       11 UNK         0.1400 
     19 N          -1.1987  -21.4701  -46.3081 N.am      11 UNK        -0.5000 
     20 C          -0.7415  -22.3673  -45.4239 C.2       10 UNK         0.5000 
     21 O          -1.2753  -23.4593  -45.2327 O.2       10 UNK        -0.5000 
     22 CA          0.4716  -21.9611  -44.5655 C.3       10 UNK         0.1400 
     23 CB          1.7709  -22.4210  -45.2427 C.3       10 UNK        -0.1800 
     24 N           0.5560  -20.5256  -44.2804 N.am      10 UNK        -0.5000 
     25 C          -0.4058  -19.7790  -43.7169 C.2       9 UNK         0.5000 
     26 O          -1.4914  -20.2296  -43.3519 O.2       9 UNK        -0.5000 
     27 CA         -0.1405  -18.2690  -43.5902 C.3       9 UNK         0.1400 
     28 CB          0.4283  -17.9197  -42.2089 C.3       9 UNK        -0.1800 
     29 N           0.7437  -17.7461  -44.6299 N.am      9 UNK        -0.5000 
     30 C           0.4334  -17.6796  -45.9311 C.2       8 UNK         0.5000 
     31 O          -0.6346  -18.0799  -46.3943 O.2       8 UNK        -0.5000 
     32 CA          1.5118  -17.1107  -46.8706 C.3       8 UNK         0.1400 
     33 CB          1.4964  -15.5751  -46.8801 C.3       8 UNK        -0.1800 
     34 N           2.8405  -17.5682  -46.4717 N.am      8 UNK        -0.5000 
     35 C           3.3834  -18.7368  -46.8351 C.2       7 UNK         0.5000 
     36 O           2.8465  -19.5287  -47.6092 O.2       7 UNK        -0.5000 
     37 CA          4.7543  -19.0873  -46.2225 C.3       7 UNK         0.1400 
     38 CB          5.8901  -18.6015  -47.1354 C.3       7 UNK        -0.1800 
     39 N           4.9521  -18.5361  -44.8792 N.am      7 UNK        -0.5000 
     40 C           4.2774  -18.9328  -43.7916 C.2       6 UNK         0.5000 
     41 O           3.4170  -19.8121  -43.8056 O.2       6 UNK        -0.5000 
     42 CA          4.5812  -18.1930  -42.4735 C.3       6 UNK         0.1400 
     43 CB          5.7936  -18.8251  -41.7737 C.3       6 UNK        -0.1800 
     44 N           4.7986  -16.7463  -42.6037 N.am      6 UNK        -0.5000 
     45 C           3.9707  -15.8805  -43.2044 C.2       5 UNK         0.5000 
     46 O           2.9795  -16.2214  -43.8506 O.2       5 UNK        -0.5000 
     47 CA          4.3401  -14.3883  -43.1016 C.3       5 UNK         0.1400 
     48 CB          5.4195  -14.0393  -44.1384 C.3       5 UNK        -0.1800 
     49 N           3.1908  -13.5032  -43.3120 N.am      5 UNK        -0.5000 
     50 C           2.0950  -13.4454  -42.5417 C.2       4 UNK         0.5000 
     51 O           1.9603  -14.1003  -41.5044 O.2       4 UNK        -0.5000 
     52 CA          0.9897  -12.4643  -42.9924 C.3       4 UNK         0.1400 
     53 CB          0.8393  -12.3764  -44.5235 C.3       4 UNK        -0.1800 
     54 N          -0.3071  -12.8241  -42.4211 N.am      4 UNK        -0.5000 
     55 C          -0.7939  -12.3605  -41.2619 C.2       3 UNK         0.5000 
     56 O          -0.1903  -11.5578  -40.5473 O.2       3 UNK        -0.5000 
     57 CA         -2.1916  -12.8449  -40.8229 C.3       3 UNK         0.1400 
     58 CB         -3.1502  -11.6551  -40.6434 C.3       3 UNK        -0.1800 
     59 N          -2.7899  -13.7727  -41.7833 N.am      3 UNK        -0.5000 
     60 C          -2.8718  -15.1011  -41.6268 C.2       2 UNK         0.5000 
     61 O          -2.4679  -15.6981  -40.6288 O.2       2 UNK        -0.5000 
     62 CA         -3.5125  -15.9101  -42.7759 C.3       2 UNK         0.1400 
     63 CB         -4.9813  -16.2244  -42.4539 C.3       2 UNK        -0.1800 
     64 N          -3.4483  -15.2555  -44.0858 N.am      2 UNK        -0.5000 
     65 C          -2.3231  -14.9183  -44.7330 C.2       1 UNK         0.5000 
     66 O          -1.1963  -15.1402  -44.2951 O.2       1 UNK        -0.5000 
     67 C          -3.7016  -21.7206  -46.3461 C.2       11 UNK         0.5000 
     68 O          -4.6687  -22.2826  -46.8607 O.2       11 UNK        -0.5000 
     69 N          -3.7308  -21.1966  -45.1112 N.am      12 UNK        -0.5000 
     70 CA         -4.8791  -21.3330  -44.2120 C.3       12 UNK         0.1400 
     71 CB         -4.7702  -20.3100  -43.0708 C.3       12 UNK        -0.1800 
     72 C          -5.0094  -22.7648  -43.6558 C.2       12 UNK         0.5000 
     73 O          -6.1281  -23.2292  -43.4365 O.2       12 UNK        -0.5000 
     74 N          -3.8696  -23.4433  -43.4615 N.am      13 UNK        -0.5000 
     75 CA         -3.7971  -24.8343  -43.0165 C.3       13 UNK         0.1400 
     76 CB         -2.4772  -25.0578  -42.2615 C.3       13 UNK        -0.1800 
     77 C          -3.9221  -25.8120  -44.1975 C.2       13 UNK         0.5000 
     78 O          -4.6298  -26.8133  -44.0867 O.2       13 UNK        -0.5000 
     79 N          -3.2428  -25.4990  -45.3101 N.am      14 UNK        -0.5000 
     80 CA         -3.2005  -26.3145  -46.5272 C.3       14 UNK         0.1400 
     81 CB         -1.9437  -25.9419  -47.3293 C.3       14 UNK        -0.1800 
     82 C          -4.4636  -26.2009  -47.4061 C.2       14 UNK         0.5000 
     83 O          -4.5869  -26.9594  -48.3675 O.2       14 UNK        -0.5000 
     84 N          -5.3654  -25.2666  -47.0710 N.am      15 UNK        -0.5000 
     85 CA         -6.6389  -24.9723  -47.7344 C.3       15 UNK         0.1400 
     86 CB         -7.6024  -26.1754  -47.6515 C.3       15 UNK        -0.1800 
     87 C          -6.4413  -24.4408  -49.1680 C.2       15 UNK         0.5000 
     88 O          -6.9488  -25.0218  -50.1290 O.2       15 UNK        -0.5000 
     89 N          -5.6998  -23.3279  -49.2646 N.am      16 UNK        -0.5000 
     90 CA         -5.4350  -22.5328  -50.4708 C.3       16 UNK         0.1400 
     91 CB         -6.7452  -21.9329  -51.0266 C.3       16 UNK        -0.1800 
     92 C          -4.6082  -23.2652  -51.5491 C.2       16 UNK         0.5000 
     93 O          -4.7305  -22.9432  -52.7316 O.2       16 UNK        -0.5000 
     94 N          -3.7711  -24.2224  -51.1218 N.am      17 UNK        -0.5000 
     95 CA         -2.9788  -25.1075  -51.9800 C.3       17 UNK         0.1400 
     96 CB         -2.1805  -26.0873  -51.1067 C.3       17 UNK        -0.1800 
     97 C          -2.0509  -24.3685  -52.9617 C.2       17 UNK         0.5000 
     98 O          -2.1246  -24.6159  -54.1660 O.2       17 UNK        -0.5000 
     99 N          -1.2133  -23.4636  -52.4358 N.am      18 UNK        -0.5000 
    100 CA        -0.3300  -22.6238  -53.2483 C.3       18 UNK         0.1400 
    101 CB         0.9266  -22.2507  -52.4488 C.3       18 UNK        -0.1800 
    102 C         -1.0484  -21.3660  -53.7640 C.2       18 UNK         0.5000 
    103 O         -0.7349  -20.9090  -54.8626 O.2       18 UNK        -0.5000 
    104 N         -2.0175  -20.8532  -52.9891 N.am      19 UNK        -0.5000 
    105 CA        -2.8039  -19.6472  -53.2781 C.3       19 UNK         0.1400 
    106 CB        -3.7363  -19.3480  -52.0957 C.3       19 UNK        -0.1800 
    107 C         -3.6158  -19.7169  -54.5853 C.2       19 UNK         0.5000 
    108 O         -3.9177  -18.6789  -55.1742 O.2       19 UNK        -0.5000 
    109 N         -3.9394  -20.9394  -55.0237 N.am      20 UNK        -0.5000 
    110 CA        -4.5997  -21.2373  -56.2917 C.3       20 UNK         0.1400 
    111 CB        -5.0349  -22.7111  -56.2750 C.3       20 UNK        -0.1800 
    112 C         -3.7389  -20.9442  -57.5404 C.2       20 UNK         0.5000 
    113 O         -4.3001  -20.8771  -58.6353 O.2       20 UNK        -0.5000 
    114 N         -2.4155  -20.7944  -57.3777 N.am      21 UNK        -0.5000 
    115 CA        -1.4679  -20.5780  -58.4718 C.3       21 UNK         0.1400 
    116 CB        -0.6636  -21.8677  -58.7075 C.3       21 UNK        -0.1800 
    117 C         -0.5324  -19.3882  -58.2059 C.2       21 UNK         0.5000 
    118 O         -0.4000  -18.5236  -59.0740 O.2       21 UNK        -0.5000 
    119 N          0.1028  -19.3680  -57.0268 N.am      22 UNK        -0.5000 
    120 CA         1.1565  -18.4229  -56.6146 C.3       22 UNK         0.1400 
    121 C          2.4158  -18.4455  -57.5418 C.2       22 UNK         0.5000 
    122 N          3.2555  -17.4174  -57.5320 N.am      22 UNK        -0.7600 
    123 O          2.6827  -19.4236  -58.2377 O.2       22 UNK        -0.5000 
    124 C124        0.6027  -16.9982  -56.3195 C.3       23 UNK        -0.0398 
    125 S125       -0.6153  -17.0125  -54.9628 S.3       23 UNK        -0.2404 
    126 C126        0.4641  -16.6744  -53.5364 C.3       23 UNK        -0.0205 
    127 H127       -5.7988  -11.4829  -44.5536 H         1 UNK         0.0600 
    128 H128       -5.6884  -11.7344  -46.2985 H         1 UNK         0.0600 
    129 H129       -4.8614  -10.3651  -45.5501 H         1 UNK         0.0600 
    130 H130       -4.2799  -13.3665  -46.8412 H         1 UNK         0.3000 
    131 H131       -1.5982  -13.4992  -46.1400 H         1 UNK         0.0600 
    132 H132       -1.6426  -15.7946  -47.2122 H         1 UNK         0.0800 
    133 H133       -3.3832  -15.7232  -47.2458 H         1 UNK         0.0800 
    134 H134       -3.4291  -14.9813  -50.8673 H         1 UNK         0.0800 
    135 H135       -3.7614  -16.0820  -49.5628 H         1 UNK         0.0800 
    136 H136       -1.4949  -15.2493  -52.2957 H         1 UNK         0.1150 
    137 H137        0.8701  -18.7961  -51.8693 H         1 UNK         0.1150 
    138 H138       -1.9431  -17.7059  -48.8201 H         1 UNK         0.1150 
    139 H139        0.0613  -19.3921  -48.4184 H         1 UNK         0.0800 
    140 H140        0.8772  -19.9980  -49.8172 H         1 UNK         0.0800 
    141 H141       -3.4684  -20.5698  -48.7179 H         1 UNK         0.0800 
    142 H142       -2.3024  -19.6094  -47.8635 H         1 UNK         0.0800 
    143 H143       -2.2928  -22.6377  -47.6185 H         1 UNK         0.0600 
    144 H144       -0.7283  -20.5782  -46.3811 H         1 UNK         0.3000 
    145 H145        0.3795  -22.4793  -43.6092 H         1 UNK         0.0600 
    146 H146        2.6306  -22.2730  -44.5896 H         1 UNK         0.0600 
    147 H147        1.7320  -23.4834  -45.4873 H         1 UNK         0.0600 
    148 H148        1.9551  -21.8759  -46.1695 H         1 UNK         0.0600 
    149 H149        1.4463  -20.0820  -44.4770 H         1 UNK         0.3000 
    150 H150       -1.1009  -17.7669  -43.6994 H         1 UNK         0.0600 
    151 H151        1.3838  -18.4128  -42.0343 H         1 UNK         0.0600 
    152 H152       -0.2540  -18.2300  -41.4166 H         1 UNK         0.0600 
    153 H153        0.5786  -16.8441  -42.1061 H         1 UNK         0.0600 
    154 H154        1.6166  -17.3257  -44.3191 H         1 UNK         0.3000 
    155 H155        1.2999  -17.4504  -47.8858 H         1 UNK         0.0600 
    156 H156        1.6810  -15.1676  -45.8872 H         1 UNK         0.0600 
    157 H157        0.5382  -15.1883  -47.2229 H         1 UNK         0.0600 
    158 H158        2.2599  -15.1791  -47.5496 H         1 UNK         0.0600 
    159 H159        3.3072  -17.0142  -45.7643 H         1 UNK         0.3000 
    160 H160        4.8135  -20.1757  -46.1535 H         1 UNK         0.0600 
    161 H161        5.8975  -17.5145  -47.2252 H         1 UNK         0.0600 
    162 H162        5.7863  -19.0133  -48.1403 H         1 UNK         0.0600 
    163 H163        6.8629  -18.9149  -46.7562 H         1 UNK         0.0600 
    164 H164        5.6337  -17.7981  -44.7814 H         1 UNK         0.3000 
    165 H165        3.7156  -18.3261  -41.8231 H         1 UNK         0.0600 
    166 H166        5.9454  -18.3975  -40.7825 H         1 UNK         0.0600 
    167 H167        6.7102  -18.6799  -42.3468 H         1 UNK         0.0600 
    168 H168        5.6543  -19.8993  -41.6435 H         1 UNK         0.0600 
    169 H169        5.6069  -16.3799  -42.1218 H         1 UNK         0.3000 
    170 H170        4.7327  -14.1985  -42.1007 H         1 UNK         0.0600 
    171 H171        6.3143  -14.6469  -43.9973 H         1 UNK         0.0600 
    172 H172        5.0669  -14.2068  -45.1572 H         1 UNK         0.0600 
    173 H173        5.7237  -12.9957  -44.0558 H         1 UNK         0.0600 
    174 H174        3.2115  -12.9468  -44.1531 H         1 UNK         0.3000 
    175 H175        1.2805  -11.4744  -42.6355 H         1 UNK         0.0600 
    176 H176        0.6525  -13.3539  -44.9642 H         1 UNK         0.0600 
    177 H177        0.0066  -11.7278  -44.7974 H         1 UNK         0.0600 
    178 H178        1.7307  -11.9619  -44.9947 H         1 UNK         0.0600 
    179 H179       -0.8242  -13.5409  -42.9154 H         1 UNK         0.3000 
    180 H180       -2.0710  -13.3287  -39.8517 H         1 UNK         0.0600 
    181 H181       -3.2822  -11.1017  -41.5740 H         1 UNK         0.0600 
    182 H182       -2.7748  -10.9556  -39.8955 H         1 UNK         0.0600 
    183 H183       -4.1329  -11.9881  -40.3093 H         1 UNK         0.0600 
    184 H184       -3.1071  -13.3555  -42.6525 H         1 UNK         0.3000 
    185 H185       -2.9763  -16.8567  -42.8466 H         1 UNK         0.0600 
    186 H186       -5.4281  -16.8585  -43.2198 H         1 UNK         0.0600 
    187 H187       -5.0685  -16.7549  -41.5047 H         1 UNK         0.0600 
    188 H188       -5.5794  -15.3153  -42.3784 H         1 UNK         0.0600 
    189 H189       -4.3313  -15.0021  -44.5048 H         1 UNK         0.3000 
    190 H190       -2.8958  -20.7724  -44.7199 H         1 UNK         0.3000 
    191 H191       -5.7870  -21.1086  -44.7763 H         1 UNK         0.0600 
    192 H192       -5.6748  -20.3118  -42.4615 H         1 UNK         0.0600 
    193 H193       -4.6381  -19.2990  -43.4560 H         1 UNK         0.0600 
    194 H194       -3.9326  -20.5294  -42.4083 H         1 UNK         0.0600 
    195 H195       -2.9942  -22.9991  -43.7021 H         1 UNK         0.3000 
    196 H196       -4.6172  -25.0350  -42.3236 H         1 UNK         0.0600 
    197 H197       -1.6091  -24.8706  -42.8945 H         1 UNK         0.0600 
    198 H198       -2.4053  -24.4023  -41.3935 H         1 UNK         0.0600 
    199 H199       -2.4043  -26.0844  -41.9004 H         1 UNK         0.0600 
    200 H200       -2.6298  -24.6866  -45.2937 H         1 UNK         0.3000 
    201 H201       -3.1089  -27.3616  -46.2315 H         1 UNK         0.0600 
    202 H202       -2.0050  -24.9318  -47.7322 H         1 UNK         0.0600 
    203 H203       -1.8023  -26.6241  -48.1677 H         1 UNK         0.0600 
    204 H204       -1.0472  -26.0025  -46.7118 H         1 UNK         0.0600 
    205 H205       -5.1344  -24.6633  -46.2942 H         1 UNK         0.3000 
    206 H206       -7.0931  -24.1580  -47.1676 H         1 UNK         0.0600 
    207 H207       -7.7388  -26.4993  -46.6197 H         1 UNK         0.0600 
    208 H208       -8.5859  -25.9116  -48.0419 H         1 UNK         0.0600 
    209 H209       -7.2438  -27.0295  -48.2263 H         1 UNK         0.0600 
    210 H210       -5.3277  -22.9441  -48.3966 H         1 UNK         0.3000 
    211 H211       -4.8146  -21.6994  -50.1466 H         1 UNK         0.0600 
    212 H212       -6.5516  -21.2340  -51.8405 H         1 UNK         0.0600 
    213 H213       -7.2853  -21.3850  -50.2547 H         1 UNK         0.0600 
    214 H214       -7.4094  -22.7036  -51.4182 H         1 UNK         0.0600 
    215 H215       -3.7608  -24.4276  -50.1343 H         1 UNK         0.3000 
    216 H216       -3.6844  -25.6895  -52.5765 H         1 UNK         0.0600 
    217 H217       -1.5029  -25.5665  -50.4294 H         1 UNK         0.0600 
    218 H218       -1.5789  -26.7586  -51.7211 H         1 UNK         0.0600 
    219 H219       -2.8447  -26.7094  -50.5071 H         1 UNK         0.0600 
    220 H220       -1.2055  -23.3162  -51.4369 H         1 UNK         0.3000 
    221 H221        0.0008  -23.1905  -54.1216 H         1 UNK         0.0600 
    222 H222        1.4647  -23.1408  -52.1229 H         1 UNK         0.0600 
    223 H223        0.6895  -21.6612  -51.5661 H         1 UNK         0.0600 
    224 H224        1.6128  -21.6610  -53.0580 H         1 UNK         0.0600 
    225 H225       -2.1963  -21.2980  -52.1021 H         1 UNK         0.3000 
    226 H226       -2.1026  -18.8201  -53.3694 H         1 UNK         0.0600 
    227 H227       -4.4904  -20.1232  -51.9784 H         1 UNK         0.0600 
    228 H228       -3.1863  -19.2673  -51.1605 H         1 UNK         0.0600 
    229 H229       -4.2584  -18.4018  -52.2432 H         1 UNK         0.0600 
    230 H230       -3.7114  -21.7319  -54.4365 H         1 UNK         0.3000 
    231 H231       -5.4949  -20.6161  -56.3602 H         1 UNK         0.0600 
    232 H232       -4.1790  -23.3802  -56.1743 H         1 UNK         0.0600 
    233 H233       -5.5569  -22.9787  -57.1945 H         1 UNK         0.0600 
    234 H234       -5.7146  -22.9119  -55.4464 H         1 UNK         0.0600 
    235 H235       -2.0280  -20.8267  -56.4410 H         1 UNK         0.3000 
    236 H236       -2.0013  -20.3483  -59.3966 H         1 UNK         0.0600 
    237 H237       -1.3159  -22.6869  -59.0102 H         1 UNK         0.0600 
    238 H238        0.0749  -21.7295  -59.4982 H         1 UNK         0.0600 
    239 H239       -0.1299  -22.1801  -57.8090 H         1 UNK         0.0600 
    240 H240       -0.1066  -20.0899  -56.3418 H         1 UNK         0.3000 
    241 H241        1.5277  -18.8244  -55.6712 H         1 UNK         0.0600 
    242 H242        4.0748  -17.4573  -58.1188 H         1 UNK         0.3800 
    243 H243        3.1031  -16.6038  -56.9579 H         1 UNK         0.3800 
    244 H244        0.1315  -16.5788  -57.2093 H         1 UNK         0.0800 
    245 H245        1.3967  -16.3042  -56.0437 H         1 UNK         0.0800 
    246 H246        0.7700  -15.6273  -53.5547 H         1 UNK         0.0800 
    247 H247        1.3776  -17.2644  -53.6241 H         1 UNK         0.0800 
@<TRIPOS>BOND
     1    1    2 1    
     2    1  127 1    
     3    1  128 1    
     4    1  129 1    
     5    2    3 2    
     6    2    4 am   BACKBONE|DICT|INTERRES
     7    4    5 1    
     8    4  130 1    
     9    5    6 1    
    10    5   65 1    
    11    5  131 1    
    12    6    7 1    
    13    6  132 1    
    14    6  133 1    
    15    7    8 1    
    16    8    9 1    
    17    8  134 1    
    18    8  135 1    
    19    9   10 ar   
    20    9   14 ar   
    21   10   11 ar   
    22   10  136 1    
    23   11   12 ar   
    24   11  126 1    
    25   12   13 ar   
    26   12  137 1    
    27   13   14 ar   
    28   13   15 1    
    29   14  138 1    
    30   15   16 1    
    31   15  139 1    
    32   15  140 1    
    33   16   17 1    
    34   17   18 1    
    35   17  141 1    
    36   17  142 1    
    37   18   19 1    
    38   18   67 1    
    39   18  143 1    
    40   19   20 am   BACKBONE|DICT|INTERRES
    41   19  144 1    
    42   20   21 2    
    43   20   22 1    
    44   22   23 1    
    45   22   24 1    
    46   22  145 1    
    47   23  146 1    
    48   23  147 1    
    49   23  148 1    
    50   24   25 am   BACKBONE|DICT|INTERRES
    51   24  149 1    
    52   25   26 2    
    53   25   27 1    
    54   27   28 1    
    55   27   29 1    
    56   27  150 1    
    57   28  151 1    
    58   28  152 1    
    59   28  153 1    
    60   29   30 am   BACKBONE|DICT|INTERRES
    61   29  154 1    
    62   30   31 2    
    63   30   32 1    
    64   32   33 1    
    65   32   34 1    
    66   32  155 1    
    67   33  156 1    
    68   33  157 1    
    69   33  158 1    
    70   34   35 am   BACKBONE|DICT|INTERRES
    71   34  159 1    
    72   35   36 2    
    73   35   37 1    
    74   37   38 1    
    75   37   39 1    
    76   37  160 1    
    77   38  161 1    
    78   38  162 1    
    79   38  163 1    
    80   39   40 am   BACKBONE|DICT|INTERRES
    81   39  164 1    
    82   40   41 2    
    83   40   42 1    
    84   42   43 1    
    85   42   44 1    
    86   42  165 1    
    87   43  166 1    
    88   43  167 1    
    89   43  168 1    
    90   44   45 am   BACKBONE|DICT|INTERRES
    91   44  169 1    
    92   45   46 2    
    93   45   47 1    
    94   47   48 1    
    95   47   49 1    
    96   47  170 1    
    97   48  171 1    
    98   48  172 1    
    99   48  173 1    
   100   49   50 am   BACKBONE|DICT|INTERRES
   101   49  174 1    
   102   50   51 2    
   103   50   52 1    
   104   52   53 1    
   105   52   54 1    
   106   52  175 1    
   107   53  176 1    
   108   53  177 1    
   109   53  178 1    
   110   54   55 am   BACKBONE|DICT|INTERRES
   111   54  179 1    
   112   55   56 2    
   113   55   57 1    
   114   57   58 1    
   115   57   59 1    
   116   57  180 1    
   117   58  181 1    
   118   58  182 1    
   119   58  183 1    
   120   59   60 am   BACKBONE|DICT|INTERRES
   121   59  184 1    
   122   60   61 2    
   123   60   62 1    
   124   62   63 1    
   125   62   64 1    
   126   62  185 1    
   127   63  186 1    
   128   63  187 1    
   129   63  188 1    
   130   64   65 am   BACKBONE|DICT|INTERRES
   131   64  189 1    
   132   65   66 2    
   133   67   68 2    
   134   67   69 am   BACKBONE|DICT|INTERRES
   135   69   70 1    
   136   69  190 1    
   137   70   71 1    
   138   70   72 1    
   139   70  191 1    
   140   71  192 1    
   141   71  193 1    
   142   71  194 1    
   143   72   73 2    
   144   72   74 am   BACKBONE|DICT|INTERRES
   145   74   75 1    
   146   74  195 1    
   147   75   76 1    
   148   75   77 1    
   149   75  196 1    
   150   76  197 1    
   151   76  198 1    
   152   76  199 1    
   153   77   78 2    
   154   77   79 am   BACKBONE|DICT|INTERRES
   155   79   80 1    
   156   79  200 1    
   157   80   81 1    
   158   80   82 1    
   159   80  201 1    
   160   81  202 1    
   161   81  203 1    
   162   81  204 1    
   163   82   83 2    
   164   82   84 am   BACKBONE|DICT|INTERRES
   165   84   85 1    
   166   84  205 1    
   167   85   86 1    
   168   85   87 1    
   169   85  206 1    
   170   86  207 1    
   171   86  208 1    
   172   86  209 1    
   173   87   88 2    
   174   87   89 am   BACKBONE|DICT|INTERRES
   175   89   90 1    
   176   89  210 1    
   177   90   91 1    
   178   90   92 1    
   179   90  211 1    
   180   91  212 1    
   181   91  213 1    
   182   91  214 1    
   183   92   93 2    
   184   92   94 am   BACKBONE|DICT|INTERRES
   185   94   95 1    
   186   94  215 1    
   187   95   96 1    
   188   95   97 1    
   189   95  216 1    
   190   96  217 1    
   191   96  218 1    
   192   96  219 1    
   193   97   98 2    
   194   97   99 am   BACKBONE|DICT|INTERRES
   195   99  100 1    
   196   99  220 1    
   197  100  101 1    
   198  100  102 1    
   199  100  221 1    
   200  101  222 1    
   201  101  223 1    
   202  101  224 1    
   203  102  103 2    
   204  102  104 am   BACKBONE|DICT|INTERRES
   205  104  105 1    
   206  104  225 1    
   207  105  106 1    
   208  105  107 1    
   209  105  226 1    
   210  106  227 1    
   211  106  228 1    
   212  106  229 1    
   213  107  108 2    
   214  107  109 am   BACKBONE|DICT|INTERRES
   215  109  110 1    
   216  109  230 1    
   217  110  111 1    
   218  110  112 1    
   219  110  231 1    
   220  111  232 1    
   221  111  233 1    
   222  111  234 1    
   223  112  113 2    
   224  112  114 am   BACKBONE|DICT|INTERRES
   225  114  115 1    
   226  114  235 1    
   227  115  116 1    
   228  115  117 1    
   229  115  236 1    
   230  116  237 1    
   231  116  238 1    
   232  116  239 1    
   233  117  118 2    
   234  117  119 am   BACKBONE|DICT|INTERRES
   235  119  120 1    
   236  119  240 1    
   237  120  121 1    
   238  120  124 1    
   239  120  241 1    
   240  121  122 am   BACKBONE|DICT|INTERRES
   241  121  123 2    
   242  122  242 1    
   243  122  243 1    
   244  124  125 1    
   245  124  244 1    
   246  124  245 1    
   247  125  126 1    
   248  126  246 1    
   249  126  247 1    
@<TRIPOS>SUBSTRUCTURE
     1 UNK         1 GROUP             0       ****    0 ROOT    
