@<TRIPOS>MOLECULE
3R540
247   249    1
SMALL
USER_CHARGES


@<TRIPOS>ATOM
      1 CA          5.1441  -11.1390  -47.6111 C.3       0 UNK        -0.1800 
      2 C           4.3424  -12.1948  -46.8652 C.2       0 UNK         0.5000 
      3 O           4.1434  -12.0720  -45.6575 O.2       0 UNK        -0.5000 
      4 N           3.8640  -13.2217  -47.5787 N.am      1 UNK        -0.5000 
      5 CA          3.0656  -14.3352  -47.0484 C.3       1 UNK         0.1400 
      6 C6          2.7974  -15.4358  -48.1091 C.3       23 UNK        -0.0398 
      7 S7          2.2821  -14.7986  -49.7487 S.3       23 UNK        -0.2404 
      8 C8          0.4916  -15.1643  -49.7850 C.3       23 UNK        -0.0205 
      9 C9          0.0995  -16.6414  -49.8567 C.ar      23 UNK        -0.0193 
     10 C10        -1.2429  -16.9743  -49.6592 C.ar      23 UNK        -0.1150 
     11 C11        -1.6689  -18.3039  -49.6916 C.ar      23 UNK        -0.0193 
     12 C12        -0.7326  -19.3126  -49.9355 C.ar      23 UNK        -0.1150 
     13 C13         0.6196  -19.0055  -50.1359 C.ar      23 UNK        -0.0193 
     14 C14         1.0193  -17.6673  -50.1088 C.ar      23 UNK        -0.1150 
     15 C15         1.6856  -20.0754  -50.3873 C.3       23 UNK        -0.0205 
     16 S16         1.2567  -21.7636  -49.8439 S.3       23 UNK        -0.2404 
     17 C17         1.0954  -21.4809  -48.0497 C.3       23 UNK        -0.0398 
     18 CA          0.5583  -22.6913  -47.2588 C.3       11 UNK         0.1400 
     19 N           0.5919  -22.4200  -45.8237 N.am      11 UNK        -0.5000 
     20 C           0.4427  -23.3396  -44.8629 C.2       10 UNK         0.5000 
     21 O           0.3182  -24.5442  -45.0797 O.2       10 UNK        -0.5000 
     22 CA          0.3885  -22.8143  -43.4175 C.3       10 UNK         0.1400 
     23 CB          1.8058  -22.6047  -42.8643 C.3       10 UNK        -0.1800 
     24 N          -0.3731  -21.5685  -43.3026 N.am      10 UNK        -0.5000 
     25 C          -1.6860  -21.4610  -43.5515 C.2       9 UNK         0.5000 
     26 O          -2.3992  -22.4162  -43.8602 O.2       9 UNK        -0.5000 
     27 CA         -2.2977  -20.0486  -43.4838 C.3       9 UNK         0.1400 
     28 CB         -2.5487  -19.6306  -42.0276 C.3       9 UNK        -0.1800 
     29 N          -1.4814  -19.0339  -44.1542 N.am      9 UNK        -0.5000 
     30 C          -1.2057  -19.0254  -45.4662 C.2       8 UNK         0.5000 
     31 O          -1.6177  -19.8722  -46.2545 O.2       8 UNK        -0.5000 
     32 CA         -0.2716  -17.9175  -45.9818 C.3       8 UNK         0.1400 
     33 CB         -1.0357  -16.5990  -46.1751 C.3       8 UNK        -0.1800 
     34 N           0.8802  -17.7097  -45.1040 N.am      8 UNK        -0.5000 
     35 C           1.8190  -18.6375  -44.8627 C.2       7 UNK         0.5000 
     36 O           1.8452  -19.7444  -45.4007 O.2       7 UNK        -0.5000 
     37 CA          2.8747  -18.2880  -43.7999 C.3       7 UNK         0.1400 
     38 CB          3.9174  -17.3134  -44.3643 C.3       7 UNK        -0.1800 
     39 N           2.2756  -17.7121  -42.5968 N.am      7 UNK        -0.5000 
     40 C           1.4494  -18.3650  -41.7666 C.2       6 UNK         0.5000 
     41 O           1.1390  -19.5478  -41.8975 O.2       6 UNK        -0.5000 
     42 CA          0.8271  -17.5396  -40.6263 C.3       6 UNK         0.1400 
     43 CB          1.7540  -17.5212  -39.4024 C.3       6 UNK        -0.1800 
     44 N           0.5298  -16.1646  -41.0275 N.am      6 UNK        -0.5000 
     45 C          -0.3368  -15.8066  -41.9823 C.2       5 UNK         0.5000 
     46 O          -1.0238  -16.6124  -42.6095 O.2       5 UNK        -0.5000 
     47 CA         -0.4144  -14.3113  -42.3361 C.3       5 UNK         0.1400 
     48 CB         -1.3045  -13.5404  -41.3446 C.3       5 UNK        -0.1800 
     49 N           0.8948  -13.6691  -42.5038 N.am      5 UNK        -0.5000 
     50 C           1.8411  -13.3945  -41.5931 C.2       4 UNK         0.5000 
     51 O           1.7670  -13.7019  -40.4029 O.2       4 UNK        -0.5000 
     52 CA          3.0898  -12.6567  -42.1099 C.3       4 UNK         0.1400 
     53 CB          4.1221  -13.6614  -42.6436 C.3       4 UNK        -0.1800 
     54 N           2.7690  -11.6927  -43.1626 N.am      4 UNK        -0.5000 
     55 C           2.0645  -10.5665  -42.9791 C.2       3 UNK         0.5000 
     56 O           1.6992  -10.1557  -41.8771 O.2       3 UNK        -0.5000 
     57 CA          1.6688   -9.7925  -44.2482 C.3       3 UNK         0.1400 
     58 CB          2.8264   -8.9126  -44.7455 C.3       3 UNK        -0.1800 
     59 N           1.2405  -10.6975  -45.3160 N.am      3 UNK        -0.5000 
     60 C           0.0621  -11.3377  -45.3393 C.2       2 UNK         0.5000 
     61 O          -0.8171  -11.1833  -44.4920 O.2       2 UNK        -0.5000 
     62 CA         -0.1730  -12.3285  -46.4945 C.3       2 UNK         0.1400 
     63 CB         -0.9071  -11.6433  -47.6564 C.3       2 UNK        -0.1800 
     64 N           1.0682  -12.9166  -46.9968 N.am      2 UNK        -0.5000 
     65 C           1.7599  -13.8765  -46.3694 C.2       1 UNK         0.5000 
     66 O           1.4258  -14.3720  -45.2920 O.2       1 UNK        -0.5000 
     67 C          -0.8460  -23.1444  -47.7178 C.2       11 UNK         0.5000 
     68 O          -0.9443  -24.1300  -48.4478 O.2       11 UNK        -0.5000 
     69 N          -1.9043  -22.4660  -47.2489 N.am      12 UNK        -0.5000 
     70 CA         -3.3104  -22.8013  -47.5001 C.3       12 UNK         0.1400 
     71 CB         -4.2164  -21.7446  -46.8508 C.3       12 UNK        -0.1800 
     72 C          -3.7027  -24.1990  -46.9912 C.2       12 UNK         0.5000 
     73 O          -4.4605  -24.9008  -47.6604 O.2       12 UNK        -0.5000 
     74 N          -3.1596  -24.5828  -45.8280 N.am      13 UNK        -0.5000 
     75 CA         -3.3069  -25.9128  -45.2349 C.3       13 UNK         0.1400 
     76 CB         -2.8548  -25.8535  -43.7674 C.3       13 UNK        -0.1800 
     77 C          -2.5397  -27.0140  -45.9979 C.2       13 UNK         0.5000 
     78 O          -2.8446  -28.1936  -45.8148 O.2       13 UNK        -0.5000 
     79 N          -1.5664  -26.6163  -46.8260 N.am      14 UNK        -0.5000 
     80 CA         -0.7770  -27.4759  -47.6968 C.3       14 UNK         0.1400 
     81 CB          0.7095  -27.0849  -47.5617 C.3       14 UNK        -0.1800 
     82 C          -1.3306  -27.3869  -49.1339 C.2       14 UNK         0.5000 
     83 O          -2.4810  -27.7646  -49.3627 O.2       14 UNK        -0.5000 
     84 N          -0.5042  -26.9312  -50.0834 N.am      15 UNK        -0.5000 
     85 CA         -0.8037  -26.9135  -51.5155 C.3       15 UNK         0.1400 
     86 CB          0.5255  -26.9656  -52.2865 C.3       15 UNK        -0.1800 
     87 C          -1.6389  -25.7053  -51.9831 C.2       15 UNK         0.5000 
     88 O          -2.2156  -25.7832  -53.0692 O.2       15 UNK        -0.5000 
     89 N          -1.6699  -24.6206  -51.1911 N.am      16 UNK        -0.5000 
     90 CA         -2.2251  -23.2952  -51.5073 C.3       16 UNK         0.1400 
     91 CB         -3.7438  -23.3861  -51.7748 C.3       16 UNK        -0.1800 
     92 C          -1.4720  -22.5711  -52.6495 C.2       16 UNK         0.5000 
     93 O          -0.5317  -23.1218  -53.2283 O.2       16 UNK        -0.5000 
     94 N          -1.8835  -21.3322  -52.9523 N.am      17 UNK        -0.5000 
     95 CA         -1.3275  -20.5396  -54.0512 C.3       17 UNK         0.1400 
     96 CB          0.0149  -19.8989  -53.6632 C.3       17 UNK        -0.1800 
     97 C          -2.3169  -19.4775  -54.5379 C.2       17 UNK         0.5000 
     98 O          -2.5737  -19.4097  -55.7404 O.2       17 UNK        -0.5000 
     99 N          -2.8689  -18.6776  -53.6123 N.am      18 UNK        -0.5000 
    100 CA        -3.8277  -17.6072  -53.9040 C.3       18 UNK         0.1400 
    101 CB        -4.1252  -16.8213  -52.6184 C.3       18 UNK        -0.1800 
    102 C         -5.1138  -18.1748  -54.5309 C.2       18 UNK         0.5000 
    103 O         -5.8323  -18.9252  -53.8685 O.2       18 UNK        -0.5000 
    104 N         -5.3194  -17.9005  -55.8273 N.am      19 UNK        -0.5000 
    105 CA        -6.3615  -18.4770  -56.6926 C.3       19 UNK         0.1400 
    106 CB        -7.7537  -17.9628  -56.2701 C.3       19 UNK        -0.1800 
    107 C         -6.3129  -20.0230  -56.7852 C.2       19 UNK         0.5000 
    108 O         -7.3184  -20.6461  -57.1287 O.2       19 UNK        -0.5000 
    109 N         -5.1516  -20.6091  -56.4492 N.am      20 UNK        -0.5000 
    110 CA        -4.8731  -22.0384  -56.2843 C.3       20 UNK         0.1400 
    111 CB        -4.8946  -22.7511  -57.6523 C.3       20 UNK        -0.1800 
    112 C         -5.7659  -22.7345  -55.2297 C.2       20 UNK         0.5000 
    113 O         -6.0038  -23.9383  -55.3457 O.2       20 UNK        -0.5000 
    114 N         -6.2530  -21.9845  -54.2280 N.am      21 UNK        -0.5000 
    115 CA        -7.2084  -22.4879  -53.2366 C.3       21 UNK         0.1400 
    116 CB        -8.6395  -22.3506  -53.7860 C.3       21 UNK        -0.1800 
    117 C         -7.0940  -21.8120  -51.8616 C.2       21 UNK         0.5000 
    118 O         -7.3578  -22.4732  -50.8571 O.2       21 UNK        -0.5000 
    119 N         -6.7229  -20.5244  -51.8254 N.am      22 UNK        -0.5000 
    120 CA        -6.6242  -19.6827  -50.6180 C.3       22 UNK         0.1400 
    121 C         -7.9781  -19.4360  -49.8791 C.2       22 UNK         0.5000 
    122 N         -9.1241  -19.6157  -50.5249 N.am      22 UNK        -0.7600 
    123 O         -7.9992  -19.0410  -48.7165 O.2       22 UNK        -0.5000 
    124 C124       -5.4813  -20.1288  -49.6649 C.3       23 UNK        -0.0398 
    125 S125       -3.8261  -19.9581  -50.4175 S.3       23 UNK        -0.2404 
    126 C126       -3.1245  -18.6318  -49.3810 C.3       23 UNK        -0.0205 
    127 H127        4.6623  -10.1660  -47.5152 H         1 UNK         0.0600 
    128 H128        5.2336  -11.3725  -48.6723 H         1 UNK         0.0600 
    129 H129        6.1475  -11.0665  -47.1919 H         1 UNK         0.0600 
    130 H130        4.0442  -13.2613  -48.5725 H         1 UNK         0.3000 
    131 H131        3.6708  -14.7875  -46.2618 H         1 UNK         0.0600 
    132 H132        3.7185  -15.9979  -48.2681 H         1 UNK         0.0800 
    133 H133        2.0773  -16.1713  -47.7444 H         1 UNK         0.0800 
    134 H134        0.0654  -14.6607  -50.6535 H         1 UNK         0.0800 
    135 H135        0.0243  -14.7108  -48.9107 H         1 UNK         0.0800 
    136 H136       -1.9591  -16.1901  -49.4564 H         1 UNK         0.1150 
    137 H137       -1.0626  -20.3402  -49.9456 H         1 UNK         0.1150 
    138 H138        2.0607  -17.4377  -50.2781 H         1 UNK         0.1150 
    139 H139        1.9148  -20.0994  -51.4517 H         1 UNK         0.0800 
    140 H140        2.6112  -19.7884  -49.8856 H         1 UNK         0.0800 
    141 H141        0.4644  -20.6116  -47.8672 H         1 UNK         0.0800 
    142 H142        2.0846  -21.2130  -47.6758 H         1 UNK         0.0800 
    143 H143        1.2383  -23.5262  -47.4413 H         1 UNK         0.0600 
    144 H144        0.7356  -21.4528  -45.5523 H         1 UNK         0.3000 
    145 H145       -0.1087  -23.5709  -42.8070 H         1 UNK         0.0600 
    146 H146        1.7789  -22.3186  -41.8128 H         1 UNK         0.0600 
    147 H147        2.3945  -23.5200  -42.9377 H         1 UNK         0.0600 
    148 H148        2.3387  -21.8243  -43.4091 H         1 UNK         0.0600 
    149 H149        0.1431  -20.7461  -43.0009 H         1 UNK         0.3000 
    150 H150       -3.2620  -20.0825  -43.9947 H         1 UNK         0.0600 
    151 H151       -3.1983  -20.3468  -41.5231 H         1 UNK         0.0600 
    152 H152       -3.0343  -18.6560  -41.9748 H         1 UNK         0.0600 
    153 H153       -1.6205  -19.5731  -41.4596 H         1 UNK         0.0600 
    154 H154       -1.1409  -18.2678  -43.5796 H         1 UNK         0.3000 
    155 H155        0.1030  -18.2330  -46.9581 H         1 UNK         0.0600 
    156 H156       -1.3366  -16.1573  -45.2255 H         1 UNK         0.0600 
    157 H157       -0.4284  -15.8694  -46.7077 H         1 UNK         0.0600 
    158 H158       -1.9400  -16.7546  -46.7646 H         1 UNK         0.0600 
    159 H159        0.9217  -16.8281  -44.6129 H         1 UNK         0.3000 
    160 H160        3.3842  -19.2121  -43.5184 H         1 UNK         0.0600 
    161 H161        4.7249  -17.1433  -43.6519 H         1 UNK         0.0600 
    162 H162        4.3660  -17.7030  -45.2792 H         1 UNK         0.0600 
    163 H163        3.4704  -16.3488  -44.5991 H         1 UNK         0.0600 
    164 H164        2.4644  -16.7388  -42.4123 H         1 UNK         0.3000 
    165 H165       -0.1117  -18.0169  -40.3399 H         1 UNK         0.0600 
    166 H166        1.2888  -17.0019  -38.5643 H         1 UNK         0.0600 
    167 H167        1.9825  -18.5348  -39.0702 H         1 UNK         0.0600 
    168 H168        2.7002  -17.0243  -39.6206 H         1 UNK         0.0600 
    169 H169        1.0506  -15.4204  -40.5702 H         1 UNK         0.3000 
    170 H170       -0.8917  -14.2491  -43.3155 H         1 UNK         0.0600 
    171 H171       -2.3082  -13.9658  -41.3137 H         1 UNK         0.0600 
    172 H172       -0.9083  -13.5680  -40.3293 H         1 UNK         0.0600 
    173 H173       -1.4026  -12.4952  -41.6387 H         1 UNK         0.0600 
    174 H174        1.1257  -13.4651  -43.4697 H         1 UNK         0.3000 
    175 H175        3.5333  -12.1169  -41.2708 H         1 UNK         0.0600 
    176 H176        3.7464  -14.1962  -43.5161 H         1 UNK         0.0600 
    177 H177        5.0443  -13.1586  -42.9355 H         1 UNK         0.0600 
    178 H178        4.3801  -14.4022  -41.8857 H         1 UNK         0.0600 
    179 H179        3.1008  -11.9138  -44.0984 H         1 UNK         0.3000 
    180 H180        0.8333   -9.1364  -43.9947 H         1 UNK         0.0600 
    181 H181        3.7052   -9.5026  -45.0062 H         1 UNK         0.0600 
    182 H182        3.1288   -8.1999  -43.9773 H         1 UNK         0.0600 
    183 H183        2.5353   -8.3380  -45.6249 H         1 UNK         0.0600 
    184 H184        1.9212  -10.9120  -46.0293 H         1 UNK         0.3000 
    185 H185       -0.8095  -13.1321  -46.1169 H         1 UNK         0.0600 
    186 H186       -1.1388  -12.3535  -48.4503 H         1 UNK         0.0600 
    187 H187       -1.8517  -11.2127  -47.3214 H         1 UNK         0.0600 
    188 H188       -0.3136  -10.8369  -48.0889 H         1 UNK         0.0600 
    189 H189        1.4214  -12.5636  -47.8747 H         1 UNK         0.3000 
    190 H190       -1.7415  -21.6222  -46.7022 H         1 UNK         0.3000 
    191 H191       -3.4708  -22.7775  -48.5793 H         1 UNK         0.0600 
    192 H192       -4.1049  -21.7264  -45.7673 H         1 UNK         0.0600 
    193 H193       -5.2668  -21.9440  -47.0653 H         1 UNK         0.0600 
    194 H194       -3.9902  -20.7474  -47.2204 H         1 UNK         0.0600 
    195 H195       -2.6022  -23.9121  -45.3092 H         1 UNK         0.3000 
    196 H196       -4.3657  -26.1787  -45.2545 H         1 UNK         0.0600 
    197 H197       -2.9891  -26.8182  -43.2766 H         1 UNK         0.0600 
    198 H198       -3.4329  -25.1194  -43.2058 H         1 UNK         0.0600 
    199 H199       -1.8015  -25.5852  -43.6823 H         1 UNK         0.0600 
    200 H200       -1.4186  -25.6224  -46.9485 H         1 UNK         0.3000 
    201 H201       -0.8722  -28.5180  -47.3858 H         1 UNK         0.0600 
    202 H202        1.0438  -27.1940  -46.5297 H         1 UNK         0.0600 
    203 H203        0.8924  -26.0501  -47.8522 H         1 UNK         0.0600 
    204 H204        1.3461  -27.7268  -48.1718 H         1 UNK         0.0600 
    205 H205        0.4135  -26.6115  -49.8102 H         1 UNK         0.3000 
    206 H206       -1.3695  -27.8139  -51.7647 H         1 UNK         0.0600 
    207 H207        1.1001  -27.8547  -52.0262 H         1 UNK         0.0600 
    208 H208        0.3526  -26.9960  -53.3632 H         1 UNK         0.0600 
    209 H209        1.1435  -26.0908  -52.0796 H         1 UNK         0.0600 
    210 H210       -1.1911  -24.6710  -50.2962 H         1 UNK         0.3000 
    211 H211       -2.0766  -22.6883  -50.6137 H         1 UNK         0.0600 
    212 H212       -3.9711  -23.9354  -52.6881 H         1 UNK         0.0600 
    213 H213       -4.1891  -22.3997  -51.8858 H         1 UNK         0.0600 
    214 H214       -4.2595  -23.8780  -50.9498 H         1 UNK         0.0600 
    215 H215       -2.6630  -20.9292  -52.4494 H         1 UNK         0.3000 
    216 H216       -1.1494  -21.2066  -54.8979 H         1 UNK         0.0600 
    217 H217        0.4246  -19.3203  -54.4920 H         1 UNK         0.0600 
    218 H218        0.7538  -20.6565  -53.4046 H         1 UNK         0.0600 
    219 H219       -0.0936  -19.2224  -52.8167 H         1 UNK         0.0600 
    220 H220       -2.6074  -18.7862  -52.6433 H         1 UNK         0.3000 
    221 H221       -3.3593  -16.9221  -54.6137 H         1 UNK         0.0600 
    222 H222       -4.8049  -15.9922  -52.8177 H         1 UNK         0.0600 
    223 H223       -3.2142  -16.4011  -52.1918 H         1 UNK         0.0600 
    224 H224       -4.5901  -17.4483  -51.8598 H         1 UNK         0.0600 
    225 H225       -4.6431  -17.3179  -56.3017 H         1 UNK         0.3000 
    226 H226       -6.1624  -18.1083  -57.6997 H         1 UNK         0.0600 
    227 H227       -7.7704  -16.8747  -56.2087 H         1 UNK         0.0600 
    228 H228       -8.5165  -18.2563  -56.9921 H         1 UNK         0.0600 
    229 H229       -8.0545  -18.3584  -55.2994 H         1 UNK         0.0600 
    230 H230       -4.3728  -19.9991  -56.2175 H         1 UNK         0.3000 
    231 H231       -3.8549  -22.1031  -55.8980 H         1 UNK         0.0600 
    232 H232       -4.5410  -23.7792  -57.5658 H         1 UNK         0.0600 
    233 H233       -4.2461  -22.2474  -58.3690 H         1 UNK         0.0600 
    234 H234       -5.8993  -22.7851  -58.0744 H         1 UNK         0.0600 
    235 H235       -6.0190  -20.9996  -54.1883 H         1 UNK         0.3000 
    236 H236       -7.0117  -23.5477  -53.0597 H         1 UNK         0.0600 
    237 H237       -8.7744  -22.9454  -54.6895 H         1 UNK         0.0600 
    238 H238       -9.3761  -22.6951  -53.0589 H         1 UNK         0.0600 
    239 H239       -8.8750  -21.3143  -54.0317 H         1 UNK         0.0600 
    240 H240       -6.5125  -20.0264  -52.6878 H         1 UNK         0.3000 
    241 H241       -6.3593  -18.6921  -50.9859 H         1 UNK         0.0600 
    242 H242       -9.9948  -19.4441  -50.0472 H         1 UNK         0.3800 
    243 H243       -9.1291  -19.9212  -51.4844 H         1 UNK         0.3800 
    244 H244       -5.4998  -19.5479  -48.7421 H         1 UNK         0.0800 
    245 H245       -5.6193  -21.1669  -49.3638 H         1 UNK         0.0800 
    246 H246       -3.7465  -17.7425  -49.4920 H         1 UNK         0.0800 
    247 H247       -3.1810  -18.9206  -48.3321 H         1 UNK         0.0800 
@<TRIPOS>BOND
     1    1    2 1    
     2    1  127 1    
     3    1  128 1    
     4    1  129 1    
     5    2    3 2    
     6    2    4 am   BACKBONE|DICT|INTERRES
     7    4    5 1    
     8    4  130 1    
     9    5    6 1    
    10    5   65 1    
    11    5  131 1    
    12    6    7 1    
    13    6  132 1    
    14    6  133 1    
    15    7    8 1    
    16    8    9 1    
    17    8  134 1    
    18    8  135 1    
    19    9   10 ar   
    20    9   14 ar   
    21   10   11 ar   
    22   10  136 1    
    23   11   12 ar   
    24   11  126 1    
    25   12   13 ar   
    26   12  137 1    
    27   13   14 ar   
    28   13   15 1    
    29   14  138 1    
    30   15   16 1    
    31   15  139 1    
    32   15  140 1    
    33   16   17 1    
    34   17   18 1    
    35   17  141 1    
    36   17  142 1    
    37   18   19 1    
    38   18   67 1    
    39   18  143 1    
    40   19   20 am   BACKBONE|DICT|INTERRES
    41   19  144 1    
    42   20   21 2    
    43   20   22 1    
    44   22   23 1    
    45   22   24 1    
    46   22  145 1    
    47   23  146 1    
    48   23  147 1    
    49   23  148 1    
    50   24   25 am   BACKBONE|DICT|INTERRES
    51   24  149 1    
    52   25   26 2    
    53   25   27 1    
    54   27   28 1    
    55   27   29 1    
    56   27  150 1    
    57   28  151 1    
    58   28  152 1    
    59   28  153 1    
    60   29   30 am   BACKBONE|DICT|INTERRES
    61   29  154 1    
    62   30   31 2    
    63   30   32 1    
    64   32   33 1    
    65   32   34 1    
    66   32  155 1    
    67   33  156 1    
    68   33  157 1    
    69   33  158 1    
    70   34   35 am   BACKBONE|DICT|INTERRES
    71   34  159 1    
    72   35   36 2    
    73   35   37 1    
    74   37   38 1    
    75   37   39 1    
    76   37  160 1    
    77   38  161 1    
    78   38  162 1    
    79   38  163 1    
    80   39   40 am   BACKBONE|DICT|INTERRES
    81   39  164 1    
    82   40   41 2    
    83   40   42 1    
    84   42   43 1    
    85   42   44 1    
    86   42  165 1    
    87   43  166 1    
    88   43  167 1    
    89   43  168 1    
    90   44   45 am   BACKBONE|DICT|INTERRES
    91   44  169 1    
    92   45   46 2    
    93   45   47 1    
    94   47   48 1    
    95   47   49 1    
    96   47  170 1    
    97   48  171 1    
    98   48  172 1    
    99   48  173 1    
   100   49   50 am   BACKBONE|DICT|INTERRES
   101   49  174 1    
   102   50   51 2    
   103   50   52 1    
   104   52   53 1    
   105   52   54 1    
   106   52  175 1    
   107   53  176 1    
   108   53  177 1    
   109   53  178 1    
   110   54   55 am   BACKBONE|DICT|INTERRES
   111   54  179 1    
   112   55   56 2    
   113   55   57 1    
   114   57   58 1    
   115   57   59 1    
   116   57  180 1    
   117   58  181 1    
   118   58  182 1    
   119   58  183 1    
   120   59   60 am   BACKBONE|DICT|INTERRES
   121   59  184 1    
   122   60   61 2    
   123   60   62 1    
   124   62   63 1    
   125   62   64 1    
   126   62  185 1    
   127   63  186 1    
   128   63  187 1    
   129   63  188 1    
   130   64   65 am   BACKBONE|DICT|INTERRES
   131   64  189 1    
   132   65   66 2    
   133   67   68 2    
   134   67   69 am   BACKBONE|DICT|INTERRES
   135   69   70 1    
   136   69  190 1    
   137   70   71 1    
   138   70   72 1    
   139   70  191 1    
   140   71  192 1    
   141   71  193 1    
   142   71  194 1    
   143   72   73 2    
   144   72   74 am   BACKBONE|DICT|INTERRES
   145   74   75 1    
   146   74  195 1    
   147   75   76 1    
   148   75   77 1    
   149   75  196 1    
   150   76  197 1    
   151   76  198 1    
   152   76  199 1    
   153   77   78 2    
   154   77   79 am   BACKBONE|DICT|INTERRES
   155   79   80 1    
   156   79  200 1    
   157   80   81 1    
   158   80   82 1    
   159   80  201 1    
   160   81  202 1    
   161   81  203 1    
   162   81  204 1    
   163   82   83 2    
   164   82   84 am   BACKBONE|DICT|INTERRES
   165   84   85 1    
   166   84  205 1    
   167   85   86 1    
   168   85   87 1    
   169   85  206 1    
   170   86  207 1    
   171   86  208 1    
   172   86  209 1    
   173   87   88 2    
   174   87   89 am   BACKBONE|DICT|INTERRES
   175   89   90 1    
   176   89  210 1    
   177   90   91 1    
   178   90   92 1    
   179   90  211 1    
   180   91  212 1    
   181   91  213 1    
   182   91  214 1    
   183   92   93 2    
   184   92   94 am   BACKBONE|DICT|INTERRES
   185   94   95 1    
   186   94  215 1    
   187   95   96 1    
   188   95   97 1    
   189   95  216 1    
   190   96  217 1    
   191   96  218 1    
   192   96  219 1    
   193   97   98 2    
   194   97   99 am   BACKBONE|DICT|INTERRES
   195   99  100 1    
   196   99  220 1    
   197  100  101 1    
   198  100  102 1    
   199  100  221 1    
   200  101  222 1    
   201  101  223 1    
   202  101  224 1    
   203  102  103 2    
   204  102  104 am   BACKBONE|DICT|INTERRES
   205  104  105 1    
   206  104  225 1    
   207  105  106 1    
   208  105  107 1    
   209  105  226 1    
   210  106  227 1    
   211  106  228 1    
   212  106  229 1    
   213  107  108 2    
   214  107  109 am   BACKBONE|DICT|INTERRES
   215  109  110 1    
   216  109  230 1    
   217  110  111 1    
   218  110  112 1    
   219  110  231 1    
   220  111  232 1    
   221  111  233 1    
   222  111  234 1    
   223  112  113 2    
   224  112  114 am   BACKBONE|DICT|INTERRES
   225  114  115 1    
   226  114  235 1    
   227  115  116 1    
   228  115  117 1    
   229  115  236 1    
   230  116  237 1    
   231  116  238 1    
   232  116  239 1    
   233  117  118 2    
   234  117  119 am   BACKBONE|DICT|INTERRES
   235  119  120 1    
   236  119  240 1    
   237  120  121 1    
   238  120  124 1    
   239  120  241 1    
   240  121  122 am   BACKBONE|DICT|INTERRES
   241  121  123 2    
   242  122  242 1    
   243  122  243 1    
   244  124  125 1    
   245  124  244 1    
   246  124  245 1    
   247  125  126 1    
   248  126  246 1    
   249  126  247 1    
@<TRIPOS>SUBSTRUCTURE
     1 UNK         1 GROUP             0       ****    0 ROOT    
