@<TRIPOS>MOLECULE
3R540
247   249    1
SMALL
USER_CHARGES


@<TRIPOS>ATOM
      1 CA         -3.1947  -13.5829  -43.9299 C.3       0 UNK        -0.1800 
      2 C          -2.4733  -12.7660  -44.9935 C.2       0 UNK         0.5000 
      3 O          -2.4223  -11.5396  -44.8978 O.2       0 UNK        -0.5000 
      4 N          -1.9175  -13.4452  -46.0044 N.am      1 UNK        -0.5000 
      5 CA         -1.0701  -12.8710  -47.0548 C.3       1 UNK         0.1400 
      6 C6         -0.8495  -13.8982  -48.1956 C.3       23 UNK        -0.0398 
      7 S7         -0.2412  -13.1711  -49.7504 S.3       23 UNK        -0.2404 
      8 C8          1.2174  -14.2157  -50.0715 C.3       23 UNK        -0.0205 
      9 C9          0.8480  -15.6021  -50.5858 C.ar      23 UNK        -0.0193 
     10 C10         0.3109  -15.7416  -51.8673 C.ar      23 UNK        -0.1150 
     11 C11         0.0418  -17.0069  -52.3939 C.ar      23 UNK        -0.0193 
     12 C12         0.3246  -18.1444  -51.6298 C.ar      23 UNK        -0.1150 
     13 C13         0.8527  -18.0229  -50.3399 C.ar      23 UNK        -0.0193 
     14 C14         1.0978  -16.7470  -49.8195 C.ar      23 UNK        -0.1150 
     15 C15         1.2233  -19.2682  -49.5408 C.3       23 UNK        -0.0205 
     16 S16        -0.1617  -19.9017  -48.5445 S.3       23 UNK        -0.2404 
     17 C17         0.5740  -21.4452  -47.8817 C.3       23 UNK        -0.0398 
     18 CA         -0.3182  -22.3706  -46.9979 C.3       11 UNK         0.1400 
     19 N          -0.2534  -22.0669  -45.5595 N.am      11 UNK        -0.5000 
     20 C          -0.6879  -22.9085  -44.6043 C.2       10 UNK         0.5000 
     21 O          -1.1731  -24.0126  -44.8457 O.2       10 UNK        -0.5000 
     22 CA         -0.6189  -22.4460  -43.1375 C.3       10 UNK         0.1400 
     23 CB          0.8052  -22.5803  -42.5796 C.3       10 UNK        -0.1800 
     24 N          -1.1114  -21.0841  -42.9482 N.am      10 UNK        -0.5000 
     25 C          -2.3735  -20.6950  -43.1833 C.2       9 UNK         0.5000 
     26 O          -3.2749  -21.4614  -43.5204 O.2       9 UNK        -0.5000 
     27 CA         -2.6575  -19.1836  -43.1006 C.3       9 UNK         0.1400 
     28 CB         -2.8918  -18.7385  -41.6499 C.3       9 UNK        -0.1800 
     29 N          -1.5772  -18.3949  -43.6927 N.am      9 UNK        -0.5000 
     30 C          -1.1995  -18.4828  -44.9755 C.2       8 UNK         0.5000 
     31 O          -1.7971  -19.1566  -45.8120 O.2       8 UNK        -0.5000 
     32 CA          0.0888  -17.7449  -45.3706 C.3       8 UNK         0.1400 
     33 CB         -0.1968  -16.2738  -45.6718 C.3       8 UNK        -0.1800 
     34 N           1.1102  -17.8504  -44.3313 N.am      8 UNK        -0.5000 
     35 C           1.8408  -18.9539  -44.1198 C.2       7 UNK         0.5000 
     36 O           1.7704  -19.9599  -44.8253 O.2       7 UNK        -0.5000 
     37 CA          2.7797  -18.9453  -42.8983 C.3       7 UNK         0.1400 
     38 CB          4.1873  -18.4859  -43.3014 C.3       7 UNK        -0.1800 
     39 N           2.2788  -18.0980  -41.8134 N.am      7 UNK        -0.5000 
     40 C           1.2263  -18.4187  -41.0463 C.2       6 UNK         0.5000 
     41 O           0.6080  -19.4772  -41.1534 O.2       6 UNK        -0.5000 
     42 CA          0.7457  -17.3598  -40.0346 C.3       6 UNK         0.1400 
     43 CB          1.4966  -17.5049  -38.7033 C.3       6 UNK        -0.1800 
     44 N           0.8928  -15.9883  -40.5263 N.am      6 UNK        -0.5000 
     45 C           0.2917  -15.4977  -41.6183 C.2       5 UNK         0.5000 
     46 O          -0.5054  -16.1439  -42.2964 O.2       5 UNK        -0.5000 
     47 CA          0.6780  -14.0752  -42.0652 C.3       5 UNK         0.1400 
     48 CB          1.0445  -13.1459  -40.8887 C.3       5 UNK        -0.1800 
     49 N           1.7429  -14.0676  -43.0761 N.am      5 UNK        -0.5000 
     50 C           2.9745  -14.5873  -42.9707 C.2       4 UNK         0.5000 
     51 O           3.3487  -15.2897  -42.0298 O.2       4 UNK        -0.5000 
     52 CA          3.9317  -14.3079  -44.1383 C.3       4 UNK         0.1400 
     53 CB          5.4088  -14.5482  -43.7589 C.3       4 UNK        -0.1800 
     54 N           3.5514  -15.1632  -45.2583 N.am      4 UNK        -0.5000 
     55 C           3.7378  -14.9543  -46.5672 C.2       3 UNK         0.5000 
     56 O           3.3454  -15.7751  -47.3920 O.2       3 UNK        -0.5000 
     57 CA          4.3898  -13.6485  -47.0660 C.3       3 UNK         0.1400 
     58 CB          5.0633  -13.8193  -48.4403 C.3       3 UNK        -0.1800 
     59 N           3.3419  -12.6419  -47.1812 N.am      3 UNK        -0.5000 
     60 C           3.3274  -11.4571  -46.5621 C.2       2 UNK         0.5000 
     61 O           4.2627  -11.0276  -45.8860 O.2       2 UNK        -0.5000 
     62 CA          2.0468  -10.6072  -46.6978 C.3       2 UNK         0.1400 
     63 CB          2.2811   -9.4444  -47.6746 C.3       2 UNK        -0.1800 
     64 N           0.8458  -11.3379  -47.1210 N.am      2 UNK        -0.5000 
     65 C           0.2624  -12.3497  -46.4643 C.2       1 UNK         0.5000 
     66 O           0.7401  -12.8725  -45.4529 O.2       1 UNK        -0.5000 
     67 C          -1.7730  -22.5261  -47.4939 C.2       11 UNK         0.5000 
     68 O          -2.0609  -23.4524  -48.2562 O.2       11 UNK        -0.5000 
     69 N          -2.6706  -21.6551  -47.0123 N.am      12 UNK        -0.5000 
     70 CA         -4.1069  -21.7019  -47.2748 C.3       12 UNK         0.1400 
     71 CB         -4.7696  -20.4263  -46.7357 C.3       12 UNK        -0.1800 
     72 C          -4.7782  -22.9595  -46.6946 C.2       12 UNK         0.5000 
     73 O          -5.6118  -23.5626  -47.3685 O.2       12 UNK        -0.5000 
     74 N          -4.3986  -23.3454  -45.4704 N.am      13 UNK        -0.5000 
     75 CA         -4.9217  -24.5272  -44.7887 C.3       13 UNK         0.1400 
     76 CB         -4.5765  -24.4532  -43.2930 C.3       13 UNK        -0.1800 
     77 C          -4.4141  -25.8464  -45.3971 C.2       13 UNK         0.5000 
     78 O          -5.2161  -26.7490  -45.6405 O.2       13 UNK        -0.5000 
     79 N          -3.0947  -25.9489  -45.6014 N.am      14 UNK        -0.5000 
     80 CA         -2.4276  -27.1957  -45.9730 C.3       14 UNK         0.1400 
     81 CB         -0.9655  -27.1483  -45.5022 C.3       14 UNK        -0.1800 
     82 C          -2.4842  -27.5058  -47.4764 C.2       14 UNK         0.5000 
     83 O          -2.5892  -28.6794  -47.8364 O.2       14 UNK        -0.5000 
     84 N          -2.3722  -26.4733  -48.3225 N.am      15 UNK        -0.5000 
     85 CA         -2.1417  -26.6262  -49.7619 C.3       15 UNK         0.1400 
     86 CB         -0.6855  -26.2234  -50.0618 C.3       15 UNK        -0.1800 
     87 C          -3.1221  -25.8177  -50.6257 C.2       15 UNK         0.5000 
     88 O          -2.9244  -25.7561  -51.8401 O.2       15 UNK        -0.5000 
     89 N          -4.1254  -25.1713  -50.0098 N.am      16 UNK        -0.5000 
     90 CA         -5.0729  -24.2428  -50.6474 C.3       16 UNK         0.1400 
     91 CB         -6.0528  -25.0054  -51.5627 C.3       16 UNK        -0.1800 
     92 C          -4.3635  -23.0628  -51.3495 C.2       16 UNK         0.5000 
     93 O          -4.8020  -22.6130  -52.4101 O.2       16 UNK        -0.5000 
     94 N          -3.2451  -22.6243  -50.7492 N.am      17 UNK        -0.5000 
     95 CA         -2.2951  -21.6263  -51.2397 C.3       17 UNK         0.1400 
     96 CB         -2.9288  -20.2257  -51.2099 C.3       17 UNK        -0.1800 
     97 C          -1.7243  -22.0281  -52.6133 C.2       17 UNK         0.5000 
     98 O          -1.8834  -21.3043  -53.5950 O.2       17 UNK        -0.5000 
     99 N          -1.1310  -23.2316  -52.6581 N.am      18 UNK        -0.5000 
    100 CA        -0.6112  -23.9166  -53.8502 C.3       18 UNK         0.1400 
    101 CB         0.6296  -23.1827  -54.4002 C.3       18 UNK        -0.1800 
    102 C         -1.7008  -24.1505  -54.9209 C.2       18 UNK         0.5000 
    103 O         -1.4402  -24.0132  -56.1172 O.2       18 UNK        -0.5000 
    104 N         -2.9154  -24.4661  -54.4480 N.am      19 UNK        -0.5000 
    105 CA        -4.1681  -24.6424  -55.1899 C.3       19 UNK         0.1400 
    106 CB        -4.0766  -25.8664  -56.1240 C.3       19 UNK        -0.1800 
    107 C         -4.6796  -23.3816  -55.9244 C.2       19 UNK         0.5000 
    108 O         -5.6144  -23.4948  -56.7196 O.2       19 UNK        -0.5000 
    109 N         -4.0874  -22.2094  -55.6580 N.am      20 UNK        -0.5000 
    110 CA        -4.4099  -20.9492  -56.3274 C.3       20 UNK         0.1400 
    111 CB        -3.0984  -20.2272  -56.6743 C.3       20 UNK        -0.1800 
    112 C         -5.3336  -20.0416  -55.4949 C.2       20 UNK         0.5000 
    113 O         -5.8047  -19.0356  -56.0285 O.2       20 UNK        -0.5000 
    114 N         -5.5733  -20.3834  -54.2185 N.am      21 UNK        -0.5000 
    115 CA        -6.3729  -19.6751  -53.2053 C.3       21 UNK         0.1400 
    116 CB        -7.8452  -19.5356  -53.6362 C.3       21 UNK        -0.1800 
    117 C         -5.7860  -18.3202  -52.7539 C.2       21 UNK         0.5000 
    118 O         -5.7295  -18.0631  -51.5513 O.2       21 UNK        -0.5000 
    119 N         -5.3353  -17.5025  -53.7122 N.am      22 UNK        -0.5000 
    120 CA        -4.5521  -16.2650  -53.5358 C.3       22 UNK         0.1400 
    121 C         -5.3092  -15.0877  -52.8477 C.2       22 UNK         0.5000 
    122 N         -6.6326  -15.1198  -52.7502 N.am      22 UNK        -0.7600 
    123 O         -4.6969  -14.1094  -52.4281 O.2       22 UNK        -0.5000 
    124 C124       -3.1514  -16.5270  -52.9102 C.3       23 UNK        -0.0398 
    125 S125       -2.2075  -17.7892  -53.8358 S.3       23 UNK        -0.2404 
    126 C126       -0.5109  -17.1373  -53.8063 C.3       23 UNK        -0.0205 
    127 H127       -2.8045  -13.3401  -42.9416 H         1 UNK         0.0600 
    128 H128       -3.0693  -14.6549  -44.0862 H         1 UNK         0.0600 
    129 H129       -4.2611  -13.3576  -43.9417 H         1 UNK         0.0600 
    130 H130       -1.9964  -14.4502  -46.0103 H         1 UNK         0.3000 
    131 H131       -1.6132  -12.0166  -47.4649 H         1 UNK         0.0600 
    132 H132       -0.1640  -14.6834  -47.8850 H         1 UNK         0.0800 
    133 H133       -1.7894  -14.3983  -48.4341 H         1 UNK         0.0800 
    134 H134        1.8421  -13.7210  -50.8167 H         1 UNK         0.0800 
    135 H135        1.8259  -14.2885  -49.1705 H         1 UNK         0.0800 
    136 H136        0.1194  -14.8588  -52.4612 H         1 UNK         0.1150 
    137 H137        0.1400  -19.1249  -52.0463 H         1 UNK         0.1150 
    138 H138        1.5158  -16.6519  -48.8289 H         1 UNK         0.1150 
    139 H139        1.5637  -20.0495  -50.2220 H         1 UNK         0.0800 
    140 H140        2.0647  -19.0495  -48.8812 H         1 UNK         0.0800 
    141 H141        1.4870  -21.1880  -47.3428 H         1 UNK         0.0800 
    142 H142        0.9064  -22.0215  -48.7465 H         1 UNK         0.0800 
    143 H143        0.1214  -23.3666  -47.0915 H         1 UNK         0.0600 
    144 H144        0.1678  -21.1833  -45.2945 H         1 UNK         0.3000 
    145 H145       -1.2643  -23.1070  -42.5553 H         1 UNK         0.0600 
    146 H146        0.8452  -22.2991  -41.5271 H         1 UNK         0.0600 
    147 H147        1.1549  -23.6106  -42.6544 H         1 UNK         0.0600 
    148 H148        1.5146  -21.9562  -43.1206 H         1 UNK         0.0600 
    149 H149       -0.4462  -20.4001  -42.6038 H         1 UNK         0.3000 
    150 H150       -3.5670  -18.9820  -43.6702 H         1 UNK         0.0600 
    151 H151       -3.7395  -19.2684  -41.2139 H         1 UNK         0.0600 
    152 H152       -3.1096  -17.6717  -41.5947 H         1 UNK         0.0600 
    153 H153       -2.0245  -18.9358  -41.0207 H         1 UNK         0.0600 
    154 H154       -1.0850  -17.7508  -43.0799 H         1 UNK         0.3000 
    155 H155        0.4739  -18.2001  -46.2843 H         1 UNK         0.0600 
    156 H156        0.6967  -15.7705  -46.0397 H         1 UNK         0.0600 
    157 H157       -0.5497  -15.7300  -44.7973 H         1 UNK         0.0600 
    158 H158       -0.9685  -16.2011  -46.4374 H         1 UNK         0.0600 
    159 H159        1.1428  -17.1067  -43.6495 H         1 UNK         0.3000 
    160 H160        2.8542  -19.9696  -42.5276 H         1 UNK         0.0600 
    161 H161        4.1798  -17.4758  -43.7065 H         1 UNK         0.0600 
    162 H162        4.6070  -19.1415  -44.0656 H         1 UNK         0.0600 
    163 H163        4.8676  -18.5010  -42.4498 H         1 UNK         0.0600 
    164 H164        2.7240  -17.1939  -41.6867 H         1 UNK         0.3000 
    165 H165       -0.3159  -17.5354  -39.8500 H         1 UNK         0.0600 
    166 H166        1.1084  -16.8146  -37.9541 H         1 UNK         0.0600 
    167 H167        1.3882  -18.5134  -38.3020 H         1 UNK         0.0600 
    168 H168        2.5635  -17.3100  -38.8196 H         1 UNK         0.0600 
    169 H169        1.5794  -15.4116  -40.0618 H         1 UNK         0.3000 
    170 H170       -0.2057  -13.6570  -42.5497 H         1 UNK         0.0600 
    171 H171        0.2608  -13.1457  -40.1299 H         1 UNK         0.0600 
    172 H172        1.9768  -13.4354  -40.4030 H         1 UNK         0.0600 
    173 H173        1.1599  -12.1174  -41.2310 H         1 UNK         0.0600 
    174 H174        1.4949  -13.5879  -43.9412 H         1 UNK         0.3000 
    175 H175        3.8046  -13.2579  -44.3978 H         1 UNK         0.0600 
    176 H176        5.5960  -15.5884  -43.4924 H         1 UNK         0.0600 
    177 H177        6.0909  -14.2927  -44.5680 H         1 UNK         0.0600 
    178 H178        5.6903  -13.9377  -42.9000 H         1 UNK         0.0600 
    179 H179        3.0733  -16.0099  -44.9916 H         1 UNK         0.3000 
    180 H180        5.1625  -13.3369  -46.3647 H         1 UNK         0.0600 
    181 H181        5.5504  -12.8959  -48.7538 H         1 UNK         0.0600 
    182 H182        4.3492  -14.0971  -49.2164 H         1 UNK         0.0600 
    183 H183        5.8290  -14.5951  -48.4043 H         1 UNK         0.0600 
    184 H184        2.5091  -12.9233  -47.6761 H         1 UNK         0.3000 
    185 H185        1.8399  -10.1877  -45.7112 H         1 UNK         0.0600 
    186 H186        3.1473   -8.8509  -47.3788 H         1 UNK         0.0600 
    187 H187        2.4599   -9.8030  -48.6891 H         1 UNK         0.0600 
    188 H188        1.4240   -8.7713  -47.7013 H         1 UNK         0.0600 
    189 H189        0.4009  -10.9950  -47.9608 H         1 UNK         0.3000 
    190 H190       -2.3380  -20.8833  -46.4388 H         1 UNK         0.3000 
    191 H191       -4.2502  -21.7175  -48.3557 H         1 UNK         0.0600 
    192 H192       -4.3473  -19.5372  -47.2047 H         1 UNK         0.0600 
    193 H193       -5.8409  -20.4254  -46.9399 H         1 UNK         0.0600 
    194 H194       -4.6387  -20.3286  -45.6578 H         1 UNK         0.0600 
    195 H195       -3.7476  -22.7668  -44.9484 H         1 UNK         0.3000 
    196 H196       -6.0101  -24.5179  -44.8789 H         1 UNK         0.0600 
    197 H197       -4.9527  -25.3271  -42.7598 H         1 UNK         0.0600 
    198 H198       -5.0233  -23.5732  -42.8300 H         1 UNK         0.0600 
    199 H199       -3.4994  -24.4052  -43.1291 H         1 UNK         0.0600 
    200 H200       -2.4896  -25.1643  -45.3643 H         1 UNK         0.3000 
    201 H201       -2.9143  -28.0204  -45.4472 H         1 UNK         0.0600 
    202 H202       -0.9017  -26.9705  -44.4286 H         1 UNK         0.0600 
    203 H203       -0.4054  -26.3596  -46.0061 H         1 UNK         0.0600 
    204 H204       -0.4581  -28.0920  -45.7068 H         1 UNK         0.0600 
    205 H205       -2.2943  -25.5308  -47.9556 H         1 UNK         0.3000 
    206 H206       -2.2718  -27.6656  -50.0685 H         1 UNK         0.0600 
    207 H207        0.0150  -26.8309  -49.4887 H         1 UNK         0.0600 
    208 H208       -0.4421  -26.3634  -51.1157 H         1 UNK         0.0600 
    209 H209       -0.4986  -25.1778  -49.8147 H         1 UNK         0.0600 
    210 H210       -4.2119  -25.2696  -49.0078 H         1 UNK         0.3000 
    211 H211       -5.6685  -23.7921  -49.8564 H         1 UNK         0.0600 
    212 H212       -5.5377  -25.5393  -52.3593 H         1 UNK         0.0600 
    213 H213       -6.7713  -24.3291  -52.0272 H         1 UNK         0.0600 
    214 H214       -6.6238  -25.7381  -50.9927 H         1 UNK         0.0600 
    215 H215       -2.9651  -23.0851  -49.8872 H         1 UNK         0.3000 
    216 H216       -1.4573  -21.6266  -50.5430 H         1 UNK         0.0600 
    217 H217       -2.1811  -19.4584  -51.4009 H         1 UNK         0.0600 
    218 H218       -3.3704  -20.0082  -50.2375 H         1 UNK         0.0600 
    219 H219       -3.7048  -20.1226  -51.9653 H         1 UNK         0.0600 
    220 H220       -1.1128  -23.7771  -51.8089 H         1 UNK         0.3000 
    221 H221       -0.2923  -24.9067  -53.5214 H         1 UNK         0.0600 
    222 H222        0.3751  -22.2016  -54.8024 H         1 UNK         0.0600 
    223 H223        1.3809  -23.0420  -53.6233 H         1 UNK         0.0600 
    224 H224        1.0972  -23.7535  -55.2033 H         1 UNK         0.0600 
    225 H225       -2.9927  -24.6133  -53.4458 H         1 UNK         0.3000 
    226 H226       -4.9260  -24.8629  -54.4399 H         1 UNK         0.0600 
    227 H227       -3.7427  -26.7510  -55.5817 H         1 UNK         0.0600 
    228 H228       -5.0485  -26.1033  -56.5583 H         1 UNK         0.0600 
    229 H229       -3.3843  -25.6958  -56.9487 H         1 UNK         0.0600 
    230 H230       -3.3403  -22.1753  -54.9731 H         1 UNK         0.3000 
    231 H231       -4.9287  -21.1460  -57.2677 H         1 UNK         0.0600 
    232 H232       -2.5179  -19.9954  -55.7825 H         1 UNK         0.0600 
    233 H233       -3.2899  -19.2875  -57.1937 H         1 UNK         0.0600 
    234 H234       -2.4745  -20.8385  -57.3266 H         1 UNK         0.0600 
    235 H235       -5.1224  -21.2236  -53.8680 H         1 UNK         0.3000 
    236 H236       -6.3571  -20.3225  -52.3272 H         1 UNK         0.0600 
    237 H237       -8.2734  -20.5049  -53.8914 H         1 UNK         0.0600 
    238 H238       -8.4464  -19.1172  -52.8282 H         1 UNK         0.0600 
    239 H239       -7.9611  -18.8795  -54.4990 H         1 UNK         0.0600 
    240 H240       -5.4502  -17.8208  -54.6708 H         1 UNK         0.3000 
    241 H241       -4.3764  -15.9041  -54.5496 H         1 UNK         0.0600 
    242 H242       -7.1193  -14.3513  -52.3161 H         1 UNK         0.3800 
    243 H243       -7.1489  -15.9137  -53.0938 H         1 UNK         0.3800 
    244 H244       -2.5689  -15.6048  -52.8875 H         1 UNK         0.0800 
    245 H245       -3.2449  -16.8550  -51.8739 H         1 UNK         0.0800 
    246 H246        0.1306  -17.8098  -54.3773 H         1 UNK         0.0800 
    247 H247       -0.4884  -16.1787  -54.3269 H         1 UNK         0.0800 
@<TRIPOS>BOND
     1    1    2 1    
     2    1  127 1    
     3    1  128 1    
     4    1  129 1    
     5    2    3 2    
     6    2    4 am   BACKBONE|DICT|INTERRES
     7    4    5 1    
     8    4  130 1    
     9    5    6 1    
    10    5   65 1    
    11    5  131 1    
    12    6    7 1    
    13    6  132 1    
    14    6  133 1    
    15    7    8 1    
    16    8    9 1    
    17    8  134 1    
    18    8  135 1    
    19    9   10 ar   
    20    9   14 ar   
    21   10   11 ar   
    22   10  136 1    
    23   11   12 ar   
    24   11  126 1    
    25   12   13 ar   
    26   12  137 1    
    27   13   14 ar   
    28   13   15 1    
    29   14  138 1    
    30   15   16 1    
    31   15  139 1    
    32   15  140 1    
    33   16   17 1    
    34   17   18 1    
    35   17  141 1    
    36   17  142 1    
    37   18   19 1    
    38   18   67 1    
    39   18  143 1    
    40   19   20 am   BACKBONE|DICT|INTERRES
    41   19  144 1    
    42   20   21 2    
    43   20   22 1    
    44   22   23 1    
    45   22   24 1    
    46   22  145 1    
    47   23  146 1    
    48   23  147 1    
    49   23  148 1    
    50   24   25 am   BACKBONE|DICT|INTERRES
    51   24  149 1    
    52   25   26 2    
    53   25   27 1    
    54   27   28 1    
    55   27   29 1    
    56   27  150 1    
    57   28  151 1    
    58   28  152 1    
    59   28  153 1    
    60   29   30 am   BACKBONE|DICT|INTERRES
    61   29  154 1    
    62   30   31 2    
    63   30   32 1    
    64   32   33 1    
    65   32   34 1    
    66   32  155 1    
    67   33  156 1    
    68   33  157 1    
    69   33  158 1    
    70   34   35 am   BACKBONE|DICT|INTERRES
    71   34  159 1    
    72   35   36 2    
    73   35   37 1    
    74   37   38 1    
    75   37   39 1    
    76   37  160 1    
    77   38  161 1    
    78   38  162 1    
    79   38  163 1    
    80   39   40 am   BACKBONE|DICT|INTERRES
    81   39  164 1    
    82   40   41 2    
    83   40   42 1    
    84   42   43 1    
    85   42   44 1    
    86   42  165 1    
    87   43  166 1    
    88   43  167 1    
    89   43  168 1    
    90   44   45 am   BACKBONE|DICT|INTERRES
    91   44  169 1    
    92   45   46 2    
    93   45   47 1    
    94   47   48 1    
    95   47   49 1    
    96   47  170 1    
    97   48  171 1    
    98   48  172 1    
    99   48  173 1    
   100   49   50 am   BACKBONE|DICT|INTERRES
   101   49  174 1    
   102   50   51 2    
   103   50   52 1    
   104   52   53 1    
   105   52   54 1    
   106   52  175 1    
   107   53  176 1    
   108   53  177 1    
   109   53  178 1    
   110   54   55 am   BACKBONE|DICT|INTERRES
   111   54  179 1    
   112   55   56 2    
   113   55   57 1    
   114   57   58 1    
   115   57   59 1    
   116   57  180 1    
   117   58  181 1    
   118   58  182 1    
   119   58  183 1    
   120   59   60 am   BACKBONE|DICT|INTERRES
   121   59  184 1    
   122   60   61 2    
   123   60   62 1    
   124   62   63 1    
   125   62   64 1    
   126   62  185 1    
   127   63  186 1    
   128   63  187 1    
   129   63  188 1    
   130   64   65 am   BACKBONE|DICT|INTERRES
   131   64  189 1    
   132   65   66 2    
   133   67   68 2    
   134   67   69 am   BACKBONE|DICT|INTERRES
   135   69   70 1    
   136   69  190 1    
   137   70   71 1    
   138   70   72 1    
   139   70  191 1    
   140   71  192 1    
   141   71  193 1    
   142   71  194 1    
   143   72   73 2    
   144   72   74 am   BACKBONE|DICT|INTERRES
   145   74   75 1    
   146   74  195 1    
   147   75   76 1    
   148   75   77 1    
   149   75  196 1    
   150   76  197 1    
   151   76  198 1    
   152   76  199 1    
   153   77   78 2    
   154   77   79 am   BACKBONE|DICT|INTERRES
   155   79   80 1    
   156   79  200 1    
   157   80   81 1    
   158   80   82 1    
   159   80  201 1    
   160   81  202 1    
   161   81  203 1    
   162   81  204 1    
   163   82   83 2    
   164   82   84 am   BACKBONE|DICT|INTERRES
   165   84   85 1    
   166   84  205 1    
   167   85   86 1    
   168   85   87 1    
   169   85  206 1    
   170   86  207 1    
   171   86  208 1    
   172   86  209 1    
   173   87   88 2    
   174   87   89 am   BACKBONE|DICT|INTERRES
   175   89   90 1    
   176   89  210 1    
   177   90   91 1    
   178   90   92 1    
   179   90  211 1    
   180   91  212 1    
   181   91  213 1    
   182   91  214 1    
   183   92   93 2    
   184   92   94 am   BACKBONE|DICT|INTERRES
   185   94   95 1    
   186   94  215 1    
   187   95   96 1    
   188   95   97 1    
   189   95  216 1    
   190   96  217 1    
   191   96  218 1    
   192   96  219 1    
   193   97   98 2    
   194   97   99 am   BACKBONE|DICT|INTERRES
   195   99  100 1    
   196   99  220 1    
   197  100  101 1    
   198  100  102 1    
   199  100  221 1    
   200  101  222 1    
   201  101  223 1    
   202  101  224 1    
   203  102  103 2    
   204  102  104 am   BACKBONE|DICT|INTERRES
   205  104  105 1    
   206  104  225 1    
   207  105  106 1    
   208  105  107 1    
   209  105  226 1    
   210  106  227 1    
   211  106  228 1    
   212  106  229 1    
   213  107  108 2    
   214  107  109 am   BACKBONE|DICT|INTERRES
   215  109  110 1    
   216  109  230 1    
   217  110  111 1    
   218  110  112 1    
   219  110  231 1    
   220  111  232 1    
   221  111  233 1    
   222  111  234 1    
   223  112  113 2    
   224  112  114 am   BACKBONE|DICT|INTERRES
   225  114  115 1    
   226  114  235 1    
   227  115  116 1    
   228  115  117 1    
   229  115  236 1    
   230  116  237 1    
   231  116  238 1    
   232  116  239 1    
   233  117  118 2    
   234  117  119 am   BACKBONE|DICT|INTERRES
   235  119  120 1    
   236  119  240 1    
   237  120  121 1    
   238  120  124 1    
   239  120  241 1    
   240  121  122 am   BACKBONE|DICT|INTERRES
   241  121  123 2    
   242  122  242 1    
   243  122  243 1    
   244  124  125 1    
   245  124  244 1    
   246  124  245 1    
   247  125  126 1    
   248  126  246 1    
   249  126  247 1    
@<TRIPOS>SUBSTRUCTURE
     1 UNK         1 GROUP             0       ****    0 ROOT    
