@<TRIPOS>MOLECULE
3R540
247   249    1
SMALL
USER_CHARGES


@<TRIPOS>ATOM
      1 CA          0.5977  -14.2087  -45.0302 C.3       0 UNK        -0.1800 
      2 C           0.9363  -13.1705  -46.0908 C.2       0 UNK         0.5000 
      3 O           2.1128  -12.9164  -46.3437 O.2       0 UNK        -0.5000 
      4 N          -0.0919  -12.5754  -46.7128 N.am      1 UNK        -0.5000 
      5 CA         -0.0102  -11.5524  -47.7727 C.3       1 UNK         0.1400 
      6 C6          0.6890  -12.0426  -49.0739 C.3       23 UNK        -0.0398 
      7 S7         -0.2291  -13.4033  -49.8730 S.3       23 UNK        -0.2404 
      8 C8          0.7776  -14.8494  -49.4159 C.3       23 UNK        -0.0205 
      9 C9         -0.0205  -16.1383  -49.5321 C.ar      23 UNK        -0.0193 
     10 C10         0.3210  -17.1067  -50.4808 C.ar      23 UNK        -0.1150 
     11 C11        -0.4028  -18.3003  -50.5714 C.ar      23 UNK        -0.0193 
     12 C12        -1.4750  -18.5186  -49.7001 C.ar      23 UNK        -0.1150 
     13 C13        -1.8352  -17.5512  -48.7581 C.ar      23 UNK        -0.0193 
     14 C14        -1.0990  -16.3678  -48.6730 C.ar      23 UNK        -0.1150 
     15 C15        -3.0212  -17.7834  -47.8346 C.3       23 UNK        -0.0205 
     16 S16        -2.5197  -18.1180  -46.1144 S.3       23 UNK        -0.2404 
     17 C17        -1.2987  -19.4600  -46.3050 C.3       23 UNK        -0.0398 
     18 CA         -1.8850  -20.8045  -46.7992 C.3       11 UNK         0.1400 
     19 N          -0.8303  -21.6978  -47.2853 N.am      11 UNK        -0.5000 
     20 C          -1.0244  -22.8305  -47.9739 C.2       10 UNK         0.5000 
     21 O          -2.1311  -23.2521  -48.3017 O.2       10 UNK        -0.5000 
     22 CA          0.2283  -23.6498  -48.3278 C.3       10 UNK         0.1400 
     23 CB          0.8525  -23.1329  -49.6323 C.3       10 UNK        -0.1800 
     24 N           1.2263  -23.6296  -47.2565 N.am      10 UNK        -0.5000 
     25 C           1.0544  -24.2070  -46.0575 C.2       9 UNK         0.5000 
     26 O           0.0622  -24.8686  -45.7544 O.2       9 UNK        -0.5000 
     27 CA          2.1462  -23.9451  -45.0014 C.3       9 UNK         0.1400 
     28 CB          3.3098  -24.9338  -45.1672 C.3       9 UNK        -0.1800 
     29 N           2.6621  -22.5714  -45.0319 N.am      9 UNK        -0.5000 
     30 C           1.9135  -21.4794  -44.8280 C.2       8 UNK         0.5000 
     31 O           0.7028  -21.5232  -44.5969 O.2       8 UNK        -0.5000 
     32 CA          2.6193  -20.1181  -44.9810 C.3       8 UNK         0.1400 
     33 CB          2.8710  -19.8132  -46.4676 C.3       8 UNK        -0.1800 
     34 N           1.8243  -19.0264  -44.4179 N.am      8 UNK        -0.5000 
     35 C           1.6254  -18.8188  -43.1113 C.2       7 UNK         0.5000 
     36 O           2.1735  -19.4680  -42.2168 O.2       7 UNK        -0.5000 
     37 CA          0.6264  -17.7047  -42.7451 C.3       7 UNK         0.1400 
     38 CB         -0.7141  -18.3068  -42.2940 C.3       7 UNK        -0.1800 
     39 N           1.1463  -16.8415  -41.6849 N.am      7 UNK        -0.5000 
     40 C           2.1897  -16.0167  -41.8310 C.2       6 UNK         0.5000 
     41 O           2.7942  -15.8605  -42.8955 O.2       6 UNK        -0.5000 
     42 CA          2.6488  -15.2607  -40.5715 C.3       6 UNK         0.1400 
     43 CB          3.6170  -16.1252  -39.7486 C.3       6 UNK        -0.1800 
     44 N           3.3286  -14.0244  -40.9519 N.am      6 UNK        -0.5000 
     45 C           2.7075  -12.8706  -41.2165 C.2       5 UNK         0.5000 
     46 O           1.5068  -12.6723  -41.0162 O.2       5 UNK        -0.5000 
     47 CA          3.5759  -11.7777  -41.8600 C.3       5 UNK         0.1400 
     48 CB          3.5216  -11.8843  -43.3910 C.3       5 UNK        -0.1800 
     49 N           3.1432  -10.4404  -41.4623 N.am      5 UNK        -0.5000 
     50 C           3.5226   -9.8285  -40.3330 C.2       4 UNK         0.5000 
     51 O           4.2729  -10.3436  -39.5024 O.2       4 UNK        -0.5000 
     52 CA          3.0179   -8.3912  -40.0952 C.3       4 UNK         0.1400 
     53 CB          4.1587   -7.3838  -40.3121 C.3       4 UNK        -0.1800 
     54 N           1.9016   -8.0200  -40.9663 N.am      4 UNK        -0.5000 
     55 C           0.6121   -8.2593  -40.6957 C.2       3 UNK         0.5000 
     56 O           0.2182   -8.8128  -39.6686 O.2       3 UNK        -0.5000 
     57 CA         -0.4112   -7.8007  -41.7536 C.3       3 UNK         0.1400 
     58 CB         -0.9213   -6.3879  -41.4300 C.3       3 UNK        -0.1800 
     59 N           0.1097   -7.8202  -43.1254 N.am      3 UNK        -0.5000 
     60 C           0.4144   -8.9377  -43.7956 C.2       2 UNK         0.5000 
     61 O           0.3344  -10.0689  -43.3099 O.2       2 UNK        -0.5000 
     62 CA          0.9041   -8.7716  -45.2397 C.3       2 UNK         0.1400 
     63 CB          2.4215   -8.5149  -45.2815 C.3       2 UNK        -0.1800 
     64 N           0.5665   -9.9980  -45.9505 N.am      2 UNK        -0.5000 
     65 C           0.5310  -10.1880  -47.2734 C.2       1 UNK         0.5000 
     66 O           0.8543   -9.3201  -48.0862 O.2       1 UNK        -0.5000 
     67 C          -2.7490  -21.4915  -45.7251 C.2       11 UNK         0.5000 
     68 O          -3.9758  -21.4835  -45.8326 O.2       11 UNK        -0.5000 
     69 N          -2.0885  -22.1408  -44.7559 N.am      12 UNK        -0.5000 
     70 CA         -2.7123  -22.9567  -43.7112 C.3       12 UNK         0.1400 
     71 CB         -1.6274  -23.4225  -42.7288 C.3       12 UNK        -0.1800 
     72 C          -3.4982  -24.1609  -44.2701 C.2       12 UNK         0.5000 
     73 O          -4.5050  -24.5582  -43.6837 O.2       12 UNK        -0.5000 
     74 N          -3.0469  -24.6854  -45.4161 N.am      13 UNK        -0.5000 
     75 CA         -3.6941  -25.7448  -46.1866 C.3       13 UNK         0.1400 
     76 CB         -2.6033  -26.5638  -46.8968 C.3       13 UNK        -0.1800 
     77 C          -4.7486  -25.2226  -47.1885 C.2       13 UNK         0.5000 
     78 O          -5.2022  -26.0047  -48.0228 O.2       13 UNK        -0.5000 
     79 N          -5.1204  -23.9342  -47.1147 N.am      14 UNK        -0.5000 
     80 CA         -6.1159  -23.2491  -47.9499 C.3       14 UNK         0.1400 
     81 CB         -7.5265  -23.8299  -47.7156 C.3       14 UNK        -0.1800 
     82 C          -5.7131  -23.2227  -49.4379 C.2       14 UNK         0.5000 
     83 O          -6.4298  -23.7451  -50.2942 O.2       14 UNK        -0.5000 
     84 N          -4.5321  -22.6466  -49.6999 N.am      15 UNK        -0.5000 
     85 CA         -3.8403  -22.5823  -50.9925 C.3       15 UNK         0.1400 
     86 CB         -4.6094  -21.6974  -51.9942 C.3       15 UNK        -0.1800 
     87 C          -3.5129  -23.9876  -51.5348 C.2       15 UNK         0.5000 
     88 O          -3.6900  -24.2522  -52.7259 O.2       15 UNK        -0.5000 
     89 N          -3.0703  -24.8657  -50.6211 N.am      16 UNK        -0.5000 
     90 CA         -2.7946  -26.2930  -50.8138 C.3       16 UNK         0.1400 
     91 CB         -1.5341  -26.4810  -51.6821 C.3       16 UNK        -0.1800 
     92 C          -4.0238  -27.0466  -51.3626 C.2       16 UNK         0.5000 
     93 O          -3.9426  -27.6760  -52.4163 O.2       16 UNK        -0.5000 
     94 N          -5.1631  -26.9094  -50.6686 N.am      17 UNK        -0.5000 
     95 CA         -6.4974  -27.3835  -51.0585 C.3       17 UNK         0.1400 
     96 CB         -6.5727  -28.9219  -50.9755 C.3       17 UNK        -0.1800 
     97 C          -6.9376  -26.8263  -52.4307 C.2       17 UNK         0.5000 
     98 O          -7.4858  -27.5571  -53.2574 O.2       17 UNK        -0.5000 
     99 N          -6.6345  -25.5391  -52.6486 N.am      18 UNK        -0.5000 
    100 CA        -6.7955  -24.7562  -53.8765 C.3       18 UNK         0.1400 
    101 CB        -8.2851  -24.6281  -54.2550 C.3       18 UNK        -0.1800 
    102 C         -5.9267  -25.2129  -55.0718 C.2       18 UNK         0.5000 
    103 O         -6.0978  -24.6685  -56.1636 O.2       18 UNK        -0.5000 
    104 N         -5.0002  -26.1645  -54.8758 N.am      19 UNK        -0.5000 
    105 CA        -4.1234  -26.6770  -55.9319 C.3       19 UNK         0.1400 
    106 CB        -3.5638  -28.0509  -55.5351 C.3       19 UNK        -0.1800 
    107 C         -2.9768  -25.7123  -56.2813 C.2       19 UNK         0.5000 
    108 O         -2.5534  -25.6849  -57.4378 O.2       19 UNK        -0.5000 
    109 N         -2.4989  -24.9331  -55.2988 N.am      20 UNK        -0.5000 
    110 CA        -1.4984  -23.8845  -55.5175 C.3       20 UNK         0.1400 
    111 CB        -0.7347  -23.6014  -54.2136 C.3       20 UNK        -0.1800 
    112 C         -2.1409  -22.5942  -56.0542 C.2       20 UNK         0.5000 
    113 O         -1.4685  -21.8276  -56.7451 O.2       20 UNK        -0.5000 
    114 N         -3.4231  -22.3810  -55.7183 N.am      21 UNK        -0.5000 
    115 CA        -4.3141  -21.2653  -56.0674 C.3       21 UNK         0.1400 
    116 CB        -4.5163  -21.1655  -57.5907 C.3       21 UNK        -0.1800 
    117 C         -3.9082  -19.9045  -55.4655 C.2       21 UNK         0.5000 
    118 O         -4.7733  -19.1933  -54.9542 O.2       21 UNK        -0.5000 
    119 N         -2.6104  -19.5837  -55.5134 N.am      22 UNK        -0.5000 
    120 CA        -1.9556  -18.4136  -54.9031 C.3       22 UNK         0.1400 
    121 C         -2.3341  -17.0405  -55.5400 C.2       22 UNK         0.5000 
    122 N         -2.9239  -17.0027  -56.7288 N.am      22 UNK        -0.7600 
    123 O         -2.0600  -15.9879  -54.9699 O.2       22 UNK        -0.5000 
    124 C124       -2.0631  -18.4058  -53.3523 C.3       23 UNK        -0.0398 
    125 S125       -1.4400  -19.9472  -52.5859 S.3       23 UNK        -0.2404 
    126 C126       -0.0194  -19.3472  -51.6122 C.3       23 UNK        -0.0205 
    127 H127        0.9207  -13.8609  -44.0487 H         1 UNK         0.0600 
    128 H128        1.1127  -15.1450  -45.2457 H         1 UNK         0.0600 
    129 H129       -0.4723  -14.4128  -44.9861 H         1 UNK         0.0600 
    130 H130       -1.0328  -12.8350  -46.4512 H         1 UNK         0.3000 
    131 H131       -1.0475  -11.3401  -48.0363 H         1 UNK         0.0600 
    132 H132        0.7425  -11.2376  -49.8084 H         1 UNK         0.0800 
    133 H133        1.7210  -12.3397  -48.8845 H         1 UNK         0.0800 
    134 H134        1.6660  -14.8789  -50.0485 H         1 UNK         0.0800 
    135 H135        1.1341  -14.7562  -48.3916 H         1 UNK         0.0800 
    136 H136        1.1533  -16.9314  -51.1480 H         1 UNK         0.1150 
    137 H137       -2.0372  -19.4391  -49.7679 H         1 UNK         0.1150 
    138 H138       -1.3681  -15.6209  -47.9391 H         1 UNK         0.1150 
    139 H139       -3.6605  -16.8995  -47.8458 H         1 UNK         0.0800 
    140 H140       -3.6414  -18.6036  -48.1986 H         1 UNK         0.0800 
    141 H141       -0.8021  -19.5883  -45.3449 H         1 UNK         0.0800 
    142 H142       -0.5212  -19.1147  -46.9866 H         1 UNK         0.0800 
    143 H143       -2.5337  -20.6046  -47.6529 H         1 UNK         0.0600 
    144 H144        0.1107  -21.4723  -47.0032 H         1 UNK         0.3000 
    145 H145       -0.0835  -24.6842  -48.4869 H         1 UNK         0.0600 
    146 H146        1.6924  -23.7557  -49.9404 H         1 UNK         0.0600 
    147 H147        0.1250  -23.1458  -50.4458 H         1 UNK         0.0600 
    148 H148        1.2134  -22.1087  -49.5302 H         1 UNK         0.0600 
    149 H149        2.0761  -23.1128  -47.4276 H         1 UNK         0.3000 
    150 H150        1.6974  -24.1088  -44.0194 H         1 UNK         0.0600 
    151 H151        2.9540  -25.9644  -45.1310 H         1 UNK         0.0600 
    152 H152        4.0432  -24.8170  -44.3692 H         1 UNK         0.0600 
    153 H153        3.8239  -24.7971  -46.1193 H         1 UNK         0.0600 
    154 H154        3.6475  -22.4643  -45.2259 H         1 UNK         0.3000 
    155 H155        3.5767  -20.1618  -44.4576 H         1 UNK         0.0600 
    156 H156        3.5033  -20.5740  -46.9269 H         1 UNK         0.0600 
    157 H157        3.3810  -18.8575  -46.5915 H         1 UNK         0.0600 
    158 H158        1.9422  -19.7712  -47.0376 H         1 UNK         0.0600 
    159 H159        1.3432  -18.4393  -45.0815 H         1 UNK         0.3000 
    160 H160        0.4422  -17.0868  -43.6266 H         1 UNK         0.0600 
    161 H161       -0.6024  -18.9047  -41.3886 H         1 UNK         0.0600 
    162 H162       -1.1326  -18.9570  -43.0627 H         1 UNK         0.0600 
    163 H163       -1.4497  -17.5274  -42.0945 H         1 UNK         0.0600 
    164 H164        0.7265  -16.9486  -40.7731 H         1 UNK         0.3000 
    165 H165        1.7766  -15.0287  -39.9562 H         1 UNK         0.0600 
    166 H166        3.9472  -15.6018  -38.8511 H         1 UNK         0.0600 
    167 H167        3.1383  -17.0509  -39.4266 H         1 UNK         0.0600 
    168 H168        4.5030  -16.3979  -40.3236 H         1 UNK         0.0600 
    169 H169        4.3028  -14.1193  -41.1999 H         1 UNK         0.3000 
    170 H170        4.6124  -11.9253  -41.5481 H         1 UNK         0.0600 
    171 H171        3.8029  -12.8833  -43.7276 H         1 UNK         0.0600 
    172 H172        2.5203  -11.6837  -43.7728 H         1 UNK         0.0600 
    173 H173        4.2090  -11.1806  -43.8597 H         1 UNK         0.0600 
    174 H174        2.4409  -10.0033  -42.0416 H         1 UNK         0.3000 
    175 H175        2.7017   -8.3233  -39.0521 H         1 UNK         0.0600 
    176 H176        4.5265   -7.4064  -41.3388 H         1 UNK         0.0600 
    177 H177        3.8333   -6.3665  -40.0936 H         1 UNK         0.0600 
    178 H178        5.0030   -7.6005  -39.6563 H         1 UNK         0.0600 
    179 H179        2.1334   -7.5514  -41.8297 H         1 UNK         0.3000 
    180 H180       -1.2598   -8.4867  -41.7050 H         1 UNK         0.0600 
    181 H181       -0.1215   -5.6483  -41.4851 H         1 UNK         0.0600 
    182 H182       -1.3395   -6.3445  -40.4234 H         1 UNK         0.0600 
    183 H183       -1.7087   -6.0846  -42.1202 H         1 UNK         0.0600 
    184 H184        0.2036   -6.9259  -43.5857 H         1 UNK         0.3000 
    185 H185        0.3730   -7.9359  -45.6998 H         1 UNK         0.0600 
    186 H186        2.9810   -9.3467  -44.8546 H         1 UNK         0.0600 
    187 H187        2.7725   -8.3680  -46.3028 H         1 UNK         0.0600 
    188 H188        2.6840   -7.6181  -44.7193 H         1 UNK         0.0600 
    189 H189        0.2747  -10.7508  -45.3388 H         1 UNK         0.3000 
    190 H190       -1.0732  -22.0709  -44.7304 H         1 UNK         0.3000 
    191 H191       -3.4178  -22.3227  -43.1706 H         1 UNK         0.0600 
    192 H192       -0.8832  -24.0495  -43.2210 H         1 UNK         0.0600 
    193 H193       -1.1070  -22.5735  -42.2847 H         1 UNK         0.0600 
    194 H194       -2.0607  -24.0031  -41.9135 H         1 UNK         0.0600 
    195 H195       -2.1864  -24.3183  -45.8018 H         1 UNK         0.3000 
    196 H196       -4.2175  -26.4143  -45.5012 H         1 UNK         0.0600 
    197 H197       -1.8913  -26.9725  -46.1795 H         1 UNK         0.0600 
    198 H198       -2.0445  -25.9549  -47.6067 H         1 UNK         0.0600 
    199 H199       -3.0292  -27.4072  -47.4415 H         1 UNK         0.0600 
    200 H200       -4.6586  -23.3433  -46.4325 H         1 UNK         0.3000 
    201 H201       -6.1333  -22.2103  -47.6168 H         1 UNK         0.0600 
    202 H202       -8.2777  -23.2529  -48.2560 H         1 UNK         0.0600 
    203 H203       -7.7931  -23.8016  -46.6592 H         1 UNK         0.0600 
    204 H204       -7.6068  -24.8633  -48.0541 H         1 UNK         0.0600 
    205 H205       -3.9655  -22.3735  -48.9064 H         1 UNK         0.3000 
    206 H206       -2.8783  -22.1032  -50.8055 H         1 UNK         0.0600 
    207 H207       -4.7368  -20.6873  -51.6053 H         1 UNK         0.0600 
    208 H208       -5.5975  -22.0945  -52.2213 H         1 UNK         0.0600 
    209 H209       -4.0652  -21.6114  -52.9342 H         1 UNK         0.0600 
    210 H210       -2.9507  -24.5139  -49.6771 H         1 UNK         0.3000 
    211 H211       -2.5855  -26.7133  -49.8308 H         1 UNK         0.0600 
    212 H212       -0.6861  -25.9325  -51.2720 H         1 UNK         0.0600 
    213 H213       -1.2500  -27.5326  -51.7318 H         1 UNK         0.0600 
    214 H214       -1.6925  -26.1393  -52.7047 H         1 UNK         0.0600 
    215 H215       -5.1349  -26.4003  -49.7861 H         1 UNK         0.3000 
    216 H216       -7.1931  -26.9754  -50.3237 H         1 UNK         0.0600 
    217 H217       -7.5908  -29.2728  -51.1474 H         1 UNK         0.0600 
    218 H218       -5.9321  -29.4000  -51.7171 H         1 UNK         0.0600 
    219 H219       -6.2694  -29.2774  -49.9908 H         1 UNK         0.0600 
    220 H220       -6.2237  -25.0263  -51.8743 H         1 UNK         0.3000 
    221 H221       -6.4400  -23.7564  -53.6290 H         1 UNK         0.0600 
    222 H222       -8.7028  -25.5785  -54.5878 H         1 UNK         0.0600 
    223 H223       -8.8774  -24.2773  -53.4098 H         1 UNK         0.0600 
    224 H224       -8.4240  -23.9111  -55.0650 H         1 UNK         0.0600 
    225 H225       -4.8731  -26.5560  -53.9489 H         1 UNK         0.3000 
    226 H226       -4.7256  -26.8164  -56.8323 H         1 UNK         0.0600 
    227 H227       -4.3565  -28.7270  -55.2139 H         1 UNK         0.0600 
    228 H228       -3.0566  -28.5193  -56.3793 H         1 UNK         0.0600 
    229 H229       -2.8367  -27.9727  -54.7265 H         1 UNK         0.0600 
    230 H230       -2.9216  -24.9775  -54.3753 H         1 UNK         0.3000 
    231 H231       -0.7734  -24.2299  -56.2577 H         1 UNK         0.0600 
    232 H232        0.0654  -22.8801  -54.3842 H         1 UNK         0.0600 
    233 H233       -0.2745  -24.5062  -53.8175 H         1 UNK         0.0600 
    234 H234       -1.3816  -23.1832  -53.4433 H         1 UNK         0.0600 
    235 H235       -3.8414  -23.0810  -55.1222 H         1 UNK         0.3000 
    236 H236       -5.2802  -21.5217  -55.6292 H         1 UNK         0.0600 
    237 H237       -4.8753  -22.1099  -58.0003 H         1 UNK         0.0600 
    238 H238       -5.2566  -20.4027  -57.8348 H         1 UNK         0.0600 
    239 H239       -3.5947  -20.9029  -58.1105 H         1 UNK         0.0600 
    240 H240       -1.9933  -20.2470  -55.9756 H         1 UNK         0.3000 
    241 H241       -0.8980  -18.5310  -55.1411 H         1 UNK         0.0600 
    242 H242       -3.1559  -16.1128  -57.1414 H         1 UNK         0.3800 
    243 H243       -3.1461  -17.8564  -57.2152 H         1 UNK         0.3800 
    244 H244       -1.5131  -17.5573  -52.9438 H         1 UNK         0.0800 
    245 H245       -3.0986  -18.2645  -53.0404 H         1 UNK         0.0800 
    246 H246        0.7312  -18.9545  -52.2998 H         1 UNK         0.0800 
    247 H247        0.4401  -20.1949  -51.1032 H         1 UNK         0.0800 
@<TRIPOS>BOND
     1    1    2 1    
     2    1  127 1    
     3    1  128 1    
     4    1  129 1    
     5    2    3 2    
     6    2    4 am   BACKBONE|DICT|INTERRES
     7    4    5 1    
     8    4  130 1    
     9    5    6 1    
    10    5   65 1    
    11    5  131 1    
    12    6    7 1    
    13    6  132 1    
    14    6  133 1    
    15    7    8 1    
    16    8    9 1    
    17    8  134 1    
    18    8  135 1    
    19    9   10 ar   
    20    9   14 ar   
    21   10   11 ar   
    22   10  136 1    
    23   11   12 ar   
    24   11  126 1    
    25   12   13 ar   
    26   12  137 1    
    27   13   14 ar   
    28   13   15 1    
    29   14  138 1    
    30   15   16 1    
    31   15  139 1    
    32   15  140 1    
    33   16   17 1    
    34   17   18 1    
    35   17  141 1    
    36   17  142 1    
    37   18   19 1    
    38   18   67 1    
    39   18  143 1    
    40   19   20 am   BACKBONE|DICT|INTERRES
    41   19  144 1    
    42   20   21 2    
    43   20   22 1    
    44   22   23 1    
    45   22   24 1    
    46   22  145 1    
    47   23  146 1    
    48   23  147 1    
    49   23  148 1    
    50   24   25 am   BACKBONE|DICT|INTERRES
    51   24  149 1    
    52   25   26 2    
    53   25   27 1    
    54   27   28 1    
    55   27   29 1    
    56   27  150 1    
    57   28  151 1    
    58   28  152 1    
    59   28  153 1    
    60   29   30 am   BACKBONE|DICT|INTERRES
    61   29  154 1    
    62   30   31 2    
    63   30   32 1    
    64   32   33 1    
    65   32   34 1    
    66   32  155 1    
    67   33  156 1    
    68   33  157 1    
    69   33  158 1    
    70   34   35 am   BACKBONE|DICT|INTERRES
    71   34  159 1    
    72   35   36 2    
    73   35   37 1    
    74   37   38 1    
    75   37   39 1    
    76   37  160 1    
    77   38  161 1    
    78   38  162 1    
    79   38  163 1    
    80   39   40 am   BACKBONE|DICT|INTERRES
    81   39  164 1    
    82   40   41 2    
    83   40   42 1    
    84   42   43 1    
    85   42   44 1    
    86   42  165 1    
    87   43  166 1    
    88   43  167 1    
    89   43  168 1    
    90   44   45 am   BACKBONE|DICT|INTERRES
    91   44  169 1    
    92   45   46 2    
    93   45   47 1    
    94   47   48 1    
    95   47   49 1    
    96   47  170 1    
    97   48  171 1    
    98   48  172 1    
    99   48  173 1    
   100   49   50 am   BACKBONE|DICT|INTERRES
   101   49  174 1    
   102   50   51 2    
   103   50   52 1    
   104   52   53 1    
   105   52   54 1    
   106   52  175 1    
   107   53  176 1    
   108   53  177 1    
   109   53  178 1    
   110   54   55 am   BACKBONE|DICT|INTERRES
   111   54  179 1    
   112   55   56 2    
   113   55   57 1    
   114   57   58 1    
   115   57   59 1    
   116   57  180 1    
   117   58  181 1    
   118   58  182 1    
   119   58  183 1    
   120   59   60 am   BACKBONE|DICT|INTERRES
   121   59  184 1    
   122   60   61 2    
   123   60   62 1    
   124   62   63 1    
   125   62   64 1    
   126   62  185 1    
   127   63  186 1    
   128   63  187 1    
   129   63  188 1    
   130   64   65 am   BACKBONE|DICT|INTERRES
   131   64  189 1    
   132   65   66 2    
   133   67   68 2    
   134   67   69 am   BACKBONE|DICT|INTERRES
   135   69   70 1    
   136   69  190 1    
   137   70   71 1    
   138   70   72 1    
   139   70  191 1    
   140   71  192 1    
   141   71  193 1    
   142   71  194 1    
   143   72   73 2    
   144   72   74 am   BACKBONE|DICT|INTERRES
   145   74   75 1    
   146   74  195 1    
   147   75   76 1    
   148   75   77 1    
   149   75  196 1    
   150   76  197 1    
   151   76  198 1    
   152   76  199 1    
   153   77   78 2    
   154   77   79 am   BACKBONE|DICT|INTERRES
   155   79   80 1    
   156   79  200 1    
   157   80   81 1    
   158   80   82 1    
   159   80  201 1    
   160   81  202 1    
   161   81  203 1    
   162   81  204 1    
   163   82   83 2    
   164   82   84 am   BACKBONE|DICT|INTERRES
   165   84   85 1    
   166   84  205 1    
   167   85   86 1    
   168   85   87 1    
   169   85  206 1    
   170   86  207 1    
   171   86  208 1    
   172   86  209 1    
   173   87   88 2    
   174   87   89 am   BACKBONE|DICT|INTERRES
   175   89   90 1    
   176   89  210 1    
   177   90   91 1    
   178   90   92 1    
   179   90  211 1    
   180   91  212 1    
   181   91  213 1    
   182   91  214 1    
   183   92   93 2    
   184   92   94 am   BACKBONE|DICT|INTERRES
   185   94   95 1    
   186   94  215 1    
   187   95   96 1    
   188   95   97 1    
   189   95  216 1    
   190   96  217 1    
   191   96  218 1    
   192   96  219 1    
   193   97   98 2    
   194   97   99 am   BACKBONE|DICT|INTERRES
   195   99  100 1    
   196   99  220 1    
   197  100  101 1    
   198  100  102 1    
   199  100  221 1    
   200  101  222 1    
   201  101  223 1    
   202  101  224 1    
   203  102  103 2    
   204  102  104 am   BACKBONE|DICT|INTERRES
   205  104  105 1    
   206  104  225 1    
   207  105  106 1    
   208  105  107 1    
   209  105  226 1    
   210  106  227 1    
   211  106  228 1    
   212  106  229 1    
   213  107  108 2    
   214  107  109 am   BACKBONE|DICT|INTERRES
   215  109  110 1    
   216  109  230 1    
   217  110  111 1    
   218  110  112 1    
   219  110  231 1    
   220  111  232 1    
   221  111  233 1    
   222  111  234 1    
   223  112  113 2    
   224  112  114 am   BACKBONE|DICT|INTERRES
   225  114  115 1    
   226  114  235 1    
   227  115  116 1    
   228  115  117 1    
   229  115  236 1    
   230  116  237 1    
   231  116  238 1    
   232  116  239 1    
   233  117  118 2    
   234  117  119 am   BACKBONE|DICT|INTERRES
   235  119  120 1    
   236  119  240 1    
   237  120  121 1    
   238  120  124 1    
   239  120  241 1    
   240  121  122 am   BACKBONE|DICT|INTERRES
   241  121  123 2    
   242  122  242 1    
   243  122  243 1    
   244  124  125 1    
   245  124  244 1    
   246  124  245 1    
   247  125  126 1    
   248  126  246 1    
   249  126  247 1    
@<TRIPOS>SUBSTRUCTURE
     1 UNK         1 GROUP             0       ****    0 ROOT    
