@<TRIPOS>MOLECULE
3R540
247   249    1
SMALL
USER_CHARGES


@<TRIPOS>ATOM
      1 CA         -1.7672  -12.0001  -49.0303 C.3       0 UNK        -0.1800 
      2 C          -0.6006  -12.4055  -48.1420 C.2       0 UNK         0.5000 
      3 O          -0.8106  -12.7623  -46.9850 O.2       0 UNK        -0.5000 
      4 N           0.6288  -12.3374  -48.6719 N.am      1 UNK        -0.5000 
      5 CA          1.8811  -12.7632  -48.0213 C.3       1 UNK         0.1400 
      6 C6          1.9445  -14.2933  -47.7537 C.3       23 UNK        -0.0398 
      7 S7          1.6105  -15.2966  -49.2432 S.3       23 UNK        -0.2404 
      8 C8          2.8997  -16.5777  -49.1288 C.3       23 UNK        -0.0205 
      9 C9          2.5741  -17.7681  -50.0206 C.ar      23 UNK        -0.0193 
     10 C10         2.6218  -17.6379  -51.4109 C.ar      23 UNK        -0.1150 
     11 C11         2.3145  -18.7145  -52.2486 C.ar      23 UNK        -0.0193 
     12 C12         1.9630  -19.9427  -51.6672 C.ar      23 UNK        -0.1150 
     13 C13         1.9103  -20.0887  -50.2777 C.ar      23 UNK        -0.0193 
     14 C14         2.2223  -18.9995  -49.4609 C.ar      23 UNK        -0.1150 
     15 C15         1.4958  -21.4165  -49.6601 C.3       23 UNK        -0.0205 
     16 S16         2.9138  -22.5380  -49.4558 S.3       23 UNK        -0.2404 
     17 C17         2.0911  -24.0330  -48.7990 C.3       23 UNK        -0.0398 
     18 CA          2.4806  -24.3644  -47.3330 C.3       11 UNK         0.1400 
     19 N           2.2083  -23.2336  -46.4383 N.am      11 UNK        -0.5000 
     20 C           2.6866  -23.0605  -45.2002 C.2       10 UNK         0.5000 
     21 O           3.5524  -23.7788  -44.7006 O.2       10 UNK        -0.5000 
     22 CA          2.0429  -21.9426  -44.3529 C.3       10 UNK         0.1400 
     23 CB          3.0837  -20.8744  -43.9877 C.3       10 UNK        -0.1800 
     24 N           0.8694  -21.3004  -44.9663 N.am      10 UNK        -0.5000 
     25 C          -0.3160  -21.8893  -45.2070 C.2       9 UNK         0.5000 
     26 O          -0.5231  -23.0897  -45.0150 O.2       9 UNK        -0.5000 
     27 CA         -1.4449  -21.0199  -45.7966 C.3       9 UNK         0.1400 
     28 CB         -2.7360  -21.1416  -44.9705 C.3       9 UNK        -0.1800 
     29 N          -1.0556  -19.6097  -45.8959 N.am      9 UNK        -0.5000 
     30 C          -0.7811  -18.9888  -47.0504 C.2       8 UNK         0.5000 
     31 O          -0.9168  -19.5182  -48.1529 O.2       8 UNK        -0.5000 
     32 CA         -0.2868  -17.5346  -46.9985 C.3       8 UNK         0.1400 
     33 CB         -1.4118  -16.5538  -47.3538 C.3       8 UNK        -0.1800 
     34 N           0.3287  -17.1377  -45.7336 N.am      8 UNK        -0.5000 
     35 C           1.5231  -17.5742  -45.3133 C.2       7 UNK         0.5000 
     36 O           2.1526  -18.4606  -45.8863 O.2       7 UNK        -0.5000 
     37 CA          2.1127  -16.9270  -44.0516 C.3       7 UNK         0.1400 
     38 CB          2.7850  -15.5916  -44.3990 C.3       7 UNK        -0.1800 
     39 N           1.0774  -16.7079  -43.0441 N.am      7 UNK        -0.5000 
     40 C           0.9912  -17.3753  -41.8853 C.2       6 UNK         0.5000 
     41 O           1.8510  -18.1562  -41.4763 O.2       6 UNK        -0.5000 
     42 CA         -0.2838  -17.1607  -41.0422 C.3       6 UNK         0.1400 
     43 CB         -0.0429  -16.0854  -39.9723 C.3       6 UNK        -0.1800 
     44 N          -1.4658  -16.7965  -41.8281 N.am      6 UNK        -0.5000 
     45 C          -2.0015  -17.5377  -42.8091 C.2       5 UNK         0.5000 
     46 O          -1.5736  -18.6422  -43.1415 O.2       5 UNK        -0.5000 
     47 CA         -3.1655  -16.9177  -43.6073 C.3       5 UNK         0.1400 
     48 CB         -4.5139  -17.3996  -43.0540 C.3       5 UNK        -0.1800 
     49 N          -3.1652  -15.4502  -43.6717 N.am      5 UNK        -0.5000 
     50 C          -2.1498  -14.6777  -44.0858 C.2       4 UNK         0.5000 
     51 O          -1.0478  -15.1289  -44.4098 O.2       4 UNK        -0.5000 
     52 CA         -2.3869  -13.1547  -44.1441 C.3       4 UNK         0.1400 
     53 CB         -3.5962  -12.6615  -43.3162 C.3       4 UNK        -0.1800 
     54 N          -1.1598  -12.4295  -43.8001 N.am      4 UNK        -0.5000 
     55 C          -0.5449  -12.4152  -42.6079 C.2       3 UNK         0.5000 
     56 O          -1.0190  -12.9269  -41.5924 O.2       3 UNK        -0.5000 
     57 CA          0.8436  -11.7494  -42.5229 C.3       3 UNK         0.1400 
     58 CB          1.8761  -12.7272  -41.9388 C.3       3 UNK        -0.1800 
     59 N           1.3432  -11.2583  -43.8100 N.am      3 UNK        -0.5000 
     60 C           1.1196  -10.0394  -44.3126 C.2       2 UNK         0.5000 
     61 O           0.3939   -9.2057  -43.7698 O.2       2 UNK        -0.5000 
     62 CA          1.8190   -9.6786  -45.6400 C.3       2 UNK         0.1400 
     63 CB          3.2861   -9.2739  -45.4002 C.3       2 UNK        -0.1800 
     64 N           1.7084  -10.6923  -46.6986 N.am      2 UNK        -0.5000 
     65 C           2.2160  -11.9338  -46.7546 C.2       1 UNK         0.5000 
     66 O           2.9062  -12.4258  -45.8604 O.2       1 UNK        -0.5000 
     67 C           1.7853  -25.6755  -46.8708 C.2       11 UNK         0.5000 
     68 O           1.8781  -26.6788  -47.5786 O.2       11 UNK        -0.5000 
     69 N           1.0855  -25.6393  -45.7229 N.am      12 UNK        -0.5000 
     70 CA          0.2108  -26.6679  -45.1488 C.3       12 UNK         0.1400 
     71 CB          0.9606  -27.9923  -44.8918 C.3       12 UNK        -0.1800 
     72 C          -1.0683  -26.8263  -45.9908 C.2       12 UNK         0.5000 
     73 O          -1.4921  -27.9435  -46.2937 O.2       12 UNK        -0.5000 
     74 N          -1.6353  -25.6791  -46.3796 N.am      13 UNK        -0.5000 
     75 CA         -2.8034  -25.5708  -47.2439 C.3       13 UNK         0.1400 
     76 CB         -2.6096  -24.3392  -48.1352 C.3       13 UNK        -0.1800 
     77 C          -4.0981  -25.4401  -46.4273 C.2       13 UNK         0.5000 
     78 O          -4.0602  -25.0851  -45.2468 O.2       13 UNK        -0.5000 
     79 N          -5.2304  -25.6970  -47.0941 N.am      14 UNK        -0.5000 
     80 CA         -6.5766  -25.5617  -46.5316 C.3       14 UNK         0.1400 
     81 CB         -7.5712  -26.2958  -47.4447 C.3       14 UNK        -0.1800 
     82 C          -7.0143  -24.0960  -46.3352 C.2       14 UNK         0.5000 
     83 O          -7.8728  -23.8310  -45.4928 O.2       14 UNK        -0.5000 
     84 N          -6.4243  -23.1777  -47.1089 N.am      15 UNK        -0.5000 
     85 CA         -6.6591  -21.7395  -47.0676 C.3       15 UNK         0.1400 
     86 CB         -8.0082  -21.3930  -47.7320 C.3       15 UNK        -0.1800 
     87 C          -5.4761  -21.0210  -47.7366 C.2       15 UNK         0.5000 
     88 O          -4.5761  -21.6762  -48.2729 O.2       15 UNK        -0.5000 
     89 N          -5.4975  -19.6853  -47.6769 N.am      16 UNK        -0.5000 
     90 CA         -4.4661  -18.7873  -48.1930 C.3       16 UNK         0.1400 
     91 CB         -4.8895  -17.3403  -47.8921 C.3       16 UNK        -0.1800 
     92 C          -4.1690  -18.9579  -49.6974 C.2       16 UNK         0.5000 
     93 O          -5.0937  -19.1651  -50.4849 O.2       16 UNK        -0.5000 
     94 N          -2.8821  -18.8257  -50.0492 N.am      17 UNK        -0.5000 
     95 CA         -2.2987  -18.8991  -51.3913 C.3       17 UNK         0.1400 
     96 CB         -2.8366  -17.7747  -52.3005 C.3       17 UNK        -0.1800 
     97 C          -2.4437  -20.3018  -52.0057 C.2       17 UNK         0.5000 
     98 O          -2.8439  -20.4342  -53.1631 O.2       17 UNK        -0.5000 
     99 N          -2.1179  -21.3283  -51.2046 N.am      18 UNK        -0.5000 
    100 CA        -2.2377  -22.7560  -51.5277 C.3       18 UNK         0.1400 
    101 CB        -1.2227  -23.1676  -52.6134 C.3       18 UNK        -0.1800 
    102 C         -3.6894  -23.1286  -51.8893 C.2       18 UNK         0.5000 
    103 O         -3.9464  -23.6837  -52.9588 O.2       18 UNK        -0.5000 
    104 N         -4.6243  -22.7057  -51.0270 N.am      19 UNK        -0.5000 
    105 CA        -6.0865  -22.7429  -51.1587 C.3       19 UNK         0.1400 
    106 CB        -6.6059  -24.1851  -51.3082 C.3       19 UNK        -0.1800 
    107 C         -6.6691  -21.8104  -52.2434 C.2       19 UNK         0.5000 
    108 O         -7.7835  -21.3193  -52.0628 O.2       19 UNK        -0.5000 
    109 N         -5.9092  -21.5748  -53.3188 N.am      20 UNK        -0.5000 
    110 CA        -6.1730  -20.6988  -54.4624 C.3       20 UNK         0.1400 
    111 CB        -7.5478  -20.9819  -55.1064 C.3       20 UNK        -0.1800 
    112 C         -5.0822  -20.8628  -55.5371 C.2       20 UNK         0.5000 
    113 O         -4.8698  -19.9364  -56.3212 O.2       20 UNK        -0.5000 
    114 N         -4.4246  -22.0338  -55.5783 N.am      21 UNK        -0.5000 
    115 CA        -3.5012  -22.4586  -56.6352 C.3       21 UNK         0.1400 
    116 CB        -3.0750  -23.9099  -56.3648 C.3       21 UNK        -0.1800 
    117 C         -2.2616  -21.5654  -56.8402 C.2       21 UNK         0.5000 
    118 O         -1.7254  -21.5375  -57.9491 O.2       21 UNK        -0.5000 
    119 N         -1.8334  -20.8558  -55.7906 N.am      22 UNK        -0.5000 
    120 CA        -0.7235  -19.8917  -55.8209 C.3       22 UNK         0.1400 
    121 C         -1.1760  -18.4314  -56.1231 C.2       22 UNK         0.5000 
    122 N         -2.4581  -18.1552  -56.3369 N.am      22 UNK        -0.7600 
    123 O         -0.3475  -17.5273  -56.1795 O.2       22 UNK        -0.5000 
    124 C124        0.1270  -19.9933  -54.5253 C.3       23 UNK        -0.0398 
    125 S125        1.9223  -19.8879  -54.8283 S.3       23 UNK        -0.2404 
    126 C126        2.3850  -18.4801  -53.7616 C.3       23 UNK        -0.0205 
    127 H127       -2.4565  -12.8368  -49.1443 H         1 UNK         0.0600 
    128 H128       -1.4348  -11.6948  -50.0226 H         1 UNK         0.0600 
    129 H129       -2.3096  -11.1685  -48.5806 H         1 UNK         0.0600 
    130 H130        0.7295  -12.0294  -49.6290 H         1 UNK         0.3000 
    131 H131        2.6752  -12.5293  -48.7318 H         1 UNK         0.0600 
    132 H132        2.9282  -14.5631  -47.3670 H         1 UNK         0.0800 
    133 H133        1.2249  -14.5777  -46.9850 H         1 UNK         0.0800 
    134 H134        3.8616  -16.1526  -49.4183 H         1 UNK         0.0800 
    135 H135        3.0014  -16.9015  -48.0919 H         1 UNK         0.0800 
    136 H136        2.8927  -16.6843  -51.8426 H         1 UNK         0.1150 
    137 H137        1.7291  -20.7988  -52.2815 H         1 UNK         0.1150 
    138 H138        2.1853  -19.1140  -48.3875 H         1 UNK         0.1150 
    139 H139        1.0290  -21.2488  -48.6891 H         1 UNK         0.0800 
    140 H140        0.7414  -21.8922  -50.2874 H         1 UNK         0.0800 
    141 H141        1.0089  -23.9259  -48.8910 H         1 UNK         0.0800 
    142 H142        2.3649  -24.8590  -49.4579 H         1 UNK         0.0800 
    143 H143        3.5550  -24.5573  -47.3068 H         1 UNK         0.0600 
    144 H144        1.5123  -22.5781  -46.7570 H         1 UNK         0.3000 
    145 H145        1.7047  -22.4079  -43.4250 H         1 UNK         0.0600 
    146 H146        2.6431  -20.0818  -43.3836 H         1 UNK         0.0600 
    147 H147        3.5250  -20.4231  -44.8764 H         1 UNK         0.0600 
    148 H148        3.8988  -21.3070  -43.4063 H         1 UNK         0.0600 
    149 H149        0.9815  -20.3260  -45.2142 H         1 UNK         0.3000 
    150 H150       -1.6588  -21.4221  -46.7878 H         1 UNK         0.0600 
    151 H151       -2.5672  -20.9192  -43.9171 H         1 UNK         0.0600 
    152 H152       -3.5073  -20.4650  -45.3378 H         1 UNK         0.0600 
    153 H153       -3.1389  -22.1539  -45.0280 H         1 UNK         0.0600 
    154 H154       -0.9669  -19.1105  -45.0159 H         1 UNK         0.3000 
    155 H155        0.4749  -17.4482  -47.7711 H         1 UNK         0.0600 
    156 H156       -1.7841  -16.7385  -48.3612 H         1 UNK         0.0600 
    157 H157       -1.0579  -15.5234  -47.3323 H         1 UNK         0.0600 
    158 H158       -2.2511  -16.6300  -46.6650 H         1 UNK         0.0600 
    159 H159       -0.1399  -16.3899  -45.2246 H         1 UNK         0.3000 
    160 H160        2.8864  -17.5995  -43.6761 H         1 UNK         0.0600 
    161 H161        2.0553  -14.8372  -44.6944 H         1 UNK         0.0600 
    162 H162        3.4934  -15.7088  -45.2199 H         1 UNK         0.0600 
    163 H163        3.3448  -15.2047  -43.5480 H         1 UNK         0.0600 
    164 H164        0.3107  -16.0984  -43.3091 H         1 UNK         0.3000 
    165 H165       -0.5035  -18.1038  -40.5379 H         1 UNK         0.0600 
    166 H166       -0.9101  -15.9720  -39.3217 H         1 UNK         0.0600 
    167 H167        0.8060  -16.3469  -39.3392 H         1 UNK         0.0600 
    168 H168        0.1702  -15.1148  -40.4211 H         1 UNK         0.0600 
    169 H169       -1.8619  -15.8850  -41.6485 H         1 UNK         0.3000 
    170 H170       -3.0773  -17.2874  -44.6294 H         1 UNK         0.0600 
    171 H171       -4.5549  -18.4894  -43.0182 H         1 UNK         0.0600 
    172 H172       -4.6883  -17.0303  -42.0427 H         1 UNK         0.0600 
    173 H173       -5.3405  -17.0668  -43.6820 H         1 UNK         0.0600 
    174 H174       -4.0259  -14.9954  -43.4035 H         1 UNK         0.3000 
    175 H175       -2.6016  -12.9223  -45.1863 H         1 UNK         0.0600 
    176 H176       -3.5401  -12.9722  -42.2726 H         1 UNK         0.0600 
    177 H177       -3.6619  -11.5735  -43.3340 H         1 UNK         0.0600 
    178 H178       -4.5336  -13.0412  -43.7239 H         1 UNK         0.0600 
    179 H179       -0.6580  -12.0485  -44.5906 H         1 UNK         0.3000 
    180 H180        0.7541  -10.9087  -41.8319 H         1 UNK         0.0600 
    181 H181        1.9250  -13.6463  -42.5202 H         1 UNK         0.0600 
    182 H182        1.6192  -13.0036  -40.9155 H         1 UNK         0.0600 
    183 H183        2.8734  -12.2876  -41.9141 H         1 UNK         0.0600 
    184 H184        1.9460  -11.8798  -44.3438 H         1 UNK         0.3000 
    185 H185        1.3035   -8.7991  -46.0292 H         1 UNK         0.0600 
    186 H186        3.3495   -8.4474  -44.6913 H         1 UNK         0.0600 
    187 H187        3.8770  -10.0949  -44.9933 H         1 UNK         0.0600 
    188 H188        3.7605   -8.9454  -46.3249 H         1 UNK         0.0600 
    189 H189        1.1285  -10.4189  -47.4797 H         1 UNK         0.3000 
    190 H190        1.0383  -24.7450  -45.2532 H         1 UNK         0.3000 
    191 H191       -0.1105  -26.2841  -44.1793 H         1 UNK         0.0600 
    192 H192        0.3383  -28.6837  -44.3228 H         1 UNK         0.0600 
    193 H193        1.8704  -27.8246  -44.3154 H         1 UNK         0.0600 
    194 H194        1.2370  -28.4955  -45.8183 H         1 UNK         0.0600 
    195 H195       -1.2722  -24.8101  -46.0045 H         1 UNK         0.3000 
    196 H196       -2.8763  -26.4548  -47.8813 H         1 UNK         0.0600 
    197 H197       -2.6089  -23.4186  -47.5523 H         1 UNK         0.0600 
    198 H198       -1.6623  -24.3975  -48.6702 H         1 UNK         0.0600 
    199 H199       -3.4073  -24.2618  -48.8738 H         1 UNK         0.0600 
    200 H200       -5.1768  -25.9930  -48.0579 H         1 UNK         0.3000 
    201 H201       -6.5910  -26.0445  -45.5521 H         1 UNK         0.0600 
    202 H202       -8.5831  -26.2449  -47.0405 H         1 UNK         0.0600 
    203 H203       -7.3146  -27.3509  -47.5412 H         1 UNK         0.0600 
    204 H204       -7.5961  -25.8619  -48.4452 H         1 UNK         0.0600 
    205 H205       -5.6764  -23.4553  -47.7306 H         1 UNK         0.3000 
    206 H206       -6.6809  -21.4208  -46.0234 H         1 UNK         0.0600 
    207 H207       -8.8399  -21.8537  -47.1991 H         1 UNK         0.0600 
    208 H208       -8.1912  -20.3183  -47.7310 H         1 UNK         0.0600 
    209 H209       -8.0557  -21.7309  -48.7661 H         1 UNK         0.0600 
    210 H210       -6.2918  -19.2365  -47.2457 H         1 UNK         0.3000 
    211 H211       -3.5567  -19.0028  -47.6336 H         1 UNK         0.0600 
    212 H212       -5.8668  -17.1138  -48.3204 H         1 UNK         0.0600 
    213 H213       -4.1839  -16.6219  -48.3095 H         1 UNK         0.0600 
    214 H214       -4.9421  -17.1583  -46.8183 H         1 UNK         0.0600 
    215 H215       -2.1919  -18.7841  -49.3045 H         1 UNK         0.3000 
    216 H216       -1.2273  -18.7328  -51.2663 H         1 UNK         0.0600 
    217 H217       -2.7127  -16.7975  -51.8342 H         1 UNK         0.0600 
    218 H218       -3.8943  -17.9072  -52.5302 H         1 UNK         0.0600 
    219 H219       -2.3000  -17.7516  -53.2493 H         1 UNK         0.0600 
    220 H220       -1.8301  -21.1093  -50.2605 H         1 UNK         0.3000 
    221 H221       -1.9824  -23.3033  -50.6242 H         1 UNK         0.0600 
    222 H222       -1.2153  -24.2501  -52.7443 H         1 UNK         0.0600 
    223 H223       -1.4636  -22.7296  -53.5811 H         1 UNK         0.0600 
    224 H224       -0.2098  -22.8659  -52.3482 H         1 UNK         0.0600 
    225 H225       -4.3079  -22.2154  -50.1957 H         1 UNK         0.3000 
    226 H226       -6.4613  -22.3659  -50.2101 H         1 UNK         0.0600 
    227 H227       -6.2337  -24.8233  -50.5071 H         1 UNK         0.0600 
    228 H228       -7.6953  -24.2100  -51.2640 H         1 UNK         0.0600 
    229 H229       -6.3105  -24.6297  -52.2587 H         1 UNK         0.0600 
    230 H230       -4.9920  -22.0062  -53.3141 H         1 UNK         0.3000 
    231 H231       -6.1416  -19.6660  -54.1111 H         1 UNK         0.0600 
    232 H232       -7.6652  -20.4331  -56.0420 H         1 UNK         0.0600 
    233 H233       -8.3703  -20.6719  -54.4632 H         1 UNK         0.0600 
    234 H234       -7.6745  -22.0415  -55.3307 H         1 UNK         0.0600 
    235 H235       -4.6377  -22.7395  -54.8861 H         1 UNK         0.3000 
    236 H236       -4.0608  -22.4417  -57.5725 H         1 UNK         0.0600 
    237 H237       -3.9378  -24.5751  -56.3265 H         1 UNK         0.0600 
    238 H238       -2.4160  -24.2791  -57.1517 H         1 UNK         0.0600 
    239 H239       -2.5401  -24.0014  -55.4190 H         1 UNK         0.0600 
    240 H240       -2.3577  -20.8899  -54.9191 H         1 UNK         0.3000 
    241 H241       -0.0786  -20.1627  -56.6585 H         1 UNK         0.0600 
    242 H242       -3.1666  -18.8812  -56.3106 H         1 UNK         0.3800 
    243 H243       -2.7294  -17.2065  -56.5390 H         1 UNK         0.3800 
    244 H244       -0.0286  -20.9579  -54.0449 H         1 UNK         0.0800 
    245 H245       -0.1813  -19.2519  -53.7867 H         1 UNK         0.0800 
    246 H246        1.7559  -17.6272  -54.0219 H         1 UNK         0.0800 
    247 H247        3.4070  -18.1944  -54.0144 H         1 UNK         0.0800 
@<TRIPOS>BOND
     1    1    2 1    
     2    1  127 1    
     3    1  128 1    
     4    1  129 1    
     5    2    3 2    
     6    2    4 am   BACKBONE|DICT|INTERRES
     7    4    5 1    
     8    4  130 1    
     9    5    6 1    
    10    5   65 1    
    11    5  131 1    
    12    6    7 1    
    13    6  132 1    
    14    6  133 1    
    15    7    8 1    
    16    8    9 1    
    17    8  134 1    
    18    8  135 1    
    19    9   10 ar   
    20    9   14 ar   
    21   10   11 ar   
    22   10  136 1    
    23   11   12 ar   
    24   11  126 1    
    25   12   13 ar   
    26   12  137 1    
    27   13   14 ar   
    28   13   15 1    
    29   14  138 1    
    30   15   16 1    
    31   15  139 1    
    32   15  140 1    
    33   16   17 1    
    34   17   18 1    
    35   17  141 1    
    36   17  142 1    
    37   18   19 1    
    38   18   67 1    
    39   18  143 1    
    40   19   20 am   BACKBONE|DICT|INTERRES
    41   19  144 1    
    42   20   21 2    
    43   20   22 1    
    44   22   23 1    
    45   22   24 1    
    46   22  145 1    
    47   23  146 1    
    48   23  147 1    
    49   23  148 1    
    50   24   25 am   BACKBONE|DICT|INTERRES
    51   24  149 1    
    52   25   26 2    
    53   25   27 1    
    54   27   28 1    
    55   27   29 1    
    56   27  150 1    
    57   28  151 1    
    58   28  152 1    
    59   28  153 1    
    60   29   30 am   BACKBONE|DICT|INTERRES
    61   29  154 1    
    62   30   31 2    
    63   30   32 1    
    64   32   33 1    
    65   32   34 1    
    66   32  155 1    
    67   33  156 1    
    68   33  157 1    
    69   33  158 1    
    70   34   35 am   BACKBONE|DICT|INTERRES
    71   34  159 1    
    72   35   36 2    
    73   35   37 1    
    74   37   38 1    
    75   37   39 1    
    76   37  160 1    
    77   38  161 1    
    78   38  162 1    
    79   38  163 1    
    80   39   40 am   BACKBONE|DICT|INTERRES
    81   39  164 1    
    82   40   41 2    
    83   40   42 1    
    84   42   43 1    
    85   42   44 1    
    86   42  165 1    
    87   43  166 1    
    88   43  167 1    
    89   43  168 1    
    90   44   45 am   BACKBONE|DICT|INTERRES
    91   44  169 1    
    92   45   46 2    
    93   45   47 1    
    94   47   48 1    
    95   47   49 1    
    96   47  170 1    
    97   48  171 1    
    98   48  172 1    
    99   48  173 1    
   100   49   50 am   BACKBONE|DICT|INTERRES
   101   49  174 1    
   102   50   51 2    
   103   50   52 1    
   104   52   53 1    
   105   52   54 1    
   106   52  175 1    
   107   53  176 1    
   108   53  177 1    
   109   53  178 1    
   110   54   55 am   BACKBONE|DICT|INTERRES
   111   54  179 1    
   112   55   56 2    
   113   55   57 1    
   114   57   58 1    
   115   57   59 1    
   116   57  180 1    
   117   58  181 1    
   118   58  182 1    
   119   58  183 1    
   120   59   60 am   BACKBONE|DICT|INTERRES
   121   59  184 1    
   122   60   61 2    
   123   60   62 1    
   124   62   63 1    
   125   62   64 1    
   126   62  185 1    
   127   63  186 1    
   128   63  187 1    
   129   63  188 1    
   130   64   65 am   BACKBONE|DICT|INTERRES
   131   64  189 1    
   132   65   66 2    
   133   67   68 2    
   134   67   69 am   BACKBONE|DICT|INTERRES
   135   69   70 1    
   136   69  190 1    
   137   70   71 1    
   138   70   72 1    
   139   70  191 1    
   140   71  192 1    
   141   71  193 1    
   142   71  194 1    
   143   72   73 2    
   144   72   74 am   BACKBONE|DICT|INTERRES
   145   74   75 1    
   146   74  195 1    
   147   75   76 1    
   148   75   77 1    
   149   75  196 1    
   150   76  197 1    
   151   76  198 1    
   152   76  199 1    
   153   77   78 2    
   154   77   79 am   BACKBONE|DICT|INTERRES
   155   79   80 1    
   156   79  200 1    
   157   80   81 1    
   158   80   82 1    
   159   80  201 1    
   160   81  202 1    
   161   81  203 1    
   162   81  204 1    
   163   82   83 2    
   164   82   84 am   BACKBONE|DICT|INTERRES
   165   84   85 1    
   166   84  205 1    
   167   85   86 1    
   168   85   87 1    
   169   85  206 1    
   170   86  207 1    
   171   86  208 1    
   172   86  209 1    
   173   87   88 2    
   174   87   89 am   BACKBONE|DICT|INTERRES
   175   89   90 1    
   176   89  210 1    
   177   90   91 1    
   178   90   92 1    
   179   90  211 1    
   180   91  212 1    
   181   91  213 1    
   182   91  214 1    
   183   92   93 2    
   184   92   94 am   BACKBONE|DICT|INTERRES
   185   94   95 1    
   186   94  215 1    
   187   95   96 1    
   188   95   97 1    
   189   95  216 1    
   190   96  217 1    
   191   96  218 1    
   192   96  219 1    
   193   97   98 2    
   194   97   99 am   BACKBONE|DICT|INTERRES
   195   99  100 1    
   196   99  220 1    
   197  100  101 1    
   198  100  102 1    
   199  100  221 1    
   200  101  222 1    
   201  101  223 1    
   202  101  224 1    
   203  102  103 2    
   204  102  104 am   BACKBONE|DICT|INTERRES
   205  104  105 1    
   206  104  225 1    
   207  105  106 1    
   208  105  107 1    
   209  105  226 1    
   210  106  227 1    
   211  106  228 1    
   212  106  229 1    
   213  107  108 2    
   214  107  109 am   BACKBONE|DICT|INTERRES
   215  109  110 1    
   216  109  230 1    
   217  110  111 1    
   218  110  112 1    
   219  110  231 1    
   220  111  232 1    
   221  111  233 1    
   222  111  234 1    
   223  112  113 2    
   224  112  114 am   BACKBONE|DICT|INTERRES
   225  114  115 1    
   226  114  235 1    
   227  115  116 1    
   228  115  117 1    
   229  115  236 1    
   230  116  237 1    
   231  116  238 1    
   232  116  239 1    
   233  117  118 2    
   234  117  119 am   BACKBONE|DICT|INTERRES
   235  119  120 1    
   236  119  240 1    
   237  120  121 1    
   238  120  124 1    
   239  120  241 1    
   240  121  122 am   BACKBONE|DICT|INTERRES
   241  121  123 2    
   242  122  242 1    
   243  122  243 1    
   244  124  125 1    
   245  124  244 1    
   246  124  245 1    
   247  125  126 1    
   248  126  246 1    
   249  126  247 1    
@<TRIPOS>SUBSTRUCTURE
     1 UNK         1 GROUP             0       ****    0 ROOT    
