@<TRIPOS>MOLECULE
3R540
247   249    1
SMALL
USER_CHARGES


@<TRIPOS>ATOM
      1 CA          1.2113  -10.3490  -45.8894 C.3       0 UNK        -0.1800 
      2 C           0.2619  -11.5351  -45.7363 C.2       0 UNK         0.5000 
      3 O          -0.4263  -11.6221  -44.7224 O.2       0 UNK        -0.5000 
      4 N           0.1616  -12.4598  -46.7027 N.am      1 UNK        -0.5000 
      5 CA          0.9308  -12.5761  -47.9477 C.3       1 UNK         0.1400 
      6 C6          0.4426  -13.7553  -48.8267 C.3       23 UNK        -0.0398 
      7 S7         -1.3310  -13.7152  -49.2504 S.3       23 UNK        -0.2404 
      8 C8         -1.7248  -15.4977  -49.3454 C.3       23 UNK        -0.0205 
      9 C9         -0.7787  -16.2490  -50.2722 C.ar      23 UNK        -0.0193 
     10 C10        -0.9334  -16.1540  -51.6568 C.ar      23 UNK        -0.1150 
     11 C11        -0.0585  -16.8243  -52.5158 C.ar      23 UNK        -0.0193 
     12 C12         0.9849  -17.5851  -51.9786 C.ar      23 UNK        -0.1150 
     13 C13         1.1591  -17.6789  -50.5948 C.ar      23 UNK        -0.0193 
     14 C14         0.2645  -17.0197  -49.7472 C.ar      23 UNK        -0.1150 
     15 C15         2.3454  -18.4469  -50.0267 C.3       23 UNK        -0.0205 
     16 S16         1.9449  -20.1852  -49.6674 S.3       23 UNK        -0.2404 
     17 C17         1.3183  -20.0492  -47.9602 C.3       23 UNK        -0.0398 
     18 CA          0.7788  -21.3827  -47.3874 C.3       11 UNK         0.1400 
     19 N           0.6222  -21.3131  -45.9301 N.am      11 UNK        -0.5000 
     20 C           0.2582  -22.3311  -45.1364 C.2       10 UNK         0.5000 
     21 O           0.0647  -23.4777  -45.5367 O.2       10 UNK        -0.5000 
     22 CA          0.0149  -22.0053  -43.6513 C.3       10 UNK         0.1400 
     23 CB          1.3377  -21.9662  -42.8725 C.3       10 UNK        -0.1800 
     24 N          -0.7172  -20.7517  -43.4607 N.am      10 UNK        -0.5000 
     25 C          -1.9674  -20.5342  -43.8954 C.2       9 UNK         0.5000 
     26 O          -2.6517  -21.3863  -44.4589 O.2       9 UNK        -0.5000 
     27 CA         -2.5364  -19.1166  -43.7207 C.3       9 UNK         0.1400 
     28 CB         -3.0673  -18.9117  -42.2943 C.3       9 UNK        -0.1800 
     29 N          -1.5590  -18.0780  -44.0404 N.am      9 UNK        -0.5000 
     30 C          -1.0100  -17.8901  -45.2488 C.2       8 UNK         0.5000 
     31 O          -1.3051  -18.5465  -46.2482 O.2       8 UNK        -0.5000 
     32 CA          0.0962  -16.8229  -45.3382 C.3       8 UNK         0.1400 
     33 CB         -0.5014  -15.4111  -45.3456 C.3       8 UNK        -0.1800 
     34 N           1.0571  -16.9253  -44.2408 N.am      8 UNK        -0.5000 
     35 C           1.8504  -17.9824  -44.0191 C.2       7 UNK         0.5000 
     36 O           1.9021  -18.9646  -44.7586 O.2       7 UNK        -0.5000 
     37 CA          2.6864  -17.9554  -42.7283 C.3       7 UNK         0.1400 
     38 CB          3.9926  -17.1746  -42.9302 C.3       7 UNK        -0.1800 
     39 N           1.9394  -17.3808  -41.6093 N.am      7 UNK        -0.5000 
     40 C           0.8966  -17.9776  -41.0148 C.2       6 UNK         0.5000 
     41 O           0.4831  -19.0954  -41.3211 O.2       6 UNK        -0.5000 
     42 CA          0.1667  -17.1662  -39.9290 C.3       6 UNK         0.1400 
     43 CB          0.9017  -17.2732  -38.5847 C.3       6 UNK        -0.1800 
     44 N           0.0187  -15.7556  -40.2919 N.am      6 UNK        -0.5000 
     45 C          -0.7334  -15.3101  -41.3089 C.2       5 UNK         0.5000 
     46 O          -1.4193  -16.0436  -42.0183 O.2       5 UNK        -0.5000 
     47 CA         -0.6759  -13.8011  -41.6118 C.3       5 UNK         0.1400 
     48 CB         -1.7686  -13.0528  -40.8347 C.3       5 UNK        -0.1800 
     49 N           0.6287  -13.2078  -41.3097 N.am      5 UNK        -0.5000 
     50 C           1.7610  -13.5030  -41.9597 C.2       4 UNK         0.5000 
     51 O           1.8298  -14.3174  -42.8852 O.2       4 UNK        -0.5000 
     52 CA          3.0356  -12.8296  -41.4338 C.3       4 UNK         0.1400 
     53 CB          3.7785  -13.7823  -40.4840 C.3       4 UNK        -0.1800 
     54 N           3.9133  -12.5027  -42.5497 N.am      4 UNK        -0.5000 
     55 C           4.0733  -11.2914  -43.0896 C.2       3 UNK         0.5000 
     56 O           3.5359  -10.2725  -42.6545 O.2       3 UNK        -0.5000 
     57 CA          4.9686  -11.1956  -44.3421 C.3       3 UNK         0.1400 
     58 CB          6.4629  -11.2579  -43.9719 C.3       3 UNK        -0.1800 
     59 N           4.6278  -12.1622  -45.3952 N.am      3 UNK        -0.5000 
     60 C           4.7236  -13.4989  -45.3837 C.2       2 UNK         0.5000 
     61 O           5.1923  -14.1461  -44.4460 O.2       2 UNK        -0.5000 
     62 CA          4.1495  -14.2215  -46.6162 C.3       2 UNK         0.1400 
     63 CB          4.1427  -15.7533  -46.4652 C.3       2 UNK        -0.1800 
     64 N           2.7819  -13.7817  -46.8939 N.am      2 UNK        -0.5000 
     65 C           2.4396  -12.7558  -47.6837 C.2       1 UNK         0.5000 
     66 O           3.2515  -11.9718  -48.1745 O.2       1 UNK        -0.5000 
     67 C          -0.5310  -21.8090  -48.0838 C.2       11 UNK         0.5000 
     68 O          -0.5131  -22.7112  -48.9248 O.2       11 UNK        -0.5000 
     69 N          -1.6459  -21.1742  -47.6944 N.am      12 UNK        -0.5000 
     70 CA         -2.9856  -21.5020  -48.1758 C.3       12 UNK         0.1400 
     71 CB         -3.9883  -20.4476  -47.6860 C.3       12 UNK        -0.1800 
     72 C          -3.4189  -22.9214  -47.7719 C.2       12 UNK         0.5000 
     73 O          -3.8837  -23.6725  -48.6270 O.2       12 UNK        -0.5000 
     74 N          -3.2266  -23.2768  -46.4938 N.am      13 UNK        -0.5000 
     75 CA         -3.5699  -24.5807  -45.9251 C.3       13 UNK         0.1400 
     76 CB         -3.3698  -24.5529  -44.4027 C.3       13 UNK        -0.1800 
     77 C          -2.7899  -25.7491  -46.5519 C.2       13 UNK         0.5000 
     78 O          -3.3954  -26.7756  -46.8602 O.2       13 UNK        -0.5000 
     79 N          -1.4786  -25.5682  -46.7655 N.am      14 UNK        -0.5000 
     80 CA         -0.5900  -26.5578  -47.3838 C.3       14 UNK         0.1400 
     81 CB          0.8623  -26.0648  -47.2981 C.3       14 UNK        -0.1800 
     82 C          -0.9603  -26.8821  -48.8431 C.2       14 UNK         0.5000 
     83 O          -0.8173  -28.0283  -49.2698 O.2       14 UNK        -0.5000 
     84 N          -1.4539  -25.8718  -49.5674 N.am      15 UNK        -0.5000 
     85 CA         -1.9508  -25.9840  -50.9379 C.3       15 UNK         0.1400 
     86 CB         -1.6851  -24.6467  -51.6404 C.3       15 UNK        -0.1800 
     87 C          -3.4504  -26.3410  -51.0076 C.2       15 UNK         0.5000 
     88 O          -3.9808  -26.4800  -52.1103 O.2       15 UNK        -0.5000 
     89 N          -4.1222  -26.4348  -49.8487 N.am      16 UNK        -0.5000 
     90 CA         -5.5647  -26.6407  -49.6598 C.3       16 UNK         0.1400 
     91 CB         -5.9574  -28.0753  -50.0678 C.3       16 UNK        -0.1800 
     92 C          -6.4347  -25.5647  -50.3513 C.2       16 UNK         0.5000 
     93 O          -7.5570  -25.8548  -50.7683 O.2       16 UNK        -0.5000 
     94 N          -5.8756  -24.3522  -50.4927 N.am      17 UNK        -0.5000 
     95 CA         -6.3853  -23.1790  -51.2127 C.3       17 UNK         0.1400 
     96 CB         -7.6439  -22.6312  -50.5086 C.3       17 UNK        -0.1800 
     97 C          -6.6152  -23.3974  -52.7277 C.2       17 UNK         0.5000 
     98 O          -7.2154  -22.5364  -53.3757 O.2       17 UNK        -0.5000 
     99 N          -6.1449  -24.5286  -53.2760 N.am      18 UNK        -0.5000 
    100 CA        -6.4471  -24.9938  -54.6310 C.3       18 UNK         0.1400 
    101 CB        -6.0209  -26.4627  -54.7672 C.3       18 UNK        -0.1800 
    102 C         -5.8053  -24.1421  -55.7374 C.2       18 UNK         0.5000 
    103 O         -6.3554  -24.0606  -56.8361 O.2       18 UNK        -0.5000 
    104 N         -4.6794  -23.4891  -55.4265 N.am      19 UNK        -0.5000 
    105 CA        -3.9468  -22.5908  -56.3185 C.3       19 UNK         0.1400 
    106 CB        -2.4626  -22.6025  -55.9091 C.3       19 UNK        -0.1800 
    107 C         -4.5565  -21.1715  -56.3376 C.2       19 UNK         0.5000 
    108 O         -3.8239  -20.1887  -56.2410 O.2       19 UNK        -0.5000 
    109 N         -5.8910  -21.0845  -56.4407 N.am      20 UNK        -0.5000 
    110 CA        -6.7034  -19.8620  -56.4264 C.3       20 UNK         0.1400 
    111 CB        -6.4866  -19.0527  -57.7223 C.3       20 UNK        -0.1800 
    112 C         -6.4822  -19.0288  -55.1454 C.2       20 UNK         0.5000 
    113 O         -6.1655  -17.8410  -55.2204 O.2       20 UNK        -0.5000 
    114 N         -6.6231  -19.6998  -53.9936 N.am      21 UNK        -0.5000 
    115 CA        -6.4374  -19.2106  -52.6217 C.3       21 UNK         0.1400 
    116 CB        -7.2536  -17.9331  -52.3357 C.3       21 UNK        -0.1800 
    117 C         -4.9694  -19.0796  -52.1682 C.2       21 UNK         0.5000 
    118 O         -4.7423  -18.8831  -50.9736 O.2       21 UNK        -0.5000 
    119 N         -4.0005  -19.2356  -53.0802 N.am      22 UNK        -0.5000 
    120 CA        -2.5790  -19.4090  -52.7380 C.3       22 UNK         0.1400 
    121 C         -2.3008  -20.7974  -52.0991 C.2       22 UNK         0.5000 
    122 N         -1.1880  -20.9418  -51.3919 N.am      22 UNK        -0.7600 
    123 O         -3.0706  -21.7435  -52.2537 O.2       22 UNK        -0.5000 
    124 C124       -1.6443  -19.1646  -53.9500 C.3       23 UNK        -0.0398 
    125 S125       -1.7888  -17.4667  -54.6037 S.3       23 UNK        -0.2404 
    126 C126       -0.2325  -16.7163  -54.0246 C.3       23 UNK        -0.0205 
    127 H127        1.2924  -10.0167  -46.9236 H         1 UNK         0.0600 
    128 H128        2.2031  -10.6087  -45.5241 H         1 UNK         0.0600 
    129 H129        0.8522   -9.5029  -45.3033 H         1 UNK         0.0600 
    130 H130       -0.5354  -13.1783  -46.5784 H         1 UNK         0.3000 
    131 H131        0.7920  -11.6546  -48.5160 H         1 UNK         0.0600 
    132 H132        1.0011  -13.7901  -49.7645 H         1 UNK         0.0800 
    133 H133        0.6436  -14.6983  -48.3182 H         1 UNK         0.0800 
    134 H134       -2.7490  -15.6144  -49.7027 H         1 UNK         0.0800 
    135 H135       -1.7049  -15.9363  -48.3478 H         1 UNK         0.0800 
    136 H136       -1.7356  -15.5570  -52.0677 H         1 UNK         0.1150 
    137 H137        1.6743  -18.0936  -52.6383 H         1 UNK         0.1150 
    138 H138        0.3957  -17.0842  -48.6775 H         1 UNK         0.1150 
    139 H139        3.1699  -18.4246  -50.7409 H         1 UNK         0.0800 
    140 H140        2.7194  -17.9553  -49.1272 H         1 UNK         0.0800 
    141 H141        0.5548  -19.2738  -47.9182 H         1 UNK         0.0800 
    142 H142        2.1453  -19.6938  -47.3441 H         1 UNK         0.0800 
    143 H143        1.5197  -22.1610  -47.5822 H         1 UNK         0.0600 
    144 H144        0.8113  -20.4127  -45.4996 H         1 UNK         0.3000 
    145 H145       -0.5950  -22.8082  -43.2328 H         1 UNK         0.0600 
    146 H146        1.1643  -21.8026  -41.8088 H         1 UNK         0.0600 
    147 H147        1.8762  -22.9094  -42.9729 H         1 UNK         0.0600 
    148 H148        1.9953  -21.1746  -43.2301 H         1 UNK         0.0600 
    149 H149       -0.2389  -20.0160  -42.9509 H         1 UNK         0.3000 
    150 H150       -3.3737  -19.0082  -44.4131 H         1 UNK         0.0600 
    151 H151       -3.8100  -19.6693  -42.0413 H         1 UNK         0.0600 
    152 H152       -3.5465  -17.9383  -42.1892 H         1 UNK         0.0600 
    153 H153       -2.2695  -18.9725  -41.5539 H         1 UNK         0.0600 
    154 H154       -1.3031  -17.4503  -43.2827 H         1 UNK         0.3000 
    155 H155        0.6443  -16.9730  -46.2701 H         1 UNK         0.0600 
    156 H156       -1.2066  -15.2609  -44.5289 H         1 UNK         0.0600 
    157 H157       -1.0383  -15.2162  -46.2722 H         1 UNK         0.0600 
    158 H158        0.2804  -14.6614  -45.2403 H         1 UNK         0.0600 
    159 H159        1.1140  -16.1373  -43.6049 H         1 UNK         0.3000 
    160 H160        2.9442  -18.9860  -42.4758 H         1 UNK         0.0600 
    161 H161        3.8054  -16.1251  -43.1566 H         1 UNK         0.0600 
    162 H162        4.5725  -17.5890  -43.7558 H         1 UNK         0.0600 
    163 H163        4.6195  -17.2171  -42.0396 H         1 UNK         0.0600 
    164 H164        2.1874  -16.4438  -41.3306 H         1 UNK         0.3000 
    165 H165       -0.8313  -17.5930  -39.8084 H         1 UNK         0.0600 
    166 H166        0.3507  -16.7653  -37.7930 H         1 UNK         0.0600 
    167 H167        1.0136  -18.3158  -38.2838 H         1 UNK         0.0600 
    168 H168        1.9000  -16.8363  -38.6330 H         1 UNK         0.0600 
    169 H169        0.5439  -15.0850  -39.7512 H         1 UNK         0.3000 
    170 H170       -0.8658  -13.6692  -42.6790 H         1 UNK         0.0600 
    171 H171       -2.7549  -13.4623  -41.0574 H         1 UNK         0.0600 
    172 H172       -1.6189  -13.1237  -39.7567 H         1 UNK         0.0600 
    173 H173       -1.7892  -11.9965  -41.1038 H         1 UNK         0.0600 
    174 H174        0.6531  -12.5350  -40.5570 H         1 UNK         0.3000 
    175 H175        2.7664  -11.9264  -40.8822 H         1 UNK         0.0600 
    176 H176        4.0765  -14.7035  -40.9863 H         1 UNK         0.0600 
    177 H177        4.6797  -13.3147  -40.0869 H         1 UNK         0.0600 
    178 H178        3.1539  -14.0569  -39.6331 H         1 UNK         0.0600 
    179 H179        4.3427  -13.2886  -43.0325 H         1 UNK         0.3000 
    180 H180        4.7866  -10.2129  -44.7803 H         1 UNK         0.0600 
    181 H181        6.7313  -12.2038  -43.5009 H         1 UNK         0.0600 
    182 H182        6.7210  -10.4632  -43.2710 H         1 UNK         0.0600 
    183 H183        7.0923  -11.1314  -44.8527 H         1 UNK         0.0600 
    184 H184        4.2187  -11.7570  -46.2288 H         1 UNK         0.3000 
    185 H185        4.7943  -13.9752  -47.4626 H         1 UNK         0.0600 
    186 H186        5.1452  -16.1360  -46.2700 H         1 UNK         0.0600 
    187 H187        3.5023  -16.0693  -45.6430 H         1 UNK         0.0600 
    188 H188        3.7826  -16.2374  -47.3731 H         1 UNK         0.0600 
    189 H189        2.0516  -14.3155  -46.4482 H         1 UNK         0.3000 
    190 H190       -1.5729  -20.4206  -47.0183 H         1 UNK         0.3000 
    191 H191       -2.9705  -21.4630  -49.2658 H         1 UNK         0.0600 
    192 H192       -4.0402  -20.4098  -46.5978 H         1 UNK         0.0600 
    193 H193       -4.9908  -20.6620  -48.0585 H         1 UNK         0.0600 
    194 H194       -3.7159  -19.4539  -48.0428 H         1 UNK         0.0600 
    195 H195       -2.8640  -22.5836  -45.8424 H         1 UNK         0.3000 
    196 H196       -4.6303  -24.7523  -46.1217 H         1 UNK         0.0600 
    197 H197       -3.6347  -25.5115  -43.9549 H         1 UNK         0.0600 
    198 H198       -3.9967  -23.7926  -43.9367 H         1 UNK         0.0600 
    199 H199       -2.3337  -24.3409  -44.1381 H         1 UNK         0.0600 
    200 H200       -1.0415  -24.7054  -46.4484 H         1 UNK         0.3000 
    201 H201       -0.6710  -27.4832  -46.8100 H         1 UNK         0.0600 
    202 H202        1.1736  -25.9364  -46.2614 H         1 UNK         0.0600 
    203 H203        0.9912  -25.1085  -47.8073 H         1 UNK         0.0600 
    204 H204        1.5477  -26.7786  -47.7566 H         1 UNK         0.0600 
    205 H205       -1.5210  -24.9570  -49.1384 H         1 UNK         0.3000 
    206 H206       -1.4033  -26.7650  -51.4690 H         1 UNK         0.0600 
    207 H207       -0.6190  -24.4225  -51.6766 H         1 UNK         0.0600 
    208 H208       -2.0544  -24.6476  -52.6668 H         1 UNK         0.0600 
    209 H209       -2.1787  -23.8332  -51.1099 H         1 UNK         0.0600 
    210 H210       -3.5994  -26.2906  -48.9939 H         1 UNK         0.3000 
    211 H211       -5.7484  -26.5362  -48.5898 H         1 UNK         0.0600 
    212 H212       -5.8555  -28.2321  -51.1421 H         1 UNK         0.0600 
    213 H213       -6.9932  -28.2896  -49.8022 H         1 UNK         0.0600 
    214 H214       -5.3352  -28.8125  -49.5603 H         1 UNK         0.0600 
    215 H215       -4.9776  -24.2112  -50.0336 H         1 UNK         0.3000 
    216 H216       -5.6057  -22.4195  -51.1367 H         1 UNK         0.0600 
    217 H217       -7.9901  -21.7050  -50.9657 H         1 UNK         0.0600 
    218 H218       -7.4429  -22.4167  -49.4590 H         1 UNK         0.0600 
    219 H219       -8.4724  -23.3381  -50.5536 H         1 UNK         0.0600 
    220 H220       -5.6158  -25.1664  -52.6925 H         1 UNK         0.3000 
    221 H221       -7.5296  -24.9417  -54.7649 H         1 UNK         0.0600 
    222 H222       -4.9411  -26.5784  -54.6666 H         1 UNK         0.0600 
    223 H223       -6.4965  -27.0846  -54.0082 H         1 UNK         0.0600 
    224 H224       -6.3041  -26.8631  -55.7414 H         1 UNK         0.0600 
    225 H225       -4.3279  -23.5726  -54.4829 H         1 UNK         0.3000 
    226 H226       -4.0080  -22.9732  -57.3394 H         1 UNK         0.0600 
    227 H227       -2.0458  -23.6076  -55.9746 H         1 UNK         0.0600 
    228 H228       -1.8661  -21.9637  -56.5616 H         1 UNK         0.0600 
    229 H229       -2.3257  -22.2530  -54.8859 H         1 UNK         0.0600 
    230 H230       -6.4016  -21.9561  -56.5224 H         1 UNK         0.3000 
    231 H231       -7.7462  -20.1821  -56.4093 H         1 UNK         0.0600 
    232 H232       -6.6848  -19.6615  -58.6044 H         1 UNK         0.0600 
    233 H233       -5.4673  -18.6729  -57.7995 H         1 UNK         0.0600 
    234 H234       -7.1587  -18.1947  -57.7628 H         1 UNK         0.0600 
    235 H235       -6.8556  -20.6881  -54.0477 H         1 UNK         0.3000 
    236 H236       -6.8573  -19.9940  -51.9925 H         1 UNK         0.0600 
    237 H237       -7.2592  -17.7094  -51.2684 H         1 UNK         0.0600 
    238 H238       -6.8404  -17.0610  -52.8423 H         1 UNK         0.0600 
    239 H239       -8.2917  -18.0473  -52.6479 H         1 UNK         0.0600 
    240 H240       -4.2487  -19.3878  -54.0483 H         1 UNK         0.3000 
    241 H241       -2.3367  -18.6655  -51.9766 H         1 UNK         0.0600 
    242 H242       -1.0004  -21.8276  -50.9433 H         1 UNK         0.3800 
    243 H243       -0.5434  -20.1792  -51.2560 H         1 UNK         0.3800 
    244 H244       -0.6041  -19.3517  -53.6803 H         1 UNK         0.0800 
    245 H245       -1.8579  -19.8667  -54.7529 H         1 UNK         0.0800 
    246 H246       -0.2196  -15.6638  -54.3106 H         1 UNK         0.0800 
    247 H247        0.6026  -17.1856  -54.5470 H         1 UNK         0.0800 
@<TRIPOS>BOND
     1    1    2 1    
     2    1  127 1    
     3    1  128 1    
     4    1  129 1    
     5    2    3 2    
     6    2    4 am   BACKBONE|DICT|INTERRES
     7    4    5 1    
     8    4  130 1    
     9    5    6 1    
    10    5   65 1    
    11    5  131 1    
    12    6    7 1    
    13    6  132 1    
    14    6  133 1    
    15    7    8 1    
    16    8    9 1    
    17    8  134 1    
    18    8  135 1    
    19    9   10 ar   
    20    9   14 ar   
    21   10   11 ar   
    22   10  136 1    
    23   11   12 ar   
    24   11  126 1    
    25   12   13 ar   
    26   12  137 1    
    27   13   14 ar   
    28   13   15 1    
    29   14  138 1    
    30   15   16 1    
    31   15  139 1    
    32   15  140 1    
    33   16   17 1    
    34   17   18 1    
    35   17  141 1    
    36   17  142 1    
    37   18   19 1    
    38   18   67 1    
    39   18  143 1    
    40   19   20 am   BACKBONE|DICT|INTERRES
    41   19  144 1    
    42   20   21 2    
    43   20   22 1    
    44   22   23 1    
    45   22   24 1    
    46   22  145 1    
    47   23  146 1    
    48   23  147 1    
    49   23  148 1    
    50   24   25 am   BACKBONE|DICT|INTERRES
    51   24  149 1    
    52   25   26 2    
    53   25   27 1    
    54   27   28 1    
    55   27   29 1    
    56   27  150 1    
    57   28  151 1    
    58   28  152 1    
    59   28  153 1    
    60   29   30 am   BACKBONE|DICT|INTERRES
    61   29  154 1    
    62   30   31 2    
    63   30   32 1    
    64   32   33 1    
    65   32   34 1    
    66   32  155 1    
    67   33  156 1    
    68   33  157 1    
    69   33  158 1    
    70   34   35 am   BACKBONE|DICT|INTERRES
    71   34  159 1    
    72   35   36 2    
    73   35   37 1    
    74   37   38 1    
    75   37   39 1    
    76   37  160 1    
    77   38  161 1    
    78   38  162 1    
    79   38  163 1    
    80   39   40 am   BACKBONE|DICT|INTERRES
    81   39  164 1    
    82   40   41 2    
    83   40   42 1    
    84   42   43 1    
    85   42   44 1    
    86   42  165 1    
    87   43  166 1    
    88   43  167 1    
    89   43  168 1    
    90   44   45 am   BACKBONE|DICT|INTERRES
    91   44  169 1    
    92   45   46 2    
    93   45   47 1    
    94   47   48 1    
    95   47   49 1    
    96   47  170 1    
    97   48  171 1    
    98   48  172 1    
    99   48  173 1    
   100   49   50 am   BACKBONE|DICT|INTERRES
   101   49  174 1    
   102   50   51 2    
   103   50   52 1    
   104   52   53 1    
   105   52   54 1    
   106   52  175 1    
   107   53  176 1    
   108   53  177 1    
   109   53  178 1    
   110   54   55 am   BACKBONE|DICT|INTERRES
   111   54  179 1    
   112   55   56 2    
   113   55   57 1    
   114   57   58 1    
   115   57   59 1    
   116   57  180 1    
   117   58  181 1    
   118   58  182 1    
   119   58  183 1    
   120   59   60 am   BACKBONE|DICT|INTERRES
   121   59  184 1    
   122   60   61 2    
   123   60   62 1    
   124   62   63 1    
   125   62   64 1    
   126   62  185 1    
   127   63  186 1    
   128   63  187 1    
   129   63  188 1    
   130   64   65 am   BACKBONE|DICT|INTERRES
   131   64  189 1    
   132   65   66 2    
   133   67   68 2    
   134   67   69 am   BACKBONE|DICT|INTERRES
   135   69   70 1    
   136   69  190 1    
   137   70   71 1    
   138   70   72 1    
   139   70  191 1    
   140   71  192 1    
   141   71  193 1    
   142   71  194 1    
   143   72   73 2    
   144   72   74 am   BACKBONE|DICT|INTERRES
   145   74   75 1    
   146   74  195 1    
   147   75   76 1    
   148   75   77 1    
   149   75  196 1    
   150   76  197 1    
   151   76  198 1    
   152   76  199 1    
   153   77   78 2    
   154   77   79 am   BACKBONE|DICT|INTERRES
   155   79   80 1    
   156   79  200 1    
   157   80   81 1    
   158   80   82 1    
   159   80  201 1    
   160   81  202 1    
   161   81  203 1    
   162   81  204 1    
   163   82   83 2    
   164   82   84 am   BACKBONE|DICT|INTERRES
   165   84   85 1    
   166   84  205 1    
   167   85   86 1    
   168   85   87 1    
   169   85  206 1    
   170   86  207 1    
   171   86  208 1    
   172   86  209 1    
   173   87   88 2    
   174   87   89 am   BACKBONE|DICT|INTERRES
   175   89   90 1    
   176   89  210 1    
   177   90   91 1    
   178   90   92 1    
   179   90  211 1    
   180   91  212 1    
   181   91  213 1    
   182   91  214 1    
   183   92   93 2    
   184   92   94 am   BACKBONE|DICT|INTERRES
   185   94   95 1    
   186   94  215 1    
   187   95   96 1    
   188   95   97 1    
   189   95  216 1    
   190   96  217 1    
   191   96  218 1    
   192   96  219 1    
   193   97   98 2    
   194   97   99 am   BACKBONE|DICT|INTERRES
   195   99  100 1    
   196   99  220 1    
   197  100  101 1    
   198  100  102 1    
   199  100  221 1    
   200  101  222 1    
   201  101  223 1    
   202  101  224 1    
   203  102  103 2    
   204  102  104 am   BACKBONE|DICT|INTERRES
   205  104  105 1    
   206  104  225 1    
   207  105  106 1    
   208  105  107 1    
   209  105  226 1    
   210  106  227 1    
   211  106  228 1    
   212  106  229 1    
   213  107  108 2    
   214  107  109 am   BACKBONE|DICT|INTERRES
   215  109  110 1    
   216  109  230 1    
   217  110  111 1    
   218  110  112 1    
   219  110  231 1    
   220  111  232 1    
   221  111  233 1    
   222  111  234 1    
   223  112  113 2    
   224  112  114 am   BACKBONE|DICT|INTERRES
   225  114  115 1    
   226  114  235 1    
   227  115  116 1    
   228  115  117 1    
   229  115  236 1    
   230  116  237 1    
   231  116  238 1    
   232  116  239 1    
   233  117  118 2    
   234  117  119 am   BACKBONE|DICT|INTERRES
   235  119  120 1    
   236  119  240 1    
   237  120  121 1    
   238  120  124 1    
   239  120  241 1    
   240  121  122 am   BACKBONE|DICT|INTERRES
   241  121  123 2    
   242  122  242 1    
   243  122  243 1    
   244  124  125 1    
   245  124  244 1    
   246  124  245 1    
   247  125  126 1    
   248  126  246 1    
   249  126  247 1    
@<TRIPOS>SUBSTRUCTURE
     1 UNK         1 GROUP             0       ****    0 ROOT    
