@<TRIPOS>MOLECULE
3R540
247   249    1
SMALL
USER_CHARGES


@<TRIPOS>ATOM
      1 CA         -3.1250  -13.0245  -48.9418 C.3       0 UNK        -0.1800 
      2 C          -1.6320  -12.7845  -49.1182 C.2       0 UNK         0.5000 
      3 O          -1.2242  -12.1235  -50.0730 O.2       0 UNK        -0.5000 
      4 N          -0.8194  -13.3192  -48.1993 N.am      1 UNK        -0.5000 
      5 CA          0.6349  -13.1280  -48.1527 C.3       1 UNK         0.1400 
      6 C6          1.3439  -14.2194  -47.3149 C.3       23 UNK        -0.0398 
      7 S7          1.0486  -15.9018  -47.9493 S.3       23 UNK        -0.2404 
      8 C8          2.4056  -16.0452  -49.1548 C.3       23 UNK        -0.0205 
      9 C9          2.4703  -17.4332  -49.7744 C.ar      23 UNK        -0.0193 
     10 C10         1.8364  -17.6983  -50.9917 C.ar      23 UNK        -0.1150 
     11 C11         1.9136  -18.9643  -51.5823 C.ar      23 UNK        -0.0193 
     12 C12         2.6252  -19.9761  -50.9197 C.ar      23 UNK        -0.1150 
     13 C13         3.2629  -19.7279  -49.6996 C.ar      23 UNK        -0.0193 
     14 C14         3.1867  -18.4502  -49.1394 C.ar      23 UNK        -0.1150 
     15 C15         4.0532  -20.8248  -48.9916 C.3       23 UNK        -0.0205 
     16 S16         3.0558  -22.3185  -48.6840 S.3       23 UNK        -0.2404 
     17 C17         4.1641  -23.2956  -47.6098 C.3       23 UNK        -0.0398 
     18 CA          3.4493  -24.1588  -46.5357 C.3       11 UNK         0.1400 
     19 N           2.8461  -23.3613  -45.4582 N.am      11 UNK        -0.5000 
     20 C           2.5824  -23.8525  -44.2358 C.2       10 UNK         0.5000 
     21 O           2.7426  -25.0347  -43.9302 O.2       10 UNK        -0.5000 
     22 CA          2.0593  -22.8743  -43.1700 C.3       10 UNK         0.1400 
     23 CB          3.1756  -21.9490  -42.6590 C.3       10 UNK        -0.1800 
     24 N           0.9482  -22.0832  -43.6895 N.am      10 UNK        -0.5000 
     25 C          -0.3380  -22.4473  -43.5911 C.2       9 UNK         0.5000 
     26 O          -0.7177  -23.4167  -42.9361 O.2       9 UNK        -0.5000 
     27 CA         -1.3909  -21.6116  -44.3470 C.3       9 UNK         0.1400 
     28 CB         -2.2347  -20.7788  -43.3706 C.3       9 UNK        -0.1800 
     29 N          -0.8288  -20.7238  -45.3628 N.am      9 UNK        -0.5000 
     30 C          -0.2014  -21.1132  -46.4797 C.2       8 UNK         0.5000 
     31 O          -0.0943  -22.2879  -46.8295 O.2       8 UNK        -0.5000 
     32 CA          0.4856  -20.0024  -47.2892 C.3       8 UNK         0.1400 
     33 CB         -0.4892  -19.3095  -48.2377 C.3       8 UNK        -0.1800 
     34 N           1.1251  -19.0105  -46.4291 N.am      8 UNK        -0.5000 
     35 C           2.1915  -19.2600  -45.6592 C.2       7 UNK         0.5000 
     36 O           2.7532  -20.3547  -45.6129 O.2       7 UNK        -0.5000 
     37 CA          2.6786  -18.1124  -44.7574 C.3       7 UNK         0.1400 
     38 CB          3.7465  -17.2631  -45.4609 C.3       7 UNK        -0.1800 
     39 N           1.5762  -17.2543  -44.3161 N.am      7 UNK        -0.5000 
     40 C           0.7061  -17.6087  -43.3611 C.2       6 UNK         0.5000 
     41 O           0.7678  -18.6706  -42.7412 O.2       6 UNK        -0.5000 
     42 CA         -0.4336  -16.6205  -43.0595 C.3       6 UNK         0.1400 
     43 CB          0.0686  -15.4541  -42.1946 C.3       6 UNK        -0.1800 
     44 N          -1.1000  -16.0818  -44.2471 N.am      6 UNK        -0.5000 
     45 C          -1.7767  -16.7957  -45.1570 C.2       5 UNK         0.5000 
     46 O          -1.7631  -18.0252  -45.1941 O.2       5 UNK        -0.5000 
     47 CA         -2.6408  -15.9987  -46.1630 C.3       5 UNK         0.1400 
     48 CB         -3.6545  -16.8852  -46.9128 C.3       5 UNK        -0.1800 
     49 N          -3.3859  -14.9150  -45.5132 N.am      5 UNK        -0.5000 
     50 C          -2.9017  -13.7190  -45.1631 C.2       4 UNK         0.5000 
     51 O          -1.7436  -13.3602  -45.4043 O.2       4 UNK        -0.5000 
     52 CA         -3.8553  -12.8006  -44.3841 C.3       4 UNK         0.1400 
     53 CB         -4.1724  -13.3775  -42.9923 C.3       4 UNK        -0.1800 
     54 N          -3.2289  -11.4949  -44.2316 N.am      4 UNK        -0.5000 
     55 C          -3.8563  -10.3157  -44.1571 C.2       3 UNK         0.5000 
     56 O          -5.0818  -10.1926  -44.1553 O.2       3 UNK        -0.5000 
     57 CA         -2.9649   -9.0572  -44.0719 C.3       3 UNK         0.1400 
     58 CB         -2.9254   -8.5234  -42.6315 C.3       3 UNK        -0.1800 
     59 N          -1.5903   -9.2925  -44.5268 N.am      3 UNK        -0.5000 
     60 C          -1.2367   -9.5008  -45.8018 C.2       2 UNK         0.5000 
     61 O          -2.0264   -9.4279  -46.7450 O.2       2 UNK        -0.5000 
     62 CA          0.2161   -9.9185  -46.0761 C.3       2 UNK         0.1400 
     63 CB          1.1336   -9.9393  -44.8351 C.3       2 UNK        -0.1800 
     64 N           0.1605  -11.2477  -46.6674 N.am      2 UNK        -0.5000 
     65 C           0.9848  -11.7309  -47.6022 C.2       1 UNK         0.5000 
     66 O           1.9678  -11.1276  -48.0344 O.2       1 UNK        -0.5000 
     67 C           2.4815  -25.1887  -47.1626 C.2       11 UNK         0.5000 
     68 O           2.9302  -26.2632  -47.5659 O.2       11 UNK        -0.5000 
     69 N           1.1884  -24.8514  -47.2423 N.am      12 UNK        -0.5000 
     70 CA          0.1564  -25.6362  -47.9147 C.3       12 UNK         0.1400 
     71 CB         -0.0232  -25.1099  -49.3493 C.3       12 UNK        -0.1800 
     72 C          -1.1366  -25.5894  -47.0896 C.2       12 UNK         0.5000 
     73 O          -2.1899  -25.1962  -47.5960 O.2       12 UNK        -0.5000 
     74 N          -1.0228  -25.9943  -45.8178 N.am      13 UNK        -0.5000 
     75 CA         -2.0457  -25.9329  -44.7662 C.3       13 UNK         0.1400 
     76 CB         -1.4691  -26.5792  -43.4965 C.3       13 UNK        -0.1800 
     77 C          -3.4135  -26.5651  -45.0969 C.2       13 UNK         0.5000 
     78 O          -4.4084  -26.1986  -44.4710 O.2       13 UNK        -0.5000 
     79 N          -3.4488  -27.4886  -46.0667 N.am      14 UNK        -0.5000 
     80 CA         -4.6572  -28.1593  -46.5490 C.3       14 UNK         0.1400 
     81 CB         -4.2484  -29.2875  -47.5084 C.3       14 UNK        -0.1800 
     82 C          -5.6716  -27.2176  -47.2312 C.2       14 UNK         0.5000 
     83 O          -6.8694  -27.5026  -47.1887 O.2       14 UNK        -0.5000 
     84 N          -5.1879  -26.1290  -47.8467 N.am      15 UNK        -0.5000 
     85 CA         -6.0169  -25.1548  -48.5675 C.3       15 UNK         0.1400 
     86 CB         -6.0765  -25.5529  -50.0543 C.3       15 UNK        -0.1800 
     87 C          -5.5275  -23.7036  -48.4083 C.2       15 UNK         0.5000 
     88 O          -6.1123  -22.8048  -49.0153 O.2       15 UNK        -0.5000 
     89 N          -4.4332  -23.4977  -47.6610 N.am      16 UNK        -0.5000 
     90 CA         -3.6623  -22.2563  -47.5388 C.3       16 UNK         0.1400 
     91 CB         -4.4320  -21.1961  -46.7255 C.3       16 UNK        -0.1800 
     92 C          -3.1811  -21.7410  -48.9085 C.2       16 UNK         0.5000 
     93 O          -3.2961  -20.5500  -49.1935 O.2       16 UNK        -0.5000 
     94 N          -2.7241  -22.6738  -49.7589 N.am      17 UNK        -0.5000 
     95 CA         -2.3430  -22.4865  -51.1665 C.3       17 UNK         0.1400 
     96 CB         -1.0082  -21.7231  -51.2753 C.3       17 UNK        -0.1800 
     97 C          -3.4580  -21.8329  -52.0154 C.2       17 UNK         0.5000 
     98 O          -3.1665  -21.0038  -52.8794 O.2       17 UNK        -0.5000 
     99 N          -4.7171  -22.1904  -51.7179 N.am      18 UNK        -0.5000 
    100 CA        -5.9512  -21.6087  -52.2558 C.3       18 UNK         0.1400 
    101 CB        -6.1062  -21.9288  -53.7572 C.3       18 UNK        -0.1800 
    102 C         -6.0683  -20.1054  -51.9236 C.2       18 UNK         0.5000 
    103 O         -6.3318  -19.2906  -52.8081 O.2       18 UNK        -0.5000 
    104 N         -5.8397  -19.7801  -50.6425 N.am      19 UNK        -0.5000 
    105 CA        -5.7800  -18.4370  -50.0554 C.3       19 UNK         0.1400 
    106 CB        -7.1559  -17.7414  -50.1155 C.3       19 UNK        -0.1800 
    107 C         -4.6364  -17.5897  -50.6519 C.2       19 UNK         0.5000 
    108 O         -4.8657  -16.4782  -51.1319 O.2       19 UNK        -0.5000 
    109 N         -3.4213  -18.1547  -50.6056 N.am      20 UNK        -0.5000 
    110 CA        -2.1468  -17.5880  -51.0628 C.3       20 UNK         0.1400 
    111 CB        -1.7760  -16.3394  -50.2374 C.3       20 UNK        -0.1800 
    112 C         -2.0665  -17.3348  -52.5833 C.2       20 UNK         0.5000 
    113 O         -1.2347  -16.5399  -53.0240 O.2       20 UNK        -0.5000 
    114 N         -2.9055  -18.0231  -53.3671 N.am      21 UNK        -0.5000 
    115 CA        -2.9359  -17.9202  -54.8242 C.3       21 UNK         0.1400 
    116 CB        -4.3194  -18.3467  -55.3345 C.3       21 UNK        -0.1800 
    117 C         -1.8328  -18.7559  -55.4953 C.2       21 UNK         0.5000 
    118 O         -1.2860  -18.3203  -56.5091 O.2       21 UNK        -0.5000 
    119 N         -1.5385  -19.9379  -54.9319 N.am      22 UNK        -0.5000 
    120 CA        -0.5911  -20.9402  -55.4587 C.3       22 UNK         0.1400 
    121 C         -1.0232  -21.5830  -56.8169 C.2       22 UNK         0.5000 
    122 N         -2.2854  -21.4944  -57.2195 N.am      22 UNK        -0.7600 
    123 O         -0.2196  -22.2094  -57.5028 O.2       22 UNK        -0.5000 
    124 C124        0.8868  -20.4378  -55.4488 C.3       23 UNK        -0.0398 
    125 S125        1.7071  -20.6809  -53.8388 S.3       23 UNK        -0.2404 
    126 C126        1.2090  -19.1820  -52.9248 C.3       23 UNK        -0.0205 
    127 H127       -3.3221  -13.8786  -48.2949 H         1 UNK         0.0600 
    128 H128       -3.5934  -13.2222  -49.9061 H         1 UNK         0.0600 
    129 H129       -3.5966  -12.1444  -48.5046 H         1 UNK         0.0600 
    130 H130       -1.2173  -13.7907  -47.3986 H         1 UNK         0.3000 
    131 H131        1.0214  -13.1821  -49.1727 H         1 UNK         0.0600 
    132 H132        0.9978  -14.1884  -46.2801 H         1 UNK         0.0800 
    133 H133        2.4202  -14.0409  -47.2776 H         1 UNK         0.0800 
    134 H134        3.3554  -15.8191  -48.6681 H         1 UNK         0.0800 
    135 H135        2.2739  -15.2939  -49.9348 H         1 UNK         0.0800 
    136 H136        1.2858  -16.9109  -51.4877 H         1 UNK         0.1150 
    137 H137        2.6911  -20.9681  -51.3411 H         1 UNK         0.1150 
    138 H138        3.6838  -18.2458  -48.2032 H         1 UNK         0.1150 
    139 H139        4.9205  -21.0890  -49.5978 H         1 UNK         0.0800 
    140 H140        4.4358  -20.4568  -48.0383 H         1 UNK         0.0800 
    141 H141        4.7708  -23.9344  -48.2538 H         1 UNK         0.0800 
    142 H142        4.8690  -22.6254  -47.1163 H         1 UNK         0.0800 
    143 H143        4.2396  -24.7509  -46.0682 H         1 UNK         0.0600 
    144 H144        2.7086  -22.3725  -45.6436 H         1 UNK         0.3000 
    145 H145        1.7192  -23.4635  -42.3156 H         1 UNK         0.0600 
    146 H146        2.7926  -21.2374  -41.9272 H         1 UNK         0.0600 
    147 H147        3.6463  -21.3820  -43.4606 H         1 UNK         0.0600 
    148 H148        3.9606  -22.5275  -42.1705 H         1 UNK         0.0600 
    149 H149        1.1864  -21.2757  -44.2487 H         1 UNK         0.3000 
    150 H150       -2.0544  -22.3197  -44.8436 H         1 UNK         0.0600 
    151 H151       -2.7004  -21.4115  -42.6142 H         1 UNK         0.0600 
    152 H152       -3.0352  -20.2530  -43.8917 H         1 UNK         0.0600 
    153 H153       -1.6295  -20.0351  -42.8516 H         1 UNK         0.0600 
    154 H154       -0.9296  -19.7264  -45.1896 H         1 UNK         0.3000 
    155 H155        1.2573  -20.4583  -47.9001 H         1 UNK         0.0600 
    156 H156       -0.8218  -20.0120  -48.9946 H         1 UNK         0.0600 
    157 H157       -0.0194  -18.4812  -48.7634 H         1 UNK         0.0600 
    158 H158       -1.3671  -18.9350  -47.7173 H         1 UNK         0.0600 
    159 H159        0.7110  -18.0907  -46.4085 H         1 UNK         0.3000 
    160 H160        3.1432  -18.5656  -43.8787 H         1 UNK         0.0600 
    161 H161        3.3436  -16.7362  -46.3239 H         1 UNK         0.0600 
    162 H162        4.5723  -17.8847  -45.8095 H         1 UNK         0.0600 
    163 H163        4.1648  -16.5193  -44.7827 H         1 UNK         0.0600 
    164 H164        1.4589  -16.3683  -44.7841 H         1 UNK         0.3000 
    165 H165       -1.1871  -17.1640  -42.4854 H         1 UNK         0.0600 
    166 H166       -0.7561  -14.8153  -41.8779 H         1 UNK         0.0600 
    167 H167        0.5602  -15.8194  -41.2919 H         1 UNK         0.0600 
    168 H168        0.7861  -14.8327  -42.7318 H         1 UNK         0.0600 
    169 H169       -1.1469  -15.0733  -44.3213 H         1 UNK         0.3000 
    170 H170       -1.9573  -15.5754  -46.8994 H         1 UNK         0.0600 
    171 H171       -4.3530  -17.3652  -46.2265 H         1 UNK         0.0600 
    172 H172       -4.2345  -16.3012  -47.6276 H         1 UNK         0.0600 
    173 H173       -3.1625  -17.6750  -47.4772 H         1 UNK         0.0600 
    174 H174       -4.3341  -15.1412  -45.2488 H         1 UNK         0.3000 
    175 H175       -4.7755  -12.7026  -44.9638 H         1 UNK         0.0600 
    176 H176       -3.2670  -13.5161  -42.3999 H         1 UNK         0.0600 
    177 H177       -4.8369  -12.7172  -42.4346 H         1 UNK         0.0600 
    178 H178       -4.6698  -14.3452  -43.0649 H         1 UNK         0.0600 
    179 H179       -2.2194  -11.5110  -44.2765 H         1 UNK         0.3000 
    180 H180       -3.4140   -8.2922  -44.7089 H         1 UNK         0.0600 
    181 H181       -2.4784   -9.2452  -41.9468 H         1 UNK         0.0600 
    182 H182       -3.9304   -8.3051  -42.2679 H         1 UNK         0.0600 
    183 H183       -2.3511   -7.5989  -42.5687 H         1 UNK         0.0600 
    184 H184       -0.8840   -9.3682  -43.8089 H         1 UNK         0.3000 
    185 H185        0.6180   -9.2071  -46.8005 H         1 UNK         0.0600 
    186 H186        0.7983  -10.6625  -44.0905 H         1 UNK         0.0600 
    187 H187        2.1533  -10.2068  -45.1127 H         1 UNK         0.0600 
    188 H188        1.1814   -8.9583  -44.3607 H         1 UNK         0.0600 
    189 H189       -0.6339  -11.8156  -46.3950 H         1 UNK         0.3000 
    190 H190        0.8900  -23.9362  -46.9104 H         1 UNK         0.3000 
    191 H191        0.4496  -26.6864  -47.9689 H         1 UNK         0.0600 
    192 H192        0.8948  -25.2191  -49.9267 H         1 UNK         0.0600 
    193 H193       -0.2877  -24.0535  -49.3450 H         1 UNK         0.0600 
    194 H194       -0.8084  -25.6517  -49.8777 H         1 UNK         0.0600 
    195 H195       -0.1080  -26.2946  -45.5128 H         1 UNK         0.3000 
    196 H196       -2.2315  -24.8771  -44.5660 H         1 UNK         0.0600 
    197 H197       -0.5341  -26.1050  -43.1974 H         1 UNK         0.0600 
    198 H198       -1.2728  -27.6422  -43.6414 H         1 UNK         0.0600 
    199 H199       -2.1610  -26.4827  -42.6587 H         1 UNK         0.0600 
    200 H200       -2.5830  -27.7262  -46.5273 H         1 UNK         0.3000 
    201 H201       -5.1558  -28.6078  -45.6873 H         1 UNK         0.0600 
    202 H202       -3.6004  -30.0114  -47.0140 H         1 UNK         0.0600 
    203 H203       -3.7191  -28.9017  -48.3806 H         1 UNK         0.0600 
    204 H204       -5.1233  -29.8303  -47.8691 H         1 UNK         0.0600 
    205 H205       -4.1853  -25.9821  -47.8545 H         1 UNK         0.3000 
    206 H206       -7.0322  -25.1657  -48.1660 H         1 UNK         0.0600 
    207 H207       -6.4926  -26.5529  -50.1776 H         1 UNK         0.0600 
    208 H208       -5.0860  -25.5446  -50.5109 H         1 UNK         0.0600 
    209 H209       -6.7089  -24.8707  -50.6240 H         1 UNK         0.0600 
    210 H210       -3.9764  -24.3048  -47.2565 H         1 UNK         0.3000 
    211 H211       -2.7630  -22.5177  -46.9860 H         1 UNK         0.0600 
    212 H212       -5.3321  -20.8622  -47.2423 H         1 UNK         0.0600 
    213 H213       -3.8112  -20.3167  -46.5464 H         1 UNK         0.0600 
    214 H214       -4.7280  -21.5863  -45.7520 H         1 UNK         0.0600 
    215 H215       -2.6651  -23.6216  -49.4096 H         1 UNK         0.3000 
    216 H216       -2.1873  -23.4859  -51.5747 H         1 UNK         0.0600 
    217 H217       -0.5850  -21.8361  -52.2725 H         1 UNK         0.0600 
    218 H218       -0.2653  -22.0864  -50.5662 H         1 UNK         0.0600 
    219 H219       -1.1411  -20.6570  -51.1039 H         1 UNK         0.0600 
    220 H220       -4.8525  -22.8277  -50.9457 H         1 UNK         0.3000 
    221 H221       -6.7748  -22.0975  -51.7333 H         1 UNK         0.0600 
    222 H222       -5.3169  -21.4779  -54.3572 H         1 UNK         0.0600 
    223 H223       -6.0829  -23.0043  -53.9320 H         1 UNK         0.0600 
    224 H224       -7.0585  -21.5592  -54.1389 H         1 UNK         0.0600 
    225 H225       -5.5888  -20.5323  -50.0133 H         1 UNK         0.3000 
    226 H226       -5.5341  -18.5785  -49.0016 H         1 UNK         0.0600 
    227 H227       -7.9289  -18.3575  -49.6564 H         1 UNK         0.0600 
    228 H228       -7.1344  -16.7930  -49.5777 H         1 UNK         0.0600 
    229 H229       -7.4614  -17.5275  -51.1400 H         1 UNK         0.0600 
    230 H230       -3.3552  -19.0756  -50.1703 H         1 UNK         0.3000 
    231 H231       -1.3918  -18.3451  -50.8553 H         1 UNK         0.0600 
    232 H232       -0.7751  -15.9836  -50.4825 H         1 UNK         0.0600 
    233 H233       -1.7827  -16.5561  -49.1710 H         1 UNK         0.0600 
    234 H234       -2.4655  -15.5162  -50.4202 H         1 UNK         0.0600 
    235 H235       -3.5285  -18.6979  -52.9423 H         1 UNK         0.3000 
    236 H236       -2.7840  -16.8764  -55.1073 H         1 UNK         0.0600 
    237 H237       -4.5424  -19.3805  -55.0720 H         1 UNK         0.0600 
    238 H238       -5.1047  -17.7194  -54.9121 H         1 UNK         0.0600 
    239 H239       -4.3812  -18.2604  -56.4200 H         1 UNK         0.0600 
    240 H240       -2.0843  -20.2349  -54.1246 H         1 UNK         0.3000 
    241 H241       -0.6563  -21.7798  -54.7663 H         1 UNK         0.0600 
    242 H242       -2.5595  -21.9233  -58.0895 H         1 UNK         0.3800 
    243 H243       -2.9678  -21.0079  -56.6618 H         1 UNK         0.3800 
    244 H244        0.9662  -19.3939  -55.7515 H         1 UNK         0.0800 
    245 H245        1.5002  -20.9857  -56.1648 H         1 UNK         0.0800 
    246 H246        0.1364  -19.2338  -52.7455 H         1 UNK         0.0800 
    247 H247        1.3792  -18.3129  -53.5623 H         1 UNK         0.0800 
@<TRIPOS>BOND
     1    1    2 1    
     2    1  127 1    
     3    1  128 1    
     4    1  129 1    
     5    2    3 2    
     6    2    4 am   BACKBONE|DICT|INTERRES
     7    4    5 1    
     8    4  130 1    
     9    5    6 1    
    10    5   65 1    
    11    5  131 1    
    12    6    7 1    
    13    6  132 1    
    14    6  133 1    
    15    7    8 1    
    16    8    9 1    
    17    8  134 1    
    18    8  135 1    
    19    9   10 ar   
    20    9   14 ar   
    21   10   11 ar   
    22   10  136 1    
    23   11   12 ar   
    24   11  126 1    
    25   12   13 ar   
    26   12  137 1    
    27   13   14 ar   
    28   13   15 1    
    29   14  138 1    
    30   15   16 1    
    31   15  139 1    
    32   15  140 1    
    33   16   17 1    
    34   17   18 1    
    35   17  141 1    
    36   17  142 1    
    37   18   19 1    
    38   18   67 1    
    39   18  143 1    
    40   19   20 am   BACKBONE|DICT|INTERRES
    41   19  144 1    
    42   20   21 2    
    43   20   22 1    
    44   22   23 1    
    45   22   24 1    
    46   22  145 1    
    47   23  146 1    
    48   23  147 1    
    49   23  148 1    
    50   24   25 am   BACKBONE|DICT|INTERRES
    51   24  149 1    
    52   25   26 2    
    53   25   27 1    
    54   27   28 1    
    55   27   29 1    
    56   27  150 1    
    57   28  151 1    
    58   28  152 1    
    59   28  153 1    
    60   29   30 am   BACKBONE|DICT|INTERRES
    61   29  154 1    
    62   30   31 2    
    63   30   32 1    
    64   32   33 1    
    65   32   34 1    
    66   32  155 1    
    67   33  156 1    
    68   33  157 1    
    69   33  158 1    
    70   34   35 am   BACKBONE|DICT|INTERRES
    71   34  159 1    
    72   35   36 2    
    73   35   37 1    
    74   37   38 1    
    75   37   39 1    
    76   37  160 1    
    77   38  161 1    
    78   38  162 1    
    79   38  163 1    
    80   39   40 am   BACKBONE|DICT|INTERRES
    81   39  164 1    
    82   40   41 2    
    83   40   42 1    
    84   42   43 1    
    85   42   44 1    
    86   42  165 1    
    87   43  166 1    
    88   43  167 1    
    89   43  168 1    
    90   44   45 am   BACKBONE|DICT|INTERRES
    91   44  169 1    
    92   45   46 2    
    93   45   47 1    
    94   47   48 1    
    95   47   49 1    
    96   47  170 1    
    97   48  171 1    
    98   48  172 1    
    99   48  173 1    
   100   49   50 am   BACKBONE|DICT|INTERRES
   101   49  174 1    
   102   50   51 2    
   103   50   52 1    
   104   52   53 1    
   105   52   54 1    
   106   52  175 1    
   107   53  176 1    
   108   53  177 1    
   109   53  178 1    
   110   54   55 am   BACKBONE|DICT|INTERRES
   111   54  179 1    
   112   55   56 2    
   113   55   57 1    
   114   57   58 1    
   115   57   59 1    
   116   57  180 1    
   117   58  181 1    
   118   58  182 1    
   119   58  183 1    
   120   59   60 am   BACKBONE|DICT|INTERRES
   121   59  184 1    
   122   60   61 2    
   123   60   62 1    
   124   62   63 1    
   125   62   64 1    
   126   62  185 1    
   127   63  186 1    
   128   63  187 1    
   129   63  188 1    
   130   64   65 am   BACKBONE|DICT|INTERRES
   131   64  189 1    
   132   65   66 2    
   133   67   68 2    
   134   67   69 am   BACKBONE|DICT|INTERRES
   135   69   70 1    
   136   69  190 1    
   137   70   71 1    
   138   70   72 1    
   139   70  191 1    
   140   71  192 1    
   141   71  193 1    
   142   71  194 1    
   143   72   73 2    
   144   72   74 am   BACKBONE|DICT|INTERRES
   145   74   75 1    
   146   74  195 1    
   147   75   76 1    
   148   75   77 1    
   149   75  196 1    
   150   76  197 1    
   151   76  198 1    
   152   76  199 1    
   153   77   78 2    
   154   77   79 am   BACKBONE|DICT|INTERRES
   155   79   80 1    
   156   79  200 1    
   157   80   81 1    
   158   80   82 1    
   159   80  201 1    
   160   81  202 1    
   161   81  203 1    
   162   81  204 1    
   163   82   83 2    
   164   82   84 am   BACKBONE|DICT|INTERRES
   165   84   85 1    
   166   84  205 1    
   167   85   86 1    
   168   85   87 1    
   169   85  206 1    
   170   86  207 1    
   171   86  208 1    
   172   86  209 1    
   173   87   88 2    
   174   87   89 am   BACKBONE|DICT|INTERRES
   175   89   90 1    
   176   89  210 1    
   177   90   91 1    
   178   90   92 1    
   179   90  211 1    
   180   91  212 1    
   181   91  213 1    
   182   91  214 1    
   183   92   93 2    
   184   92   94 am   BACKBONE|DICT|INTERRES
   185   94   95 1    
   186   94  215 1    
   187   95   96 1    
   188   95   97 1    
   189   95  216 1    
   190   96  217 1    
   191   96  218 1    
   192   96  219 1    
   193   97   98 2    
   194   97   99 am   BACKBONE|DICT|INTERRES
   195   99  100 1    
   196   99  220 1    
   197  100  101 1    
   198  100  102 1    
   199  100  221 1    
   200  101  222 1    
   201  101  223 1    
   202  101  224 1    
   203  102  103 2    
   204  102  104 am   BACKBONE|DICT|INTERRES
   205  104  105 1    
   206  104  225 1    
   207  105  106 1    
   208  105  107 1    
   209  105  226 1    
   210  106  227 1    
   211  106  228 1    
   212  106  229 1    
   213  107  108 2    
   214  107  109 am   BACKBONE|DICT|INTERRES
   215  109  110 1    
   216  109  230 1    
   217  110  111 1    
   218  110  112 1    
   219  110  231 1    
   220  111  232 1    
   221  111  233 1    
   222  111  234 1    
   223  112  113 2    
   224  112  114 am   BACKBONE|DICT|INTERRES
   225  114  115 1    
   226  114  235 1    
   227  115  116 1    
   228  115  117 1    
   229  115  236 1    
   230  116  237 1    
   231  116  238 1    
   232  116  239 1    
   233  117  118 2    
   234  117  119 am   BACKBONE|DICT|INTERRES
   235  119  120 1    
   236  119  240 1    
   237  120  121 1    
   238  120  124 1    
   239  120  241 1    
   240  121  122 am   BACKBONE|DICT|INTERRES
   241  121  123 2    
   242  122  242 1    
   243  122  243 1    
   244  124  125 1    
   245  124  244 1    
   246  124  245 1    
   247  125  126 1    
   248  126  246 1    
   249  126  247 1    
@<TRIPOS>SUBSTRUCTURE
     1 UNK         1 GROUP             0       ****    0 ROOT    
