@<TRIPOS>MOLECULE
3R540
247   249    1
SMALL
USER_CHARGES


@<TRIPOS>ATOM
      1 CA         -0.6744  -12.9536  -47.6323 C.3       0 UNK        -0.1800 
      2 C           0.7406  -12.6037  -48.0709 C.2       0 UNK         0.5000 
      3 O           0.9353  -11.6401  -48.8111 O.2       0 UNK        -0.5000 
      4 N           1.7265  -13.3819  -47.6092 N.am      1 UNK        -0.5000 
      5 CA          3.1517  -13.2228  -47.9331 C.3       1 UNK         0.1400 
      6 C6          3.8917  -14.5846  -47.8987 C.3       23 UNK        -0.0398 
      7 S7          3.4957  -15.6245  -49.3416 S.3       23 UNK        -0.2404 
      8 C8          2.1000  -16.6241  -48.7415 C.3       23 UNK        -0.0205 
      9 C9          1.7344  -17.6869  -49.7645 C.ar      23 UNK        -0.0193 
     10 C10         1.0745  -17.3301  -50.9444 C.ar      23 UNK        -0.1150 
     11 C11         0.7776  -18.2938  -51.9131 C.ar      23 UNK        -0.0193 
     12 C12         1.1324  -19.6265  -51.6863 C.ar      23 UNK        -0.1150 
     13 C13         1.7893  -19.9955  -50.5089 C.ar      23 UNK        -0.0193 
     14 C14         2.0860  -19.0220  -49.5505 C.ar      23 UNK        -0.1150 
     15 C15         2.2006  -21.4423  -50.2870 C.3       23 UNK        -0.0205 
     16 S16         0.8108  -22.4505  -49.6947 S.3       23 UNK        -0.2404 
     17 C17         0.5331  -21.7486  -48.0290 C.3       23 UNK        -0.0398 
     18 CA          0.0998  -22.7971  -46.9777 C.3       11 UNK         0.1400 
     19 N          -0.0121  -22.2203  -45.6380 N.am      11 UNK        -0.5000 
     20 C          -0.1462  -22.9367  -44.5122 C.2       10 UNK         0.5000 
     21 O          -0.0869  -24.1655  -44.4700 O.2       10 UNK        -0.5000 
     22 CA         -0.4359  -22.1510  -43.2212 C.3       10 UNK         0.1400 
     23 CB          0.8723  -21.6632  -42.5813 C.3       10 UNK        -0.1800 
     24 N          -1.3287  -21.0122  -43.4418 N.am      10 UNK        -0.5000 
     25 C          -2.6035  -21.1064  -43.8476 C.2       9 UNK         0.5000 
     26 O          -3.1866  -22.1762  -44.0247 O.2       9 UNK        -0.5000 
     27 CA         -3.3293  -19.7826  -44.1602 C.3       9 UNK         0.1400 
     28 CB         -3.8361  -19.1167  -42.8731 C.3       9 UNK        -0.1800 
     29 N          -2.4913  -18.8415  -44.9094 N.am      9 UNK        -0.5000 
     30 C          -2.0120  -19.0777  -46.1390 C.2       8 UNK         0.5000 
     31 O          -2.2567  -20.0998  -46.7745 O.2       8 UNK        -0.5000 
     32 CA         -1.0544  -18.0351  -46.7384 C.3       8 UNK         0.1400 
     33 CB         -1.8254  -16.8946  -47.4193 C.3       8 UNK        -0.1800 
     34 N          -0.1504  -17.4980  -45.7226 N.am      8 UNK        -0.5000 
     35 C           0.8931  -18.1748  -45.2217 C.2       7 UNK         0.5000 
     36 O           1.2334  -19.2909  -45.6152 O.2       7 UNK        -0.5000 
     37 CA          1.6634  -17.5042  -44.0674 C.3       7 UNK         0.1400 
     38 CB          2.7024  -16.5155  -44.6151 C.3       7 UNK        -0.1800 
     39 N           0.7865  -16.8021  -43.1287 N.am      7 UNK        -0.5000 
     40 C          -0.1164  -17.4026  -42.3401 C.2       6 UNK         0.5000 
     41 O          -0.2724  -18.6209  -42.2896 O.2       6 UNK        -0.5000 
     42 CA         -1.0373  -16.4908  -41.5061 C.3       6 UNK         0.1400 
     43 CB         -0.4104  -16.2096  -40.1327 C.3       6 UNK        -0.1800 
     44 N          -1.3596  -15.2172  -42.1528 N.am      6 UNK        -0.5000 
     45 C          -1.8989  -15.0589  -43.3706 C.2       5 UNK         0.5000 
     46 O          -2.2103  -16.0004  -44.1000 O.2       5 UNK        -0.5000 
     47 CA         -2.0990  -13.6145  -43.8749 C.3       5 UNK         0.1400 
     48 CB         -3.5948  -13.2946  -44.0138 C.3       5 UNK        -0.1800 
     49 N          -1.4706  -12.5982  -43.0243 N.am      5 UNK        -0.5000 
     50 C          -0.1525  -12.3908  -42.9100 C.2       4 UNK         0.5000 
     51 O           0.7010  -13.0076  -43.5553 O.2       4 UNK        -0.5000 
     52 CA          0.2669  -11.3559  -41.8563 C.3       4 UNK         0.1400 
     53 CB          0.0010  -11.8778  -40.4324 C.3       4 UNK        -0.1800 
     54 N           1.6886  -11.0602  -41.9917 N.am      4 UNK        -0.5000 
     55 C           2.2409   -9.8493  -41.8633 C.2       3 UNK         0.5000 
     56 O           1.5993   -8.8344  -41.5902 O.2       3 UNK        -0.5000 
     57 CA          3.7630   -9.7359  -42.0852 C.3       3 UNK         0.1400 
     58 CB          4.4641   -9.3828  -40.7635 C.3       3 UNK        -0.1800 
     59 N           4.3905  -10.9493  -42.6245 N.am      3 UNK        -0.5000 
     60 C           4.3531  -11.4462  -43.8707 C.2       2 UNK         0.5000 
     61 O           4.9271  -12.5050  -44.1259 O.2       2 UNK        -0.5000 
     62 CA          3.5803  -10.7013  -44.9889 C.3       2 UNK         0.1400 
     63 CB          4.3845   -9.5164  -45.5716 C.3       2 UNK        -0.1800 
     64 N           3.1359  -11.6229  -46.0450 N.am      2 UNK        -0.5000 
     65 C           3.8580  -12.1845  -47.0301 C.2       1 UNK         0.5000 
     66 O           5.0389  -11.9171  -47.2580 O.2       1 UNK        -0.5000 
     67 C          -1.2000  -23.5292  -47.3681 C.2       11 UNK         0.5000 
     68 O          -1.1335  -24.6992  -47.7331 O.2       11 UNK        -0.5000 
     69 N          -2.3548  -22.8612  -47.2355 N.am      12 UNK        -0.5000 
     70 CA         -3.6796  -23.3806  -47.5946 C.3       12 UNK         0.1400 
     71 CB         -4.7280  -22.2786  -47.3790 C.3       12 UNK        -0.1800 
     72 C          -4.0845  -24.6601  -46.8364 C.2       12 UNK         0.5000 
     73 O          -4.8459  -25.4699  -47.3654 O.2       12 UNK        -0.5000 
     74 N          -3.5566  -24.8270  -45.6182 N.am      13 UNK        -0.5000 
     75 CA         -3.7200  -26.0220  -44.7948 C.3       13 UNK         0.1400 
     76 CB         -3.3554  -25.6667  -43.3447 C.3       13 UNK        -0.1800 
     77 C          -2.8885  -27.2304  -45.2777 C.2       13 UNK         0.5000 
     78 O          -3.1917  -28.3531  -44.8706 O.2       13 UNK        -0.5000 
     79 N          -1.8545  -26.9962  -46.0984 N.am      14 UNK        -0.5000 
     80 CA         -0.8803  -28.0038  -46.5224 C.3       14 UNK         0.1400 
     81 CB          0.5177  -27.5483  -46.0732 C.3       14 UNK        -0.1800 
     82 C          -0.8898  -28.2535  -48.0407 C.2       14 UNK         0.5000 
     83 O          -0.6936  -29.3958  -48.4586 O.2       14 UNK        -0.5000 
     84 N          -1.0899  -27.1993  -48.8383 N.am      15 UNK        -0.5000 
     85 CA         -1.0075  -27.2028  -50.2950 C.3       15 UNK         0.1400 
     86 CB          0.2960  -26.5022  -50.7135 C.3       15 UNK        -0.1800 
     87 C          -2.2187  -26.4843  -50.9057 C.2       15 UNK         0.5000 
     88 O          -2.8436  -25.6412  -50.2594 O.2       15 UNK        -0.5000 
     89 N          -2.5124  -26.8199  -52.1671 N.am      16 UNK        -0.5000 
     90 CA         -3.6552  -26.3012  -52.9193 C.3       16 UNK         0.1400 
     91 CB         -3.9109  -27.2182  -54.1253 C.3       16 UNK        -0.1800 
     92 C          -3.4979  -24.8413  -53.3868 C.2       16 UNK         0.5000 
     93 O          -4.5068  -24.2145  -53.7037 O.2       16 UNK        -0.5000 
     94 N          -2.2575  -24.3323  -53.4424 N.am      17 UNK        -0.5000 
     95 CA         -1.8959  -23.0204  -53.9897 C.3       17 UNK         0.1400 
     96 CB         -0.3740  -22.8224  -53.8866 C.3       17 UNK        -0.1800 
     97 C          -2.6561  -21.8490  -53.3431 C.2       17 UNK         0.5000 
     98 O          -3.4308  -21.1716  -54.0199 O.2       17 UNK        -0.5000 
     99 N          -2.4552  -21.6563  -52.0343 N.am      18 UNK        -0.5000 
    100 CA        -3.1253  -20.6060  -51.2674 C.3       18 UNK         0.1400 
    101 CB        -2.3475  -20.3403  -49.9769 C.3       18 UNK        -0.1800 
    102 C         -4.6031  -20.9227  -50.9735 C.2       18 UNK         0.5000 
    103 O         -5.3839  -19.9934  -50.7708 O.2       18 UNK        -0.5000 
    104 N         -4.9823  -22.2103  -50.9977 N.am      19 UNK        -0.5000 
    105 CA        -6.3745  -22.6585  -50.8825 C.3       19 UNK         0.1400 
    106 CB        -6.4158  -24.1783  -50.6708 C.3       19 UNK        -0.1800 
    107 C         -7.2210  -22.2460  -52.1042 C.2       19 UNK         0.5000 
    108 O         -8.3916  -21.9000  -51.9480 O.2       19 UNK        -0.5000 
    109 N         -6.5889  -22.2214  -53.2853 N.am      20 UNK        -0.5000 
    110 CA        -7.1170  -21.6823  -54.5397 C.3       20 UNK         0.1400 
    111 CB        -6.4647  -22.4409  -55.7086 C.3       20 UNK        -0.1800 
    112 C         -6.9070  -20.1557  -54.6699 C.2       20 UNK         0.5000 
    113 O         -6.9973  -19.6234  -55.7783 O.2       20 UNK        -0.5000 
    114 N         -6.6068  -19.4766  -53.5512 N.am      21 UNK        -0.5000 
    115 CA        -6.3829  -18.0342  -53.4064 C.3       21 UNK         0.1400 
    116 CB        -7.6890  -17.2556  -53.6685 C.3       21 UNK        -0.1800 
    117 C         -5.1935  -17.5045  -54.2341 C.2       21 UNK         0.5000 
    118 O         -5.1905  -16.3331  -54.6168 O.2       21 UNK        -0.5000 
    119 N         -4.2099  -18.3763  -54.4981 N.am      22 UNK        -0.5000 
    120 CA        -3.0104  -18.1160  -55.3109 C.3       22 UNK         0.1400 
    121 C         -3.3001  -17.9166  -56.8310 C.2       22 UNK         0.5000 
    122 N         -4.4719  -18.2856  -57.3381 N.am      22 UNK        -0.7600 
    123 O         -2.4404  -17.4509  -57.5744 O.2       22 UNK        -0.5000 
    124 C124       -2.0906  -17.0129  -54.7131 C.3       23 UNK        -0.0398 
    125 S125       -1.6034  -17.3641  -52.9861 S.3       23 UNK        -0.2404 
    126 C126        0.1209  -17.8859  -53.2229 C.3       23 UNK        -0.0205 
    127 H127       -0.7004  -13.8766  -47.0532 H         1 UNK         0.0600 
    128 H128       -1.3162  -13.0844  -48.5036 H         1 UNK         0.0600 
    129 H129       -1.0871  -12.1523  -47.0193 H         1 UNK         0.0600 
    130 H130        1.5026  -14.1434  -46.9868 H         1 UNK         0.3000 
    131 H131        3.2352  -12.8278  -48.9482 H         1 UNK         0.0600 
    132 H132        3.6901  -15.1240  -46.9740 H         1 UNK         0.0800 
    133 H133        4.9736  -14.4421  -47.9255 H         1 UNK         0.0800 
    134 H134        1.2371  -15.9837  -48.5592 H         1 UNK         0.0800 
    135 H135        2.3603  -17.0849  -47.7878 H         1 UNK         0.0800 
    136 H136        0.8130  -16.2960  -51.1204 H         1 UNK         0.1150 
    137 H137        0.9097  -20.3782  -52.4300 H         1 UNK         0.1150 
    138 H138        2.6040  -19.3006  -48.6434 H         1 UNK         0.1150 
    139 H139        2.5660  -21.8641  -51.2244 H         1 UNK         0.0800 
    140 H140        3.0301  -21.5071  -49.5813 H         1 UNK         0.0800 
    141 H141       -0.1979  -20.9461  -48.1106 H         1 UNK         0.0800 
    142 H142        1.4552  -21.2755  -47.6898 H         1 UNK         0.0800 
    143 H143        0.8891  -23.5510  -46.9326 H         1 UNK         0.0600 
    144 H144       -0.0421  -21.2108  -45.5779 H         1 UNK         0.3000 
    145 H145       -0.9267  -22.8310  -42.5218 H         1 UNK         0.0600 
    146 H146        0.6856  -21.1860  -41.6192 H         1 UNK         0.0600 
    147 H147        1.3868  -20.9422  -43.2178 H         1 UNK         0.0600 
    148 H148        1.5559  -22.4945  -42.4045 H         1 UNK         0.0600 
    149 H149       -0.9415  -20.0917  -43.2498 H         1 UNK         0.3000 
    150 H150       -4.1954  -20.0166  -44.7825 H         1 UNK         0.0600 
    151 H151       -4.5594  -19.7565  -42.3662 H         1 UNK         0.0600 
    152 H152       -4.3297  -18.1677  -43.0838 H         1 UNK         0.0600 
    153 H153       -3.0243  -18.9269  -42.1723 H         1 UNK         0.0600 
    154 H154       -2.2816  -17.9512  -44.4696 H         1 UNK         0.3000 
    155 H155       -0.4579  -18.5331  -47.5062 H         1 UNK         0.0600 
    156 H156       -2.4884  -17.2840  -48.1928 H         1 UNK         0.0600 
    157 H157       -1.1459  -16.1935  -47.9026 H         1 UNK         0.0600 
    158 H158       -2.4402  -16.3364  -46.7133 H         1 UNK         0.0600 
    159 H159       -0.4319  -16.6344  -45.2797 H         1 UNK         0.3000 
    160 H160        2.1900  -18.2890  -43.5202 H         1 UNK         0.0600 
    161 H161        2.2276  -15.6775  -45.1262 H         1 UNK         0.0600 
    162 H162        3.3718  -17.0045  -45.3241 H         1 UNK         0.0600 
    163 H163        3.3203  -16.1094  -43.8140 H         1 UNK         0.0600 
    164 H164        0.8469  -15.7937  -43.1114 H         1 UNK         0.3000 
    165 H165       -1.9768  -17.0220  -41.3492 H         1 UNK         0.0600 
    166 H166       -1.0902  -15.6428  -39.4963 H         1 UNK         0.0600 
    167 H167       -0.1790  -17.1394  -39.6111 H         1 UNK         0.0600 
    168 H168        0.5175  -15.6432  -40.2219 H         1 UNK         0.0600 
    169 H169       -1.1457  -14.3841  -41.6270 H         1 UNK         0.3000 
    170 H170       -1.6458  -13.5572  -44.8652 H         1 UNK         0.0600 
    171 H171       -4.1053  -13.3302  -43.0506 H         1 UNK         0.0600 
    172 H172       -3.7481  -12.3030  -44.4402 H         1 UNK         0.0600 
    173 H173       -4.0890  -14.0090  -44.6739 H         1 UNK         0.0600 
    174 H174       -2.1000  -12.0477  -42.4573 H         1 UNK         0.3000 
    175 H175       -0.3251  -10.4546  -42.0291 H         1 UNK         0.0600 
    176 H176        0.5508  -12.7985  -40.2321 H         1 UNK         0.0600 
    177 H177        0.3003  -11.1435  -39.6842 H         1 UNK         0.0600 
    178 H178       -1.0579  -12.0833  -40.2723 H         1 UNK         0.0600 
    179 H179        2.2649  -11.8443  -42.2676 H         1 UNK         0.3000 
    180 H180        3.9275   -8.9059  -42.7697 H         1 UNK         0.0600 
    181 H181        5.5331   -9.2286  -40.9125 H         1 UNK         0.0600 
    182 H182        4.3385  -10.1693  -40.0183 H         1 UNK         0.0600 
    183 H183        4.0632   -8.4616  -40.3383 H         1 UNK         0.0600 
    184 H184        4.9091  -11.4822  -41.9421 H         1 UNK         0.3000 
    185 H185        2.6561  -10.3029  -44.5744 H         1 UNK         0.0600 
    186 H186        5.4035   -9.8038  -45.8317 H         1 UNK         0.0600 
    187 H187        3.9095   -9.1200  -46.4693 H         1 UNK         0.0600 
    188 H188        4.4624   -8.6902  -44.8681 H         1 UNK         0.0600 
    189 H189        2.1840  -11.9470  -45.9492 H         1 UNK         0.3000 
    190 H190       -2.3236  -21.8885  -46.9337 H         1 UNK         0.3000 
    191 H191       -3.6545  -23.6246  -48.6578 H         1 UNK         0.0600 
    192 H192       -4.4940  -21.3870  -47.9600 H         1 UNK         0.0600 
    193 H193       -4.7898  -21.9857  -46.3307 H         1 UNK         0.0600 
    194 H194       -5.7185  -22.6161  -47.6857 H         1 UNK         0.0600 
    195 H195       -2.9935  -24.0784  -45.2331 H         1 UNK         0.3000 
    196 H196       -4.7713  -26.3163  -44.8185 H         1 UNK         0.0600 
    197 H197       -3.9764  -24.8528  -42.9697 H         1 UNK         0.0600 
    198 H198       -2.3128  -25.3588  -43.2574 H         1 UNK         0.0600 
    199 H199       -3.5031  -26.5203  -42.6820 H         1 UNK         0.0600 
    200 H200       -1.6931  -26.0508  -46.4306 H         1 UNK         0.3000 
    201 H201       -1.0857  -28.9619  -46.0409 H         1 UNK         0.0600 
    202 H202        0.5671  -27.4436  -44.9892 H         1 UNK         0.0600 
    203 H203        0.7875  -26.5865  -46.5121 H         1 UNK         0.0600 
    204 H204        1.2802  -28.2711  -46.3664 H         1 UNK         0.0600 
    205 H205       -1.2605  -26.2810  -48.4276 H         1 UNK         0.3000 
    206 H206       -0.9984  -28.2272  -50.6726 H         1 UNK         0.0600 
    207 H207        0.3233  -25.4688  -50.3650 H         1 UNK         0.0600 
    208 H208        1.1666  -27.0144  -50.3035 H         1 UNK         0.0600 
    209 H209        0.4090  -26.4880  -51.7980 H         1 UNK         0.0600 
    210 H210       -1.9442  -27.5106  -52.6366 H         1 UNK         0.3000 
    211 H211       -4.5336  -26.3451  -52.2730 H         1 UNK         0.0600 
    212 H212       -3.0597  -27.2340  -54.8071 H         1 UNK         0.0600 
    213 H213       -4.7802  -26.8842  -54.6937 H         1 UNK         0.0600 
    214 H214       -4.1078  -28.2425  -53.8082 H         1 UNK         0.0600 
    215 H215       -1.4948  -24.9243  -53.1503 H         1 UNK         0.3000 
    216 H216       -2.1611  -23.0284  -55.0488 H         1 UNK         0.0600 
    217 H217       -0.0800  -21.8460  -54.2742 H         1 UNK         0.0600 
    218 H218        0.1598  -23.5738  -54.4686 H         1 UNK         0.0600 
    219 H219       -0.0216  -22.8878  -52.8564 H         1 UNK         0.0600 
    220 H220       -1.8135  -22.2561  -51.5361 H         1 UNK         0.3000 
    221 H221       -3.1093  -19.6860  -51.8547 H         1 UNK         0.0600 
    222 H222       -2.2656  -21.2419  -49.3741 H         1 UNK         0.0600 
    223 H223       -1.3406  -19.9818  -50.1887 H         1 UNK         0.0600 
    224 H224       -2.8411  -19.5784  -49.3730 H         1 UNK         0.0600 
    225 H225       -4.2886  -22.9160  -51.1972 H         1 UNK         0.3000 
    226 H226       -6.8078  -22.1826  -50.0002 H         1 UNK         0.0600 
    227 H227       -5.7952  -24.4815  -49.8277 H         1 UNK         0.0600 
    228 H228       -7.4329  -24.5120  -50.4627 H         1 UNK         0.0600 
    229 H229       -6.0722  -24.7172  -51.5522 H         1 UNK         0.0600 
    230 H230       -5.6432  -22.5882  -53.3334 H         1 UNK         0.3000 
    231 H231       -8.1929  -21.8624  -54.5792 H         1 UNK         0.0600 
    232 H232       -6.8851  -22.1324  -56.6663 H         1 UNK         0.0600 
    233 H233       -6.6234  -23.5157  -55.6177 H         1 UNK         0.0600 
    234 H234       -5.3888  -22.2654  -55.7477 H         1 UNK         0.0600 
    235 H235       -6.5140  -20.0042  -52.6929 H         1 UNK         0.3000 
    236 H236       -6.1116  -17.8737  -52.3623 H         1 UNK         0.0600 
    237 H237       -7.9896  -17.3099  -54.7153 H         1 UNK         0.0600 
    238 H238       -8.5079  -17.6446  -53.0633 H         1 UNK         0.0600 
    239 H239       -7.5748  -16.2009  -53.4158 H         1 UNK         0.0600 
    240 H240       -4.2945  -19.3326  -54.1712 H         1 UNK         0.3000 
    241 H241       -2.4392  -19.0436  -55.2771 H         1 UNK         0.0600 
    242 H242       -4.6461  -18.1631  -58.3231 H         1 UNK         0.3800 
    243 H243       -5.1945  -18.6753  -56.7462 H         1 UNK         0.3800 
    244 H244       -2.5858  -16.0419  -54.7400 H         1 UNK         0.0800 
    245 H245       -1.1892  -16.8988  -55.3171 H         1 UNK         0.0800 
    246 H246        0.1487  -18.7093  -53.9384 H         1 UNK         0.0800 
    247 H247        0.6896  -17.0677  -53.6671 H         1 UNK         0.0800 
@<TRIPOS>BOND
     1    1    2 1    
     2    1  127 1    
     3    1  128 1    
     4    1  129 1    
     5    2    3 2    
     6    2    4 am   BACKBONE|DICT|INTERRES
     7    4    5 1    
     8    4  130 1    
     9    5    6 1    
    10    5   65 1    
    11    5  131 1    
    12    6    7 1    
    13    6  132 1    
    14    6  133 1    
    15    7    8 1    
    16    8    9 1    
    17    8  134 1    
    18    8  135 1    
    19    9   10 ar   
    20    9   14 ar   
    21   10   11 ar   
    22   10  136 1    
    23   11   12 ar   
    24   11  126 1    
    25   12   13 ar   
    26   12  137 1    
    27   13   14 ar   
    28   13   15 1    
    29   14  138 1    
    30   15   16 1    
    31   15  139 1    
    32   15  140 1    
    33   16   17 1    
    34   17   18 1    
    35   17  141 1    
    36   17  142 1    
    37   18   19 1    
    38   18   67 1    
    39   18  143 1    
    40   19   20 am   BACKBONE|DICT|INTERRES
    41   19  144 1    
    42   20   21 2    
    43   20   22 1    
    44   22   23 1    
    45   22   24 1    
    46   22  145 1    
    47   23  146 1    
    48   23  147 1    
    49   23  148 1    
    50   24   25 am   BACKBONE|DICT|INTERRES
    51   24  149 1    
    52   25   26 2    
    53   25   27 1    
    54   27   28 1    
    55   27   29 1    
    56   27  150 1    
    57   28  151 1    
    58   28  152 1    
    59   28  153 1    
    60   29   30 am   BACKBONE|DICT|INTERRES
    61   29  154 1    
    62   30   31 2    
    63   30   32 1    
    64   32   33 1    
    65   32   34 1    
    66   32  155 1    
    67   33  156 1    
    68   33  157 1    
    69   33  158 1    
    70   34   35 am   BACKBONE|DICT|INTERRES
    71   34  159 1    
    72   35   36 2    
    73   35   37 1    
    74   37   38 1    
    75   37   39 1    
    76   37  160 1    
    77   38  161 1    
    78   38  162 1    
    79   38  163 1    
    80   39   40 am   BACKBONE|DICT|INTERRES
    81   39  164 1    
    82   40   41 2    
    83   40   42 1    
    84   42   43 1    
    85   42   44 1    
    86   42  165 1    
    87   43  166 1    
    88   43  167 1    
    89   43  168 1    
    90   44   45 am   BACKBONE|DICT|INTERRES
    91   44  169 1    
    92   45   46 2    
    93   45   47 1    
    94   47   48 1    
    95   47   49 1    
    96   47  170 1    
    97   48  171 1    
    98   48  172 1    
    99   48  173 1    
   100   49   50 am   BACKBONE|DICT|INTERRES
   101   49  174 1    
   102   50   51 2    
   103   50   52 1    
   104   52   53 1    
   105   52   54 1    
   106   52  175 1    
   107   53  176 1    
   108   53  177 1    
   109   53  178 1    
   110   54   55 am   BACKBONE|DICT|INTERRES
   111   54  179 1    
   112   55   56 2    
   113   55   57 1    
   114   57   58 1    
   115   57   59 1    
   116   57  180 1    
   117   58  181 1    
   118   58  182 1    
   119   58  183 1    
   120   59   60 am   BACKBONE|DICT|INTERRES
   121   59  184 1    
   122   60   61 2    
   123   60   62 1    
   124   62   63 1    
   125   62   64 1    
   126   62  185 1    
   127   63  186 1    
   128   63  187 1    
   129   63  188 1    
   130   64   65 am   BACKBONE|DICT|INTERRES
   131   64  189 1    
   132   65   66 2    
   133   67   68 2    
   134   67   69 am   BACKBONE|DICT|INTERRES
   135   69   70 1    
   136   69  190 1    
   137   70   71 1    
   138   70   72 1    
   139   70  191 1    
   140   71  192 1    
   141   71  193 1    
   142   71  194 1    
   143   72   73 2    
   144   72   74 am   BACKBONE|DICT|INTERRES
   145   74   75 1    
   146   74  195 1    
   147   75   76 1    
   148   75   77 1    
   149   75  196 1    
   150   76  197 1    
   151   76  198 1    
   152   76  199 1    
   153   77   78 2    
   154   77   79 am   BACKBONE|DICT|INTERRES
   155   79   80 1    
   156   79  200 1    
   157   80   81 1    
   158   80   82 1    
   159   80  201 1    
   160   81  202 1    
   161   81  203 1    
   162   81  204 1    
   163   82   83 2    
   164   82   84 am   BACKBONE|DICT|INTERRES
   165   84   85 1    
   166   84  205 1    
   167   85   86 1    
   168   85   87 1    
   169   85  206 1    
   170   86  207 1    
   171   86  208 1    
   172   86  209 1    
   173   87   88 2    
   174   87   89 am   BACKBONE|DICT|INTERRES
   175   89   90 1    
   176   89  210 1    
   177   90   91 1    
   178   90   92 1    
   179   90  211 1    
   180   91  212 1    
   181   91  213 1    
   182   91  214 1    
   183   92   93 2    
   184   92   94 am   BACKBONE|DICT|INTERRES
   185   94   95 1    
   186   94  215 1    
   187   95   96 1    
   188   95   97 1    
   189   95  216 1    
   190   96  217 1    
   191   96  218 1    
   192   96  219 1    
   193   97   98 2    
   194   97   99 am   BACKBONE|DICT|INTERRES
   195   99  100 1    
   196   99  220 1    
   197  100  101 1    
   198  100  102 1    
   199  100  221 1    
   200  101  222 1    
   201  101  223 1    
   202  101  224 1    
   203  102  103 2    
   204  102  104 am   BACKBONE|DICT|INTERRES
   205  104  105 1    
   206  104  225 1    
   207  105  106 1    
   208  105  107 1    
   209  105  226 1    
   210  106  227 1    
   211  106  228 1    
   212  106  229 1    
   213  107  108 2    
   214  107  109 am   BACKBONE|DICT|INTERRES
   215  109  110 1    
   216  109  230 1    
   217  110  111 1    
   218  110  112 1    
   219  110  231 1    
   220  111  232 1    
   221  111  233 1    
   222  111  234 1    
   223  112  113 2    
   224  112  114 am   BACKBONE|DICT|INTERRES
   225  114  115 1    
   226  114  235 1    
   227  115  116 1    
   228  115  117 1    
   229  115  236 1    
   230  116  237 1    
   231  116  238 1    
   232  116  239 1    
   233  117  118 2    
   234  117  119 am   BACKBONE|DICT|INTERRES
   235  119  120 1    
   236  119  240 1    
   237  120  121 1    
   238  120  124 1    
   239  120  241 1    
   240  121  122 am   BACKBONE|DICT|INTERRES
   241  121  123 2    
   242  122  242 1    
   243  122  243 1    
   244  124  125 1    
   245  124  244 1    
   246  124  245 1    
   247  125  126 1    
   248  126  246 1    
   249  126  247 1    
@<TRIPOS>SUBSTRUCTURE
     1 UNK         1 GROUP             0       ****    0 ROOT    
