@<TRIPOS>MOLECULE
3R540
247   249    1
SMALL
USER_CHARGES


@<TRIPOS>ATOM
      1 CA          0.4456  -12.5131  -49.9584 C.3       0 UNK        -0.1800 
      2 C           1.3649  -13.1521  -48.9282 C.2       0 UNK         0.5000 
      3 O           1.9720  -12.4457  -48.1249 O.2       0 UNK        -0.5000 
      4 N           1.4595  -14.4883  -48.9354 N.am      1 UNK        -0.5000 
      5 CA          2.2998  -15.2932  -48.0367 C.3       1 UNK         0.1400 
      6 C6          2.3319  -16.7845  -48.4633 C.3       23 UNK        -0.0398 
      7 S7          0.7691  -17.7030  -48.2144 S.3       23 UNK        -0.2404 
      8 C8         -0.0930  -17.4250  -49.7924 C.3       23 UNK        -0.0205 
      9 C9         -1.4674  -18.0769  -49.8156 C.ar      23 UNK        -0.0193 
     10 C10        -1.8114  -18.9442  -50.8550 C.ar      23 UNK        -0.1150 
     11 C11        -3.0822  -19.5222  -50.9088 C.ar      23 UNK        -0.0193 
     12 C12        -4.0074  -19.2461  -49.8989 C.ar      23 UNK        -0.1150 
     13 C13        -3.6760  -18.3807  -48.8522 C.ar      23 UNK        -0.0193 
     14 C14        -2.4106  -17.7883  -48.8233 C.ar      23 UNK        -0.1150 
     15 C15        -4.6916  -18.0802  -47.7617 C.3       23 UNK        -0.0205 
     16 S16        -4.7948  -19.4324  -46.5482 S.3       23 UNK        -0.2404 
     17 C17        -3.2552  -19.2131  -45.5885 C.3       23 UNK        -0.0398 
     18 CA         -2.0791  -20.1245  -46.0230 C.3       11 UNK         0.1400 
     19 N          -0.8637  -19.8077  -45.2688 N.am      11 UNK        -0.5000 
     20 C           0.3593  -20.2838  -45.5431 C.2       10 UNK         0.5000 
     21 O           0.6128  -21.0187  -46.4972 O.2       10 UNK        -0.5000 
     22 CA          1.4663  -19.9310  -44.5335 C.3       10 UNK         0.1400 
     23 CB          2.0040  -18.5135  -44.7792 C.3       10 UNK        -0.1800 
     24 N           0.9866  -20.0529  -43.1545 N.am      10 UNK        -0.5000 
     25 C           0.7161  -21.2295  -42.5663 C.2       9 UNK         0.5000 
     26 O           0.9195  -22.3159  -43.1046 O.2       9 UNK        -0.5000 
     27 CA          0.0638  -21.2056  -41.1711 C.3       9 UNK         0.1400 
     28 CB          1.1139  -21.3945  -40.0672 C.3       9 UNK        -0.1800 
     29 N          -0.7193  -19.9930  -40.9295 N.am      9 UNK        -0.5000 
     30 C          -1.8668  -19.7161  -41.5688 C.2       8 UNK         0.5000 
     31 O          -2.3760  -20.4727  -42.3960 O.2       8 UNK        -0.5000 
     32 CA         -2.5441  -18.3611  -41.2845 C.3       8 UNK         0.1400 
     33 CB         -3.6715  -18.5319  -40.2564 C.3       8 UNK        -0.1800 
     34 N          -1.6297  -17.3158  -40.8224 N.am      8 UNK        -0.5000 
     35 C          -0.5831  -16.8415  -41.5108 C.2       7 UNK         0.5000 
     36 O          -0.2700  -17.2497  -42.6306 O.2       7 UNK        -0.5000 
     37 CA          0.2876  -15.7676  -40.8242 C.3       7 UNK         0.1400 
     38 CB         -0.2763  -15.2539  -39.4808 C.3       7 UNK        -0.1800 
     39 N           1.6711  -16.2122  -40.6456 N.am      7 UNK        -0.5000 
     40 C           2.0885  -17.3377  -40.0444 C.2       6 UNK         0.5000 
     41 O           1.3271  -18.1741  -39.5570 O.2       6 UNK        -0.5000 
     42 CA          3.6119  -17.5714  -39.9632 C.3       6 UNK         0.1400 
     43 CB          4.0848  -18.4434  -41.1368 C.3       6 UNK        -0.1800 
     44 N           4.3920  -16.3333  -39.9615 N.am      6 UNK        -0.5000 
     45 C           4.3805  -15.4103  -38.9898 C.2       5 UNK         0.5000 
     46 O           3.7997  -15.5594  -37.9141 O.2       5 UNK        -0.5000 
     47 CA          5.1231  -14.0860  -39.2727 C.3       5 UNK         0.1400 
     48 CB          6.4756  -14.0645  -38.5438 C.3       5 UNK        -0.1800 
     49 N           5.3471  -13.7894  -40.6948 N.am      5 UNK        -0.5000 
     50 C           4.3914  -13.6420  -41.6228 C.2       4 UNK         0.5000 
     51 O           3.1913  -13.8164  -41.3992 O.2       4 UNK        -0.5000 
     52 CA          4.8731  -13.3069  -43.0472 C.3       4 UNK         0.1400 
     53 CB          5.4280  -14.5677  -43.7295 C.3       4 UNK        -0.1800 
     54 N           3.7919  -12.7622  -43.8681 N.am      4 UNK        -0.5000 
     55 C           3.2584  -11.5400  -43.7145 C.2       3 UNK         0.5000 
     56 O           3.7117  -10.6945  -42.9412 O.2       3 UNK        -0.5000 
     57 CA          2.0141  -11.1926  -44.5599 C.3       3 UNK         0.1400 
     58 CB          2.4007  -10.2814  -45.7343 C.3       3 UNK        -0.1800 
     59 N           1.3273  -12.3810  -45.0718 N.am      3 UNK        -0.5000 
     60 C           0.5883  -13.2058  -44.3132 C.2       2 UNK         0.5000 
     61 O           0.2726  -12.9441  -43.1529 O.2       2 UNK        -0.5000 
     62 CA          0.1344  -14.5498  -44.9243 C.3       2 UNK         0.1400 
     63 CB         -1.3979  -14.6555  -44.9782 C.3       2 UNK        -0.1800 
     64 N           0.6710  -14.8166  -46.2582 N.am      2 UNK        -0.5000 
     65 C           1.9471  -15.1134  -46.5415 C.2       1 UNK         0.5000 
     66 O           2.8317  -15.1907  -45.6896 O.2       1 UNK        -0.5000 
     67 C          -2.4133  -21.6301  -45.9339 C.2       11 UNK         0.5000 
     68 O          -2.7013  -22.2487  -46.9586 O.2       11 UNK        -0.5000 
     69 N          -2.3110  -22.2036  -44.7255 N.am      12 UNK        -0.5000 
     70 CA         -2.5068  -23.6311  -44.4653 C.3       12 UNK         0.1400 
     71 CB         -2.5408  -23.8741  -42.9498 C.3       12 UNK        -0.1800 
     72 C          -1.4464  -24.5297  -45.1319 C.2       12 UNK         0.5000 
     73 O          -1.7761  -25.6427  -45.5408 O.2       12 UNK        -0.5000 
     74 N          -0.2021  -24.0417  -45.2371 N.am      13 UNK        -0.5000 
     75 CA          0.8885  -24.7186  -45.9394 C.3       13 UNK         0.1400 
     76 CB          2.2343  -24.0896  -45.5477 C.3       13 UNK        -0.1800 
     77 C           0.7010  -24.7039  -47.4673 C.2       13 UNK         0.5000 
     78 O           1.0007  -25.7055  -48.1182 O.2       13 UNK        -0.5000 
     79 N           0.2060  -23.5811  -48.0086 N.am      14 UNK        -0.5000 
     80 CA         -0.1299  -23.4220  -49.4229 C.3       14 UNK         0.1400 
     81 CB         -0.3534  -21.9342  -49.7403 C.3       14 UNK        -0.1800 
     82 C          -1.3496  -24.2746  -49.8165 C.2       14 UNK         0.5000 
     83 O          -1.2307  -25.1397  -50.6852 O.2       14 UNK        -0.5000 
     84 N          -2.4827  -24.0338  -49.1405 N.am      15 UNK        -0.5000 
     85 CA         -3.7694  -24.7205  -49.2713 C.3       15 UNK         0.1400 
     86 CB         -3.7204  -26.0701  -48.5231 C.3       15 UNK        -0.1800 
     87 C          -4.2483  -24.8418  -50.7343 C.2       15 UNK         0.5000 
     88 O          -4.7133  -23.8549  -51.3052 O.2       15 UNK        -0.5000 
     89 N          -4.1293  -26.0482  -51.3044 N.am      16 UNK        -0.5000 
     90 CA         -4.5378  -26.3944  -52.6635 C.3       16 UNK         0.1400 
     91 CB         -4.5785  -27.9254  -52.7874 C.3       16 UNK        -0.1800 
     92 C          -3.6430  -25.7963  -53.7672 C.2       16 UNK         0.5000 
     93 O          -4.0997  -25.7011  -54.9082 O.2       16 UNK        -0.5000 
     94 N          -2.3940  -25.4320  -53.4355 N.am      17 UNK        -0.5000 
     95 CA         -1.3916  -24.9187  -54.3720 C.3       17 UNK         0.1400 
     96 CB         -0.0358  -24.7856  -53.6584 C.3       17 UNK        -0.1800 
     97 C          -1.8267  -23.5837  -55.0031 C.2       17 UNK         0.5000 
     98 O          -1.7613  -22.5475  -54.3418 O.2       17 UNK        -0.5000 
     99 N          -2.2838  -23.6560  -56.2617 N.am      18 UNK        -0.5000 
    100 CA        -2.8383  -22.5644  -57.0692 C.3       18 UNK         0.1400 
    101 CB        -1.7624  -21.5023  -57.3798 C.3       18 UNK        -0.1800 
    102 C         -4.1242  -21.9554  -56.4705 C.2       18 UNK         0.5000 
    103 O         -4.3679  -20.7601  -56.6389 O.2       18 UNK        -0.5000 
    104 N         -4.9462  -22.7857  -55.8075 N.am      19 UNK        -0.5000 
    105 CA        -6.1645  -22.3832  -55.0907 C.3       19 UNK         0.1400 
    106 CB        -6.8272  -23.6182  -54.4683 C.3       19 UNK        -0.1800 
    107 C         -7.1909  -21.5889  -55.9237 C.2       19 UNK         0.5000 
    108 O         -7.8882  -20.7364  -55.3721 O.2       19 UNK        -0.5000 
    109 N         -7.2333  -21.8460  -57.2382 N.am      20 UNK        -0.5000 
    110 CA        -8.0454  -21.1114  -58.2101 C.3       20 UNK         0.1400 
    111 CB        -7.9832  -21.8374  -59.5625 C.3       20 UNK        -0.1800 
    112 C         -7.6312  -19.6334  -58.3711 C.2       20 UNK         0.5000 
    113 O         -8.4843  -18.8038  -58.6890 O.2       20 UNK        -0.5000 
    114 N         -6.3464  -19.3271  -58.1419 N.am      21 UNK        -0.5000 
    115 CA        -5.8144  -17.9656  -58.1115 C.3       21 UNK         0.1400 
    116 CB        -4.3489  -17.9736  -58.5755 C.3       21 UNK        -0.1800 
    117 C         -5.9397  -17.3494  -56.7070 C.2       21 UNK         0.5000 
    118 O         -6.1803  -16.1459  -56.6010 O.2       21 UNK        -0.5000 
    119 N         -5.7833  -18.1744  -55.6609 N.am      22 UNK        -0.5000 
    120 CA        -5.9476  -17.7764  -54.2514 C.3       22 UNK         0.1400 
    121 C         -7.4002  -17.3522  -53.8956 C.2       22 UNK         0.5000 
    122 N         -8.4139  -18.0681  -54.3676 N.am      22 UNK        -0.7600 
    123 O         -7.6071  -16.3705  -53.1878 O.2       22 UNK        -0.5000 
    124 C124       -5.4680  -18.8621  -53.2541 C.3       23 UNK        -0.0398 
    125 S125       -3.7793  -19.4674  -53.5797 S.3       23 UNK        -0.2404 
    126 C126       -3.4493  -20.4307  -52.0704 C.3       23 UNK        -0.0205 
    127 H127       -0.0386  -13.2591  -50.5889 H         1 UNK         0.0600 
    128 H128        1.0138  -11.8407  -50.6010 H         1 UNK         0.0600 
    129 H129       -0.3309  -11.9338  -49.4589 H         1 UNK         0.0600 
    130 H130        0.9377  -15.0091  -49.6234 H         1 UNK         0.3000 
    131 H131        3.3161  -14.9101  -48.1517 H         1 UNK         0.0600 
    132 H132        2.6328  -16.8675  -49.5085 H         1 UNK         0.0800 
    133 H133        3.1096  -17.3044  -47.9015 H         1 UNK         0.0800 
    134 H134        0.5286  -17.8041  -50.6051 H         1 UNK         0.0800 
    135 H135       -0.2240  -16.3581  -49.9660 H         1 UNK         0.0800 
    136 H136       -1.0975  -19.1602  -51.6375 H         1 UNK         0.1150 
    137 H137       -4.9886  -19.6989  -49.9287 H         1 UNK         0.1150 
    138 H138       -2.1524  -17.1112  -48.0212 H         1 UNK         0.1150 
    139 H139       -4.4576  -17.1421  -47.2559 H         1 UNK         0.0800 
    140 H140       -5.6741  -17.9415  -48.2153 H         1 UNK         0.0800 
    141 H141       -3.4987  -19.3869  -44.5400 H         1 UNK         0.0800 
    142 H142       -2.9507  -18.1675  -45.6492 H         1 UNK         0.0800 
    143 H143       -1.8610  -19.9129  -47.0714 H         1 UNK         0.0600 
    144 H144       -0.9750  -19.2293  -44.4488 H         1 UNK         0.3000 
    145 H145        2.2910  -20.6333  -44.6734 H         1 UNK         0.0600 
    146 H146        2.7485  -18.2328  -44.0362 H         1 UNK         0.0600 
    147 H147        2.4843  -18.4494  -45.7553 H         1 UNK         0.0600 
    148 H148        1.2114  -17.7655  -44.7584 H         1 UNK         0.0600 
    149 H149        0.7427  -19.1927  -42.6785 H         1 UNK         0.3000 
    150 H150       -0.6205  -22.0535  -41.1135 H         1 UNK         0.0600 
    151 H151        1.6080  -22.3617  -40.1670 H         1 UNK         0.0600 
    152 H152        0.6593  -21.3620  -39.0771 H         1 UNK         0.0600 
    153 H153        1.8893  -20.6321  -40.1067 H         1 UNK         0.0600 
    154 H154       -0.3176  -19.3077  -40.2986 H         1 UNK         0.3000 
    155 H155       -2.9862  -18.0190  -42.2225 H         1 UNK         0.0600 
    156 H156       -4.3884  -19.2862  -40.5839 H         1 UNK         0.0600 
    157 H157       -4.2228  -17.6020  -40.1159 H         1 UNK         0.0600 
    158 H158       -3.2858  -18.8453  -39.2854 H         1 UNK         0.0600 
    159 H159       -1.7963  -16.9504  -39.8962 H         1 UNK         0.3000 
    160 H160        0.3246  -14.9235  -41.5104 H         1 UNK         0.0600 
    161 H161       -0.3196  -16.0378  -38.7238 H         1 UNK         0.0600 
    162 H162       -1.2798  -14.8441  -39.6026 H         1 UNK         0.0600 
    163 H163        0.3473  -14.4522  -39.0844 H         1 UNK         0.0600 
    164 H164        2.3694  -15.5622  -40.9936 H         1 UNK         0.3000 
    165 H165        3.8127  -18.1054  -39.0322 H         1 UNK         0.0600 
    166 H166        5.1278  -18.7354  -41.0135 H         1 UNK         0.0600 
    167 H167        3.5001  -19.3598  -41.2165 H         1 UNK         0.0600 
    168 H168        3.9966  -17.9153  -42.0862 H         1 UNK         0.0600 
    169 H169        4.9105  -16.1249  -40.8013 H         1 UNK         0.3000 
    170 H170        4.5045  -13.2829  -38.8671 H         1 UNK         0.0600 
    171 H171        6.3488  -14.2488  -37.4761 H         1 UNK         0.0600 
    172 H172        7.1521  -14.8278  -38.9303 H         1 UNK         0.0600 
    173 H173        6.9655  -13.0961  -38.6473 H         1 UNK         0.0600 
    174 H174        6.3099  -13.6529  -40.9683 H         1 UNK         0.3000 
    175 H175        5.6684  -12.5614  -42.9823 H         1 UNK         0.0600 
    176 H176        4.6903  -15.3711  -43.7518 H         1 UNK         0.0600 
    177 H177        5.7286  -14.3620  -44.7571 H         1 UNK         0.0600 
    178 H178        6.3064  -14.9456  -43.2054 H         1 UNK         0.0600 
    179 H179        3.3429  -13.4138  -44.5000 H         1 UNK         0.3000 
    180 H180        1.3223  -10.6419  -43.9191 H         1 UNK         0.0600 
    181 H181        3.1399  -10.7535  -46.3824 H         1 UNK         0.0600 
    182 H182        2.8312   -9.3456  -45.3759 H         1 UNK         0.0600 
    183 H183        1.5322  -10.0283  -46.3428 H         1 UNK         0.0600 
    184 H184        1.5244  -12.6344  -46.0334 H         1 UNK         0.3000 
    185 H185        0.5044  -15.3313  -44.2590 H         1 UNK         0.0600 
    186 H186       -1.8355  -14.5166  -43.9887 H         1 UNK         0.0600 
    187 H187       -1.8299  -13.9036  -45.6393 H         1 UNK         0.0600 
    188 H188       -1.7113  -15.6382  -45.3318 H         1 UNK         0.0600 
    189 H189        0.0203  -14.7533  -47.0269 H         1 UNK         0.3000 
    190 H190       -2.1261  -21.6147  -43.9183 H         1 UNK         0.3000 
    191 H191       -3.4798  -23.9095  -44.8755 H         1 UNK         0.0600 
    192 H192       -3.2916  -23.2511  -42.4633 H         1 UNK         0.0600 
    193 H193       -2.7857  -24.9136  -42.7285 H         1 UNK         0.0600 
    194 H194       -1.5760  -23.6621  -42.4902 H         1 UNK         0.0600 
    195 H195        0.0184  -23.1538  -44.8018 H         1 UNK         0.3000 
    196 H196        0.9034  -25.7623  -45.6181 H         1 UNK         0.0600 
    197 H197        3.0603  -24.5847  -46.0597 H         1 UNK         0.0600 
    198 H198        2.4150  -24.1825  -44.4768 H         1 UNK         0.0600 
    199 H199        2.2770  -23.0311  -45.8041 H         1 UNK         0.0600 
    200 H200        0.0408  -22.7813  -47.4067 H         1 UNK         0.3000 
    201 H201        0.7212  -23.7645  -50.0153 H         1 UNK         0.0600 
    202 H202        0.5410  -21.3471  -49.5309 H         1 UNK         0.0600 
    203 H203       -1.1696  -21.5079  -49.1560 H         1 UNK         0.0600 
    204 H204       -0.5957  -21.7943  -50.7944 H         1 UNK         0.0600 
    205 H205       -2.4664  -23.3047  -48.4290 H         1 UNK         0.3000 
    206 H206       -4.5034  -24.0924  -48.7643 H         1 UNK         0.0600 
    207 H207       -3.5697  -25.9110  -47.4564 H         1 UNK         0.0600 
    208 H208       -4.6571  -26.6189  -48.6300 H         1 UNK         0.0600 
    209 H209       -2.9111  -26.7100  -48.8766 H         1 UNK         0.0600 
    210 H210       -3.6997  -26.7849  -50.7641 H         1 UNK         0.3000 
    211 H211       -5.5515  -26.0227  -52.8164 H         1 UNK         0.0600 
    212 H212       -4.9154  -28.2289  -53.7797 H         1 UNK         0.0600 
    213 H213       -5.2681  -28.3625  -52.0650 H         1 UNK         0.0600 
    214 H214       -3.5950  -28.3684  -52.6252 H         1 UNK         0.0600 
    215 H215       -2.1100  -25.4868  -52.4619 H         1 UNK         0.3000 
    216 H216       -1.2722  -25.6594  -55.1654 H         1 UNK         0.0600 
    217 H217        0.7403  -24.4686  -54.3558 H         1 UNK         0.0600 
    218 H218        0.2804  -25.7359  -53.2278 H         1 UNK         0.0600 
    219 H219       -0.0715  -24.0493  -52.8547 H         1 UNK         0.0600 
    220 H220       -2.3347  -24.5714  -56.6876 H         1 UNK         0.3000 
    221 H221       -3.1361  -23.0123  -58.0180 H         1 UNK         0.0600 
    222 H222       -1.4732  -20.9460  -56.4876 H         1 UNK         0.0600 
    223 H223       -0.8652  -21.9582  -57.7982 H         1 UNK         0.0600 
    224 H224       -2.1275  -20.7781  -58.1090 H         1 UNK         0.0600 
    225 H225       -4.6641  -23.7536  -55.7023 H         1 UNK         0.3000 
    226 H226       -5.8460  -21.7349  -54.2746 H         1 UNK         0.0600 
    227 H227       -6.1927  -24.0385  -53.6914 H         1 UNK         0.0600 
    228 H228       -7.7782  -23.3642  -53.9978 H         1 UNK         0.0600 
    229 H229       -7.0200  -24.3934  -55.2107 H         1 UNK         0.0600 
    230 H230       -6.6216  -22.5607  -57.6038 H         1 UNK         0.3000 
    231 H231       -9.0799  -21.1260  -57.8608 H         1 UNK         0.0600 
    232 H232       -6.9651  -21.8753  -59.9521 H         1 UNK         0.0600 
    233 H233       -8.6006  -21.3316  -60.3061 H         1 UNK         0.0600 
    234 H234       -8.3504  -22.8605  -59.4790 H         1 UNK         0.0600 
    235 H235       -5.7133  -20.0545  -57.8242 H         1 UNK         0.3000 
    236 H236       -6.3787  -17.3393  -58.8057 H         1 UNK         0.0600 
    237 H237       -4.2521  -18.4093  -59.5699 H         1 UNK         0.0600 
    238 H238       -3.9531  -16.9585  -58.6247 H         1 UNK         0.0600 
    239 H239       -3.7092  -18.5391  -57.8976 H         1 UNK         0.0600 
    240 H240       -5.5163  -19.1358  -55.8329 H         1 UNK         0.3000 
    241 H241       -5.3155  -16.8992  -54.0995 H         1 UNK         0.0600 
    242 H242       -9.3590  -17.7991  -54.1460 H         1 UNK         0.3800 
    243 H243       -8.2434  -18.9274  -54.8840 H         1 UNK         0.3800 
    244 H244       -5.4957  -18.4609  -52.2398 H         1 UNK         0.0800 
    245 H245       -6.1472  -19.7148  -53.2596 H         1 UNK         0.0800 
    246 H246       -2.6252  -21.1187  -52.2614 H         1 UNK         0.0800 
    247 H247       -4.3126  -21.0529  -51.8288 H         1 UNK         0.0800 
@<TRIPOS>BOND
     1    1    2 1    
     2    1  127 1    
     3    1  128 1    
     4    1  129 1    
     5    2    3 2    
     6    2    4 am   BACKBONE|DICT|INTERRES
     7    4    5 1    
     8    4  130 1    
     9    5    6 1    
    10    5   65 1    
    11    5  131 1    
    12    6    7 1    
    13    6  132 1    
    14    6  133 1    
    15    7    8 1    
    16    8    9 1    
    17    8  134 1    
    18    8  135 1    
    19    9   10 ar   
    20    9   14 ar   
    21   10   11 ar   
    22   10  136 1    
    23   11   12 ar   
    24   11  126 1    
    25   12   13 ar   
    26   12  137 1    
    27   13   14 ar   
    28   13   15 1    
    29   14  138 1    
    30   15   16 1    
    31   15  139 1    
    32   15  140 1    
    33   16   17 1    
    34   17   18 1    
    35   17  141 1    
    36   17  142 1    
    37   18   19 1    
    38   18   67 1    
    39   18  143 1    
    40   19   20 am   BACKBONE|DICT|INTERRES
    41   19  144 1    
    42   20   21 2    
    43   20   22 1    
    44   22   23 1    
    45   22   24 1    
    46   22  145 1    
    47   23  146 1    
    48   23  147 1    
    49   23  148 1    
    50   24   25 am   BACKBONE|DICT|INTERRES
    51   24  149 1    
    52   25   26 2    
    53   25   27 1    
    54   27   28 1    
    55   27   29 1    
    56   27  150 1    
    57   28  151 1    
    58   28  152 1    
    59   28  153 1    
    60   29   30 am   BACKBONE|DICT|INTERRES
    61   29  154 1    
    62   30   31 2    
    63   30   32 1    
    64   32   33 1    
    65   32   34 1    
    66   32  155 1    
    67   33  156 1    
    68   33  157 1    
    69   33  158 1    
    70   34   35 am   BACKBONE|DICT|INTERRES
    71   34  159 1    
    72   35   36 2    
    73   35   37 1    
    74   37   38 1    
    75   37   39 1    
    76   37  160 1    
    77   38  161 1    
    78   38  162 1    
    79   38  163 1    
    80   39   40 am   BACKBONE|DICT|INTERRES
    81   39  164 1    
    82   40   41 2    
    83   40   42 1    
    84   42   43 1    
    85   42   44 1    
    86   42  165 1    
    87   43  166 1    
    88   43  167 1    
    89   43  168 1    
    90   44   45 am   BACKBONE|DICT|INTERRES
    91   44  169 1    
    92   45   46 2    
    93   45   47 1    
    94   47   48 1    
    95   47   49 1    
    96   47  170 1    
    97   48  171 1    
    98   48  172 1    
    99   48  173 1    
   100   49   50 am   BACKBONE|DICT|INTERRES
   101   49  174 1    
   102   50   51 2    
   103   50   52 1    
   104   52   53 1    
   105   52   54 1    
   106   52  175 1    
   107   53  176 1    
   108   53  177 1    
   109   53  178 1    
   110   54   55 am   BACKBONE|DICT|INTERRES
   111   54  179 1    
   112   55   56 2    
   113   55   57 1    
   114   57   58 1    
   115   57   59 1    
   116   57  180 1    
   117   58  181 1    
   118   58  182 1    
   119   58  183 1    
   120   59   60 am   BACKBONE|DICT|INTERRES
   121   59  184 1    
   122   60   61 2    
   123   60   62 1    
   124   62   63 1    
   125   62   64 1    
   126   62  185 1    
   127   63  186 1    
   128   63  187 1    
   129   63  188 1    
   130   64   65 am   BACKBONE|DICT|INTERRES
   131   64  189 1    
   132   65   66 2    
   133   67   68 2    
   134   67   69 am   BACKBONE|DICT|INTERRES
   135   69   70 1    
   136   69  190 1    
   137   70   71 1    
   138   70   72 1    
   139   70  191 1    
   140   71  192 1    
   141   71  193 1    
   142   71  194 1    
   143   72   73 2    
   144   72   74 am   BACKBONE|DICT|INTERRES
   145   74   75 1    
   146   74  195 1    
   147   75   76 1    
   148   75   77 1    
   149   75  196 1    
   150   76  197 1    
   151   76  198 1    
   152   76  199 1    
   153   77   78 2    
   154   77   79 am   BACKBONE|DICT|INTERRES
   155   79   80 1    
   156   79  200 1    
   157   80   81 1    
   158   80   82 1    
   159   80  201 1    
   160   81  202 1    
   161   81  203 1    
   162   81  204 1    
   163   82   83 2    
   164   82   84 am   BACKBONE|DICT|INTERRES
   165   84   85 1    
   166   84  205 1    
   167   85   86 1    
   168   85   87 1    
   169   85  206 1    
   170   86  207 1    
   171   86  208 1    
   172   86  209 1    
   173   87   88 2    
   174   87   89 am   BACKBONE|DICT|INTERRES
   175   89   90 1    
   176   89  210 1    
   177   90   91 1    
   178   90   92 1    
   179   90  211 1    
   180   91  212 1    
   181   91  213 1    
   182   91  214 1    
   183   92   93 2    
   184   92   94 am   BACKBONE|DICT|INTERRES
   185   94   95 1    
   186   94  215 1    
   187   95   96 1    
   188   95   97 1    
   189   95  216 1    
   190   96  217 1    
   191   96  218 1    
   192   96  219 1    
   193   97   98 2    
   194   97   99 am   BACKBONE|DICT|INTERRES
   195   99  100 1    
   196   99  220 1    
   197  100  101 1    
   198  100  102 1    
   199  100  221 1    
   200  101  222 1    
   201  101  223 1    
   202  101  224 1    
   203  102  103 2    
   204  102  104 am   BACKBONE|DICT|INTERRES
   205  104  105 1    
   206  104  225 1    
   207  105  106 1    
   208  105  107 1    
   209  105  226 1    
   210  106  227 1    
   211  106  228 1    
   212  106  229 1    
   213  107  108 2    
   214  107  109 am   BACKBONE|DICT|INTERRES
   215  109  110 1    
   216  109  230 1    
   217  110  111 1    
   218  110  112 1    
   219  110  231 1    
   220  111  232 1    
   221  111  233 1    
   222  111  234 1    
   223  112  113 2    
   224  112  114 am   BACKBONE|DICT|INTERRES
   225  114  115 1    
   226  114  235 1    
   227  115  116 1    
   228  115  117 1    
   229  115  236 1    
   230  116  237 1    
   231  116  238 1    
   232  116  239 1    
   233  117  118 2    
   234  117  119 am   BACKBONE|DICT|INTERRES
   235  119  120 1    
   236  119  240 1    
   237  120  121 1    
   238  120  124 1    
   239  120  241 1    
   240  121  122 am   BACKBONE|DICT|INTERRES
   241  121  123 2    
   242  122  242 1    
   243  122  243 1    
   244  124  125 1    
   245  124  244 1    
   246  124  245 1    
   247  125  126 1    
   248  126  246 1    
   249  126  247 1    
@<TRIPOS>SUBSTRUCTURE
     1 UNK         1 GROUP             0       ****    0 ROOT    
