@<TRIPOS>MOLECULE
3R540
247   249    1
SMALL
USER_CHARGES


@<TRIPOS>ATOM
      1 CA          7.6844  -11.4079  -45.6136 C.3       0 UNK        -0.1800 
      2 C           6.2808  -11.9936  -45.5915 C.2       0 UNK         0.5000 
      3 O           5.4587  -11.5759  -44.7782 O.2       0 UNK        -0.5000 
      4 N           5.9956  -12.9413  -46.4946 N.am      1 UNK        -0.5000 
      5 CA          4.7285  -13.6803  -46.6271 C.3       1 UNK         0.1400 
      6 C6          4.8566  -14.7511  -47.7395 C.3       23 UNK        -0.0398 
      7 S7          3.6029  -16.0742  -47.6569 S.3       23 UNK        -0.2404 
      8 C8          2.8623  -15.9233  -49.3126 C.3       23 UNK        -0.0205 
      9 C9          1.8146  -16.9971  -49.5532 C.ar      23 UNK        -0.0193 
     10 C10         0.4541  -16.6824  -49.5093 C.ar      23 UNK        -0.1150 
     11 C11        -0.5091  -17.6730  -49.7197 C.ar      23 UNK        -0.0193 
     12 C12        -0.1034  -18.9880  -49.9651 C.ar      23 UNK        -0.1150 
     13 C13         1.2551  -19.3142  -50.0228 C.ar      23 UNK        -0.0193 
     14 C14         2.2084  -18.3093  -49.8286 C.ar      23 UNK        -0.1150 
     15 C15         1.6812  -20.7542  -50.2905 C.3       23 UNK        -0.0205 
     16 S16         2.9131  -21.3920  -49.1004 S.3       23 UNK        -0.2404 
     17 C17         2.1293  -21.0349  -47.4897 C.3       23 UNK        -0.0398 
     18 CA          1.4013  -22.2404  -46.8550 C.3       11 UNK         0.1400 
     19 N           1.0773  -21.9753  -45.4531 N.am      11 UNK        -0.5000 
     20 C           0.5712  -22.8646  -44.5893 C.2       10 UNK         0.5000 
     21 O           0.3701  -24.0478  -44.8618 O.2       10 UNK        -0.5000 
     22 CA          0.1755  -22.3238  -43.2033 C.3       10 UNK         0.1400 
     23 CB          1.4070  -22.1839  -42.2963 C.3       10 UNK        -0.1800 
     24 N          -0.5281  -21.0416  -43.2852 N.am      10 UNK        -0.5000 
     25 C          -1.7210  -20.8757  -43.8751 C.2       9 UNK         0.5000 
     26 O          -2.3726  -21.7987  -44.3637 O.2       9 UNK        -0.5000 
     27 CA         -2.2634  -19.4383  -43.9710 C.3       9 UNK         0.1400 
     28 CB         -2.9011  -19.0075  -42.6421 C.3       9 UNK        -0.1800 
     29 N          -1.2429  -18.4677  -44.3692 N.am      9 UNK        -0.5000 
     30 C          -0.6054  -18.4717  -45.5491 C.2       8 UNK         0.5000 
     31 O          -0.8353  -19.2822  -46.4442 O.2       8 UNK        -0.5000 
     32 CA          0.5161  -17.4343  -45.7408 C.3       8 UNK         0.1400 
     33 CB         -0.0642  -16.0502  -46.0633 C.3       8 UNK        -0.1800 
     34 N           1.3954  -17.3419  -44.5749 N.am      8 UNK        -0.5000 
     35 C           2.1292  -18.3567  -44.0957 C.2       7 UNK         0.5000 
     36 O           2.1928  -19.4675  -44.6203 O.2       7 UNK        -0.5000 
     37 CA          2.8621  -18.1106  -42.7684 C.3       7 UNK         0.1400 
     38 CB          4.1900  -17.3725  -42.9984 C.3       7 UNK        -0.1800 
     39 N           2.0235  -17.3671  -41.8275 N.am      7 UNK        -0.5000 
     40 C           0.9502  -17.8837  -41.2105 C.2       6 UNK         0.5000 
     41 O           0.5866  -19.0526  -41.3402 O.2       6 UNK        -0.5000 
     42 CA          0.1227  -16.9270  -40.3309 C.3       6 UNK         0.1400 
     43 CB          0.7286  -16.8267  -38.9233 C.3       6 UNK        -0.1800 
     44 N           0.0072  -15.5859  -40.9053 N.am      6 UNK        -0.5000 
     45 C          -0.6556  -15.2998  -42.0349 C.2       5 UNK         0.5000 
     46 O          -1.2906  -16.1326  -42.6795 O.2       5 UNK        -0.5000 
     47 CA         -0.5533  -13.8540  -42.5598 C.3       5 UNK         0.1400 
     48 CB         -1.6924  -12.9935  -41.9947 C.3       5 UNK        -0.1800 
     49 N           0.7289  -13.2065  -42.2702 N.am      5 UNK        -0.5000 
     50 C           1.9309  -13.6608  -42.6458 C.2       4 UNK         0.5000 
     51 O           2.0956  -14.7017  -43.2845 O.2       4 UNK        -0.5000 
     52 CA          3.1389  -12.8093  -42.2148 C.3       4 UNK         0.1400 
     53 CB          4.4614  -13.5934  -42.2778 C.3       4 UNK        -0.1800 
     54 N           3.2604  -11.6090  -43.0363 N.am      4 UNK        -0.5000 
     55 C           2.5036  -10.5085  -42.9352 C.2       3 UNK         0.5000 
     56 O           1.6014  -10.3755  -42.1065 O.2       3 UNK        -0.5000 
     57 CA          2.8009   -9.3709  -43.9256 C.3       3 UNK         0.1400 
     58 CB          4.0027   -8.5413  -43.4466 C.3       3 UNK        -0.1800 
     59 N           3.0829   -9.8942  -45.2624 N.am      3 UNK        -0.5000 
     60 C           2.2070   -9.9138  -46.2765 C.2       2 UNK         0.5000 
     61 O           1.0689   -9.4482  -46.2061 O.2       2 UNK        -0.5000 
     62 CA          2.6736  -10.5545  -47.6013 C.3       2 UNK         0.1400 
     63 CB          3.2099   -9.4780  -48.5573 C.3       2 UNK        -0.1800 
     64 N           3.6986  -11.5852  -47.4260 N.am      2 UNK        -0.5000 
     65 C           3.4914  -12.7715  -46.8364 C.2       1 UNK         0.5000 
     66 O           2.3883  -13.1366  -46.4322 O.2       1 UNK        -0.5000 
     67 C           0.1493  -22.6531  -47.6564 C.2       11 UNK         0.5000 
     68 O           0.1918  -23.6575  -48.3657 O.2       11 UNK        -0.5000 
     69 N          -0.9529  -21.9066  -47.4965 N.am      12 UNK        -0.5000 
     70 CA         -2.2511  -22.1932  -48.1061 C.3       12 UNK         0.1400 
     71 CB         -3.2414  -21.0712  -47.7685 C.3       12 UNK        -0.1800 
     72 C          -2.8244  -23.5566  -47.6873 C.2       12 UNK         0.5000 
     73 O          -3.2992  -24.2977  -48.5474 O.2       12 UNK        -0.5000 
     74 N          -2.7383  -23.8754  -46.3885 N.am      13 UNK        -0.5000 
     75 CA         -3.1538  -25.1577  -45.8200 C.3       13 UNK         0.1400 
     76 CB         -3.1155  -25.0754  -44.2866 C.3       13 UNK        -0.1800 
     77 C          -2.3084  -26.3415  -46.3254 C.2       13 UNK         0.5000 
     78 O          -2.8617  -27.4114  -46.5812 O.2       13 UNK        -0.5000 
     79 N          -0.9936  -26.1275  -46.4743 N.am      14 UNK        -0.5000 
     80 CA         -0.0539  -27.1043  -47.0237 C.3       14 UNK         0.1400 
     81 CB          1.3864  -26.6512  -46.7389 C.3       14 UNK        -0.1800 
     82 C          -0.2660  -27.3467  -48.5296 C.2       14 UNK         0.5000 
     83 O          -0.2268  -28.4974  -48.9675 O.2       14 UNK        -0.5000 
     84 N          -0.4885  -26.2656  -49.2902 N.am      15 UNK        -0.5000 
     85 CA         -0.7558  -26.2982  -50.7278 C.3       15 UNK         0.1400 
     86 CB         -0.6537  -24.8754  -51.3021 C.3       15 UNK        -0.1800 
     87 C          -2.1232  -26.9215  -51.0576 C.2       15 UNK         0.5000 
     88 O          -2.2013  -27.7809  -51.9362 O.2       15 UNK        -0.5000 
     89 N          -3.1666  -26.4705  -50.3439 N.am      16 UNK        -0.5000 
     90 CA         -4.5678  -26.8986  -50.4328 C.3       16 UNK         0.1400 
     91 CB         -4.7189  -28.3462  -49.9217 C.3       16 UNK        -0.1800 
     92 C          -5.2074  -26.6839  -51.8242 C.2       16 UNK         0.5000 
     93 O          -6.1356  -27.4074  -52.1897 O.2       16 UNK        -0.5000 
     94 N          -4.6962  -25.7014  -52.5807 N.am      17 UNK        -0.5000 
     95 CA         -5.1269  -25.3853  -53.9430 C.3       17 UNK         0.1400 
     96 CB         -4.0838  -24.4720  -54.6087 C.3       17 UNK        -0.1800 
     97 C          -6.5296  -24.7543  -53.9844 C.2       17 UNK         0.5000 
     98 O          -7.3994  -25.2551  -54.6991 O.2       17 UNK        -0.5000 
     99 N          -6.7126  -23.6846  -53.1943 N.am      18 UNK        -0.5000 
    100 CA        -7.9343  -22.8829  -53.0526 C.3       18 UNK         0.1400 
    101 CB        -9.0096  -23.6957  -52.2970 C.3       18 UNK        -0.1800 
    102 C         -8.4398  -22.2878  -54.3901 C.2       18 UNK         0.5000 
    103 O         -7.6490  -22.1034  -55.3197 O.2       18 UNK        -0.5000 
    104 N         -9.7433  -21.9766  -54.4563 N.am      19 UNK        -0.5000 
    105 CA       -10.4569  -21.3801  -55.5896 C.3       19 UNK         0.1400 
    106 CB       -10.5547  -22.3833  -56.7616 C.3       19 UNK        -0.1800 
    107 C         -9.8594  -20.0128  -55.9804 C.2       19 UNK         0.5000 
    108 O        -10.1011  -19.0295  -55.2787 O.2       19 UNK        -0.5000 
    109 N         -9.0910  -19.9735  -57.0764 N.am      20 UNK        -0.5000 
    110 CA        -8.3712  -18.7911  -57.5484 C.3       20 UNK         0.1400 
    111 CB        -7.9757  -19.0048  -59.0178 C.3       20 UNK        -0.1800 
    112 C         -7.1284  -18.4557  -56.6991 C.2       20 UNK         0.5000 
    113 O         -6.7136  -17.2956  -56.6794 O.2       20 UNK        -0.5000 
    114 N         -6.5511  -19.4590  -56.0242 N.am      21 UNK        -0.5000 
    115 CA        -5.4188  -19.2974  -55.1155 C.3       21 UNK         0.1400 
    116 CB        -4.5956  -20.5959  -55.1038 C.3       21 UNK        -0.1800 
    117 C         -5.9073  -18.9598  -53.6972 C.2       21 UNK         0.5000 
    118 O         -7.0174  -19.3379  -53.3148 O.2       21 UNK        -0.5000 
    119 N         -5.0456  -18.2876  -52.9271 N.am      22 UNK        -0.5000 
    120 CA        -5.2722  -17.9499  -51.5118 C.3       22 UNK         0.1400 
    121 C         -5.1862  -19.1519  -50.5244 C.2       22 UNK         0.5000 
    122 N         -4.6989  -20.3180  -50.9338 N.am      22 UNK        -0.7600 
    123 O         -5.5854  -19.0252  -49.3707 O.2       22 UNK        -0.5000 
    124 C124       -4.3883  -16.7579  -51.0573 C.3       23 UNK        -0.0398 
    125 S125       -2.6026  -16.9935  -51.3699 S.3       23 UNK        -0.2404 
    126 C126       -1.9875  -17.3236  -49.6913 C.3       23 UNK        -0.0205 
    127 H127        8.3003  -11.8574  -46.3928 H         1 UNK         0.0600 
    128 H128        7.6386  -10.3336  -45.7919 H         1 UNK         0.0600 
    129 H129        8.1732  -11.5746  -44.6538 H         1 UNK         0.0600 
    130 H130        6.7225  -13.2176  -47.1394 H         1 UNK         0.3000 
    131 H131        4.5766  -14.1986  -45.6782 H         1 UNK         0.0600 
    132 H132        5.8227  -15.2512  -47.6573 H         1 UNK         0.0800 
    133 H133        4.8540  -14.2821  -48.7251 H         1 UNK         0.0800 
    134 H134        3.6425  -16.0063  -50.0708 H         1 UNK         0.0800 
    135 H135        2.4249  -14.9294  -49.4215 H         1 UNK         0.0800 
    136 H136        0.1439  -15.6659  -49.3120 H         1 UNK         0.1150 
    137 H137       -0.8503  -19.7544  -50.1180 H         1 UNK         0.1150 
    138 H138        3.2609  -18.5527  -49.8683 H         1 UNK         0.1150 
    139 H139        0.8160  -21.4188  -50.2863 H         1 UNK         0.0800 
    140 H140        2.1033  -20.8116  -51.2944 H         1 UNK         0.0800 
    141 H141        1.4662  -20.1729  -47.5561 H         1 UNK         0.0800 
    142 H142        2.9394  -20.7205  -46.8308 H         1 UNK         0.0800 
    143 H143        2.0875  -23.0899  -46.8629 H         1 UNK         0.0600 
    144 H144        1.2520  -21.0280  -45.1266 H         1 UNK         0.3000 
    145 H145       -0.5016  -23.0480  -42.7459 H         1 UNK         0.0600 
    146 H146        1.1216  -21.8753  -41.2905 H         1 UNK         0.0600 
    147 H147        1.9365  -23.1333  -42.2079 H         1 UNK         0.0600 
    148 H148        2.1125  -21.4484  -42.6833 H         1 UNK         0.0600 
    149 H149       -0.0714  -20.2410  -42.8606 H         1 UNK         0.3000 
    150 H150       -3.0422  -19.4296  -44.7361 H         1 UNK         0.0600 
    151 H151       -3.6728  -19.7131  -42.3318 H         1 UNK         0.0600 
    152 H152       -3.3728  -18.0288  -42.7310 H         1 UNK         0.0600 
    153 H153       -2.1643  -18.9519  -41.8405 H         1 UNK         0.0600 
    154 H154       -1.0392  -17.7266  -43.7043 H         1 UNK         0.3000 
    155 H155        1.1224  -17.7550  -46.5905 H         1 UNK         0.0600 
    156 H156       -0.6516  -15.6547  -45.2366 H         1 UNK         0.0600 
    157 H157       -0.7199  -16.0952  -46.9326 H         1 UNK         0.0600 
    158 H158        0.7273  -15.3350  -46.2869 H         1 UNK         0.0600 
    159 H159        1.4411  -16.4463  -44.0996 H         1 UNK         0.3000 
    160 H160        3.0916  -19.0820  -42.3251 H         1 UNK         0.0600 
    161 H161        4.7055  -17.1809  -42.0574 H         1 UNK         0.0600 
    162 H162        4.0457  -16.4185  -43.5048 H         1 UNK         0.0600 
    163 H163        4.8585  -17.9688  -43.6204 H         1 UNK         0.0600 
    164 H164        2.2069  -16.3771  -41.7455 H         1 UNK         0.3000 
    165 H165       -0.8823  -17.3446  -40.2404 H         1 UNK         0.0600 
    166 H166        0.1077  -16.2139  -38.2695 H         1 UNK         0.0600 
    167 H167        0.8094  -17.8122  -38.4628 H         1 UNK         0.0600 
    168 H168        1.7283  -16.3907  -38.9436 H         1 UNK         0.0600 
    169 H169        0.4982  -14.8405  -40.4344 H         1 UNK         0.3000 
    170 H170       -0.6601  -13.8894  -43.6452 H         1 UNK         0.0600 
    171 H171       -2.6642  -13.4361  -42.2181 H         1 UNK         0.0600 
    172 H172       -1.6192  -12.8898  -40.9114 H         1 UNK         0.0600 
    173 H173       -1.6842  -11.9937  -42.4293 H         1 UNK         0.0600 
    174 H174        0.6913  -12.3037  -41.8114 H         1 UNK         0.3000 
    175 H175        2.9834  -12.5100  -41.1762 H         1 UNK         0.0600 
    176 H176        5.2950  -12.9878  -41.9218 H         1 UNK         0.0600 
    177 H177        4.4173  -14.4859  -41.6526 H         1 UNK         0.0600 
    178 H178        4.6945  -13.9136  -43.2933 H         1 UNK         0.0600 
    179 H179        4.0018  -11.6253  -43.7332 H         1 UNK         0.3000 
    180 H180        1.9294   -8.7133  -43.9500 H         1 UNK         0.0600 
    181 H181        4.9144   -9.1382  -43.3988 H         1 UNK         0.0600 
    182 H182        3.8236   -8.1337  -42.4508 H         1 UNK         0.0600 
    183 H183        4.1892   -7.6996  -44.1137 H         1 UNK         0.0600 
    184 H184        3.9810  -10.3488  -45.3834 H         1 UNK         0.3000 
    185 H185        1.8017  -11.0197  -48.0661 H         1 UNK         0.0600 
    186 H186        2.4610   -8.7049  -48.7347 H         1 UNK         0.0600 
    187 H187        4.0977   -8.9885  -48.1548 H         1 UNK         0.0600 
    188 H188        3.4702   -9.9043  -49.5263 H         1 UNK         0.0600 
    189 H189        4.6352  -11.3518  -47.7216 H         1 UNK         0.3000 
    190 H190       -0.8983  -21.0587  -46.9355 H         1 UNK         0.3000 
    191 H191       -2.1106  -22.2101  -49.1887 H         1 UNK         0.0600 
    192 H192       -3.3636  -20.9485  -46.6932 H         1 UNK         0.0600 
    193 H193       -4.2280  -21.2771  -48.1838 H         1 UNK         0.0600 
    194 H194       -2.9075  -20.1184  -48.1746 H         1 UNK         0.0600 
    195 H195       -2.3793  -23.1827  -45.7372 H         1 UNK         0.3000 
    196 H196       -4.1872  -25.3366  -46.1240 H         1 UNK         0.0600 
    197 H197       -3.4398  -26.0141  -43.8360 H         1 UNK         0.0600 
    198 H198       -3.7771  -24.2913  -43.9179 H         1 UNK         0.0600 
    199 H199       -2.1108  -24.8636  -43.9197 H         1 UNK         0.0600 
    200 H200       -0.6064  -25.2354  -46.1834 H         1 UNK         0.3000 
    201 H201       -0.2147  -28.0537  -46.5085 H         1 UNK         0.0600 
    202 H202        1.5631  -26.5529  -45.6677 H         1 UNK         0.0600 
    203 H203        1.6072  -25.6894  -47.2024 H         1 UNK         0.0600 
    204 H204        2.1067  -27.3744  -47.1229 H         1 UNK         0.0600 
    205 H205       -0.4353  -25.3456  -48.8585 H         1 UNK         0.3000 
    206 H206        0.0145  -26.9101  -51.2018 H         1 UNK         0.0600 
    207 H207        0.3437  -24.4618  -51.1507 H         1 UNK         0.0600 
    208 H208       -0.8489  -24.8704  -52.3753 H         1 UNK         0.0600 
    209 H209       -1.3678  -24.1976  -50.8329 H         1 UNK         0.0600 
    210 H210       -2.9990  -25.7356  -49.6589 H         1 UNK         0.3000 
    211 H211       -5.1197  -26.2520  -49.7493 H         1 UNK         0.0600 
    212 H212       -4.2413  -29.0628  -50.5905 H         1 UNK         0.0600 
    213 H213       -5.7694  -28.6263  -49.8368 H         1 UNK         0.0600 
    214 H214       -4.2734  -28.4619  -48.9334 H         1 UNK         0.0600 
    215 H215       -3.9340  -25.1598  -52.2021 H         1 UNK         0.3000 
    216 H216       -5.1657  -26.3171  -54.5116 H         1 UNK         0.0600 
    217 H217       -4.3959  -24.1912  -55.6156 H         1 UNK         0.0600 
    218 H218       -3.1209  -24.9758  -54.6960 H         1 UNK         0.0600 
    219 H219       -3.9281  -23.5518  -54.0450 H         1 UNK         0.0600 
    220 H220       -5.9210  -23.3610  -52.6592 H         1 UNK         0.3000 
    221 H221       -7.6621  -22.0299  -52.4292 H         1 UNK         0.0600 
    222 H222       -9.4159  -24.4987  -52.9132 H         1 UNK         0.0600 
    223 H223       -8.5961  -24.1482  -51.3955 H         1 UNK         0.0600 
    224 H224       -9.8405  -23.0653  -51.9795 H         1 UNK         0.0600 
    225 H225      -10.3044  -22.1320  -53.6311 H         1 UNK         0.3000 
    226 H226      -11.4735  -21.1814  -55.2470 H         1 UNK         0.0600 
    227 H227      -11.0931  -23.2808  -56.4573 H         1 UNK         0.0600 
    228 H228      -11.1002  -21.9523  -57.6021 H         1 UNK         0.0600 
    229 H229       -9.5768  -22.6987  -57.1264 H         1 UNK         0.0600 
    230 H230       -8.9223  -20.8363  -57.5730 H         1 UNK         0.3000 
    231 H231       -9.0452  -17.9332  -57.4994 H         1 UNK         0.0600 
    232 H232       -8.8531  -19.1748  -59.6421 H         1 UNK         0.0600 
    233 H233       -7.3082  -19.8595  -59.1345 H         1 UNK         0.0600 
    234 H234       -7.4604  -18.1292  -59.4149 H         1 UNK         0.0600 
    235 H235       -7.0018  -20.3693  -56.0095 H         1 UNK         0.3000 
    236 H236       -4.7775  -18.4882  -55.4717 H         1 UNK         0.0600 
    237 H237       -3.6953  -20.4841  -54.4986 H         1 UNK         0.0600 
    238 H238       -5.1634  -21.4310  -54.6937 H         1 UNK         0.0600 
    239 H239       -4.2773  -20.8710  -56.1094 H         1 UNK         0.0600 
    240 H240       -4.1427  -18.0252  -53.2962 H         1 UNK         0.3000 
    241 H241       -6.3059  -17.6066  -51.4365 H         1 UNK         0.0600 
    242 H242       -4.6710  -21.0912  -50.2917 H         1 UNK         0.3800 
    243 H243       -4.3548  -20.4243  -51.8728 H         1 UNK         0.3800 
    244 H244       -4.6945  -15.8636  -51.6015 H         1 UNK         0.0800 
    245 H245       -4.5575  -16.5237  -50.0047 H         1 UNK         0.0800 
    246 H246       -2.1598  -16.4499  -49.0611 H         1 UNK         0.0800 
    247 H247       -2.5537  -18.1416  -49.2472 H         1 UNK         0.0800 
@<TRIPOS>BOND
     1    1    2 1    
     2    1  127 1    
     3    1  128 1    
     4    1  129 1    
     5    2    3 2    
     6    2    4 am   BACKBONE|DICT|INTERRES
     7    4    5 1    
     8    4  130 1    
     9    5    6 1    
    10    5   65 1    
    11    5  131 1    
    12    6    7 1    
    13    6  132 1    
    14    6  133 1    
    15    7    8 1    
    16    8    9 1    
    17    8  134 1    
    18    8  135 1    
    19    9   10 ar   
    20    9   14 ar   
    21   10   11 ar   
    22   10  136 1    
    23   11   12 ar   
    24   11  126 1    
    25   12   13 ar   
    26   12  137 1    
    27   13   14 ar   
    28   13   15 1    
    29   14  138 1    
    30   15   16 1    
    31   15  139 1    
    32   15  140 1    
    33   16   17 1    
    34   17   18 1    
    35   17  141 1    
    36   17  142 1    
    37   18   19 1    
    38   18   67 1    
    39   18  143 1    
    40   19   20 am   BACKBONE|DICT|INTERRES
    41   19  144 1    
    42   20   21 2    
    43   20   22 1    
    44   22   23 1    
    45   22   24 1    
    46   22  145 1    
    47   23  146 1    
    48   23  147 1    
    49   23  148 1    
    50   24   25 am   BACKBONE|DICT|INTERRES
    51   24  149 1    
    52   25   26 2    
    53   25   27 1    
    54   27   28 1    
    55   27   29 1    
    56   27  150 1    
    57   28  151 1    
    58   28  152 1    
    59   28  153 1    
    60   29   30 am   BACKBONE|DICT|INTERRES
    61   29  154 1    
    62   30   31 2    
    63   30   32 1    
    64   32   33 1    
    65   32   34 1    
    66   32  155 1    
    67   33  156 1    
    68   33  157 1    
    69   33  158 1    
    70   34   35 am   BACKBONE|DICT|INTERRES
    71   34  159 1    
    72   35   36 2    
    73   35   37 1    
    74   37   38 1    
    75   37   39 1    
    76   37  160 1    
    77   38  161 1    
    78   38  162 1    
    79   38  163 1    
    80   39   40 am   BACKBONE|DICT|INTERRES
    81   39  164 1    
    82   40   41 2    
    83   40   42 1    
    84   42   43 1    
    85   42   44 1    
    86   42  165 1    
    87   43  166 1    
    88   43  167 1    
    89   43  168 1    
    90   44   45 am   BACKBONE|DICT|INTERRES
    91   44  169 1    
    92   45   46 2    
    93   45   47 1    
    94   47   48 1    
    95   47   49 1    
    96   47  170 1    
    97   48  171 1    
    98   48  172 1    
    99   48  173 1    
   100   49   50 am   BACKBONE|DICT|INTERRES
   101   49  174 1    
   102   50   51 2    
   103   50   52 1    
   104   52   53 1    
   105   52   54 1    
   106   52  175 1    
   107   53  176 1    
   108   53  177 1    
   109   53  178 1    
   110   54   55 am   BACKBONE|DICT|INTERRES
   111   54  179 1    
   112   55   56 2    
   113   55   57 1    
   114   57   58 1    
   115   57   59 1    
   116   57  180 1    
   117   58  181 1    
   118   58  182 1    
   119   58  183 1    
   120   59   60 am   BACKBONE|DICT|INTERRES
   121   59  184 1    
   122   60   61 2    
   123   60   62 1    
   124   62   63 1    
   125   62   64 1    
   126   62  185 1    
   127   63  186 1    
   128   63  187 1    
   129   63  188 1    
   130   64   65 am   BACKBONE|DICT|INTERRES
   131   64  189 1    
   132   65   66 2    
   133   67   68 2    
   134   67   69 am   BACKBONE|DICT|INTERRES
   135   69   70 1    
   136   69  190 1    
   137   70   71 1    
   138   70   72 1    
   139   70  191 1    
   140   71  192 1    
   141   71  193 1    
   142   71  194 1    
   143   72   73 2    
   144   72   74 am   BACKBONE|DICT|INTERRES
   145   74   75 1    
   146   74  195 1    
   147   75   76 1    
   148   75   77 1    
   149   75  196 1    
   150   76  197 1    
   151   76  198 1    
   152   76  199 1    
   153   77   78 2    
   154   77   79 am   BACKBONE|DICT|INTERRES
   155   79   80 1    
   156   79  200 1    
   157   80   81 1    
   158   80   82 1    
   159   80  201 1    
   160   81  202 1    
   161   81  203 1    
   162   81  204 1    
   163   82   83 2    
   164   82   84 am   BACKBONE|DICT|INTERRES
   165   84   85 1    
   166   84  205 1    
   167   85   86 1    
   168   85   87 1    
   169   85  206 1    
   170   86  207 1    
   171   86  208 1    
   172   86  209 1    
   173   87   88 2    
   174   87   89 am   BACKBONE|DICT|INTERRES
   175   89   90 1    
   176   89  210 1    
   177   90   91 1    
   178   90   92 1    
   179   90  211 1    
   180   91  212 1    
   181   91  213 1    
   182   91  214 1    
   183   92   93 2    
   184   92   94 am   BACKBONE|DICT|INTERRES
   185   94   95 1    
   186   94  215 1    
   187   95   96 1    
   188   95   97 1    
   189   95  216 1    
   190   96  217 1    
   191   96  218 1    
   192   96  219 1    
   193   97   98 2    
   194   97   99 am   BACKBONE|DICT|INTERRES
   195   99  100 1    
   196   99  220 1    
   197  100  101 1    
   198  100  102 1    
   199  100  221 1    
   200  101  222 1    
   201  101  223 1    
   202  101  224 1    
   203  102  103 2    
   204  102  104 am   BACKBONE|DICT|INTERRES
   205  104  105 1    
   206  104  225 1    
   207  105  106 1    
   208  105  107 1    
   209  105  226 1    
   210  106  227 1    
   211  106  228 1    
   212  106  229 1    
   213  107  108 2    
   214  107  109 am   BACKBONE|DICT|INTERRES
   215  109  110 1    
   216  109  230 1    
   217  110  111 1    
   218  110  112 1    
   219  110  231 1    
   220  111  232 1    
   221  111  233 1    
   222  111  234 1    
   223  112  113 2    
   224  112  114 am   BACKBONE|DICT|INTERRES
   225  114  115 1    
   226  114  235 1    
   227  115  116 1    
   228  115  117 1    
   229  115  236 1    
   230  116  237 1    
   231  116  238 1    
   232  116  239 1    
   233  117  118 2    
   234  117  119 am   BACKBONE|DICT|INTERRES
   235  119  120 1    
   236  119  240 1    
   237  120  121 1    
   238  120  124 1    
   239  120  241 1    
   240  121  122 am   BACKBONE|DICT|INTERRES
   241  121  123 2    
   242  122  242 1    
   243  122  243 1    
   244  124  125 1    
   245  124  244 1    
   246  124  245 1    
   247  125  126 1    
   248  126  246 1    
   249  126  247 1    
@<TRIPOS>SUBSTRUCTURE
     1 UNK         1 GROUP             0       ****    0 ROOT    
