@<TRIPOS>MOLECULE
3R540
247   249    1
SMALL
USER_CHARGES


@<TRIPOS>ATOM
      1 CA          7.0114  -14.0500  -48.2693 C.3       0 UNK        -0.1800 
      2 C           5.8158  -14.9439  -48.5677 C.2       0 UNK         0.5000 
      3 O           5.6595  -15.9824  -47.9290 O.2       0 UNK        -0.5000 
      4 N           4.9809  -14.5352  -49.5292 N.am      1 UNK        -0.5000 
      5 CA          3.7636  -15.2320  -49.9670 C.3       1 UNK         0.1400 
      6 C6          3.9658  -15.9339  -51.3396 C.3       23 UNK        -0.0398 
      7 S7          4.7701  -17.5637  -51.1702 S.3       23 UNK        -0.2404 
      8 C8          3.3906  -18.7020  -51.5360 C.3       23 UNK        -0.0205 
      9 C9          2.4241  -18.8453  -50.3670 C.ar      23 UNK        -0.0193 
     10 C10         1.3713  -17.9413  -50.2010 C.ar      23 UNK        -0.1150 
     11 C11         0.4886  -18.0611  -49.1248 C.ar      23 UNK        -0.0193 
     12 C12         0.6335  -19.1304  -48.2359 C.ar      23 UNK        -0.1150 
     13 C13         1.6758  -20.0500  -48.3945 C.ar      23 UNK        -0.0193 
     14 C14         2.5717  -19.8958  -49.4569 C.ar      23 UNK        -0.1150 
     15 C15         1.8352  -21.2162  -47.4304 C.3       23 UNK        -0.0205 
     16 S16         2.7157  -20.7281  -45.9151 S.3       23 UNK        -0.2404 
     17 C17         3.2564  -22.2947  -45.1298 C.3       23 UNK        -0.0398 
     18 CA          2.2677  -23.4879  -44.9789 C.3       11 UNK         0.1400 
     19 N           0.9894  -23.1397  -44.3381 N.am      11 UNK        -0.5000 
     20 C           0.2592  -24.0235  -43.6328 C.2       10 UNK         0.5000 
     21 O           0.6289  -25.1759  -43.4053 O.2       10 UNK        -0.5000 
     22 CA         -1.1290  -23.5834  -43.1187 C.3       10 UNK         0.1400 
     23 CB         -1.0164  -23.0096  -41.6985 C.3       10 UNK        -0.1800 
     24 N          -1.8038  -22.6061  -43.9714 N.am      10 UNK        -0.5000 
     25 C          -2.0773  -22.7567  -45.2727 C.2       9 UNK         0.5000 
     26 O          -1.8814  -23.8055  -45.8871 O.2       9 UNK        -0.5000 
     27 CA         -2.5912  -21.5230  -46.0439 C.3       9 UNK         0.1400 
     28 CB         -4.0651  -21.7063  -46.4368 C.3       9 UNK        -0.1800 
     29 N          -2.4205  -20.2188  -45.3859 N.am      9 UNK        -0.5000 
     30 C          -1.2705  -19.7018  -44.9356 C.2       8 UNK         0.5000 
     31 O          -0.2192  -20.3390  -44.8618 O.2       8 UNK        -0.5000 
     32 CA         -1.2932  -18.2342  -44.4932 C.3       8 UNK         0.1400 
     33 CB         -1.8165  -18.0928  -43.0557 C.3       8 UNK        -0.1800 
     34 N           0.0682  -17.7182  -44.5728 N.am      8 UNK        -0.5000 
     35 C           0.4100  -16.4961  -44.9842 C.2       7 UNK         0.5000 
     36 O          -0.4052  -15.6342  -45.3153 O.2       7 UNK        -0.5000 
     37 CA          1.9135  -16.2099  -45.0717 C.3       7 UNK         0.1400 
     38 CB          2.4888  -16.7337  -46.3944 C.3       7 UNK        -0.1800 
     39 N           2.1728  -14.7745  -44.9930 N.am      7 UNK        -0.5000 
     40 C           3.1851  -14.2279  -44.3085 C.2       6 UNK         0.5000 
     41 O           3.9568  -14.8767  -43.6005 O.2       6 UNK        -0.5000 
     42 CA          3.3991  -12.7117  -44.4318 C.3       6 UNK         0.1400 
     43 CB          4.3025  -12.3978  -45.6358 C.3       6 UNK        -0.1800 
     44 N           2.1414  -11.9725  -44.5543 N.am      6 UNK        -0.5000 
     45 C           1.8544  -10.8547  -43.8731 C.2       5 UNK         0.5000 
     46 O           2.6209  -10.3288  -43.0645 O.2       5 UNK        -0.5000 
     47 CA          0.4835  -10.2010  -44.1284 C.3       5 UNK         0.1400 
     48 CB          0.5650   -9.2005  -45.2898 C.3       5 UNK        -0.1800 
     49 N          -0.5782  -11.1651  -44.4055 N.am      5 UNK        -0.5000 
     50 C          -1.1263  -11.9910  -43.5070 C.2       4 UNK         0.5000 
     51 O          -0.7872  -12.0270  -42.3236 O.2       4 UNK        -0.5000 
     52 CA         -2.2311  -12.9464  -43.9998 C.3       4 UNK         0.1400 
     53 CB         -3.6333  -12.3483  -43.7783 C.3       4 UNK        -0.1800 
     54 N          -2.0525  -13.4168  -45.3783 N.am      4 UNK        -0.5000 
     55 C          -2.1633  -12.7507  -46.5334 C.2       3 UNK         0.5000 
     56 O          -2.4631  -11.5587  -46.6243 O.2       3 UNK        -0.5000 
     57 CA         -1.8222  -13.5492  -47.8039 C.3       3 UNK         0.1400 
     58 CB         -3.0404  -13.6488  -48.7345 C.3       3 UNK        -0.1800 
     59 N          -0.6997  -12.9692  -48.5414 N.am      3 UNK        -0.5000 
     60 C           0.5329  -12.7752  -48.0567 C.2       2 UNK         0.5000 
     61 O           0.8781  -13.0514  -46.9045 O.2       2 UNK        -0.5000 
     62 CA          1.5698  -12.1939  -49.0332 C.3       2 UNK         0.1400 
     63 CB          2.1375  -10.8602  -48.5247 C.3       2 UNK        -0.1800 
     64 N           2.6606  -13.1479  -49.2224 N.am      2 UNK        -0.5000 
     65 C           2.5614  -14.2596  -49.9659 C.2       1 UNK         0.5000 
     66 O           1.5594  -14.5224  -50.6314 O.2       1 UNK        -0.5000 
     67 C           2.1026  -24.2983  -46.2846 C.2       11 UNK         0.5000 
     68 O           3.0801  -24.8841  -46.7521 O.2       11 UNK        -0.5000 
     69 N           0.8928  -24.3064  -46.8598 N.am      12 UNK        -0.5000 
     70 CA          0.5766  -24.9555  -48.1295 C.3       12 UNK         0.1400 
     71 CB         -0.3052  -24.0120  -48.9598 C.3       12 UNK        -0.1800 
     72 C          -0.1288  -26.2981  -47.9023 C.2       12 UNK         0.5000 
     73 O           0.2126  -27.2778  -48.5665 O.2       12 UNK        -0.5000 
     74 N          -1.0948  -26.3165  -46.9707 N.am      13 UNK        -0.5000 
     75 CA         -1.9144  -27.4605  -46.5659 C.3       13 UNK         0.1400 
     76 CB         -1.0729  -28.4415  -45.7199 C.3       13 UNK        -0.1800 
     77 C          -2.6156  -28.1105  -47.7771 C.2       13 UNK         0.5000 
     78 O          -3.5259  -27.5025  -48.3427 O.2       13 UNK        -0.5000 
     79 N          -2.1485  -29.2978  -48.1867 N.am      14 UNK        -0.5000 
     80 CA         -2.6286  -30.0628  -49.3399 C.3       14 UNK         0.1400 
     81 CB         -1.9088  -31.4199  -49.3669 C.3       14 UNK        -0.1800 
     82 C          -2.4766  -29.3457  -50.6981 C.2       14 UNK         0.5000 
     83 O          -3.2078  -29.6800  -51.6312 O.2       14 UNK        -0.5000 
     84 N          -1.5625  -28.3665  -50.7920 N.am      15 UNK        -0.5000 
     85 CA         -1.3990  -27.5075  -51.9701 C.3       15 UNK         0.1400 
     86 CB         -0.0118  -26.8483  -51.9406 C.3       15 UNK        -0.1800 
     87 C          -2.5264  -26.4624  -52.1334 C.2       15 UNK         0.5000 
     88 O          -2.6589  -25.8984  -53.2198 O.2       15 UNK        -0.5000 
     89 N          -3.3350  -26.2563  -51.0800 N.am      16 UNK        -0.5000 
     90 CA         -4.6036  -25.5214  -51.0639 C.3       16 UNK         0.1400 
     91 CB         -5.6690  -26.2819  -51.8809 C.3       16 UNK        -0.1800 
     92 C          -4.4893  -24.0366  -51.4665 C.2       16 UNK         0.5000 
     93 O          -5.2952  -23.5430  -52.2586 O.2       16 UNK        -0.5000 
     94 N          -3.5241  -23.3235  -50.8654 N.am      17 UNK        -0.5000 
     95 CA         -3.3084  -21.8808  -51.0599 C.3       17 UNK         0.1400 
     96 CB         -1.9955  -21.4495  -50.3923 C.3       17 UNK        -0.1800 
     97 C          -4.4758  -20.9903  -50.5844 C.2       17 UNK         0.5000 
     98 O          -4.5200  -19.8119  -50.9339 O.2       17 UNK        -0.5000 
     99 N          -5.4371  -21.5591  -49.8431 N.am      18 UNK        -0.5000 
    100 CA        -6.7150  -20.9308  -49.5001 C.3       18 UNK         0.1400 
    101 CB        -7.5262  -21.8885  -48.6170 C.3       18 UNK        -0.1800 
    102 C         -7.5349  -20.4911  -50.7332 C.2       18 UNK         0.5000 
    103 O         -8.2676  -19.5058  -50.6474 O.2       18 UNK        -0.5000 
    104 N         -7.3405  -21.1713  -51.8747 N.am      19 UNK        -0.5000 
    105 CA        -7.8812  -20.7899  -53.1827 C.3       19 UNK         0.1400 
    106 CB        -7.6526  -21.9432  -54.1711 C.3       19 UNK        -0.1800 
    107 C         -7.2860  -19.4773  -53.7398 C.2       19 UNK         0.5000 
    108 O         -7.9295  -18.8288  -54.5650 O.2       19 UNK        -0.5000 
    109 N         -6.0928  -19.0935  -53.2637 N.am      20 UNK        -0.5000 
    110 CA        -5.4195  -17.8250  -53.5526 C.3       20 UNK         0.1400 
    111 CB        -3.9206  -18.0954  -53.7765 C.3       20 UNK        -0.1800 
    112 C         -5.6513  -16.7884  -52.4303 C.2       20 UNK         0.5000 
    113 O         -4.9325  -15.7906  -52.3700 O.2       20 UNK        -0.5000 
    114 N         -6.6525  -17.0384  -51.5716 N.am      21 UNK        -0.5000 
    115 CA        -7.1099  -16.2195  -50.4453 C.3       21 UNK         0.1400 
    116 CB        -7.5057  -14.7966  -50.8950 C.3       21 UNK        -0.1800 
    117 C         -6.1634  -16.2232  -49.2274 C.2       21 UNK         0.5000 
    118 O         -6.3031  -15.3626  -48.3575 O.2       21 UNK        -0.5000 
    119 N         -5.2579  -17.2081  -49.1413 N.am      22 UNK        -0.5000 
    120 CA        -4.3631  -17.4160  -47.9863 C.3       22 UNK         0.1400 
    121 C         -5.0591  -18.0299  -46.7318 C.2       22 UNK         0.5000 
    122 N         -6.3536  -18.3200  -46.7444 N.am      22 UNK        -0.7600 
    123 O         -4.4073  -18.2559  -45.7177 O.2       22 UNK        -0.5000 
    124 C124       -3.0885  -18.2149  -48.3680 C.3       23 UNK        -0.0398 
    125 S125       -2.1494  -17.4366  -49.7261 S.3       23 UNK        -0.2404 
    126 C126       -0.5841  -17.0038  -48.9086 C.3       23 UNK        -0.0205 
    127 H127        7.0059  -13.7531  -47.2208 H         1 UNK         0.0600 
    128 H128        7.9388  -14.5873  -48.4669 H         1 UNK         0.0600 
    129 H129        7.0059  -13.1457  -48.8780 H         1 UNK         0.0600 
    130 H130        5.1852  -13.6781  -50.0250 H         1 UNK         0.3000 
    131 H131        3.4905  -15.9921  -49.2323 H         1 UNK         0.0600 
    132 H132        3.0304  -16.0775  -51.8797 H         1 UNK         0.0800 
    133 H133        4.5761  -15.3132  -51.9971 H         1 UNK         0.0800 
    134 H134        2.8578  -18.3709  -52.4286 H         1 UNK         0.0800 
    135 H135        3.8084  -19.6783  -51.7864 H         1 UNK         0.0800 
    136 H136        1.2432  -17.1296  -50.9015 H         1 UNK         0.1150 
    137 H137       -0.0493  -19.2351  -47.4082 H         1 UNK         0.1150 
    138 H138        3.3832  -20.5992  -49.5799 H         1 UNK         0.1150 
    139 H139        0.8501  -21.6000  -47.1652 H         1 UNK         0.0800 
    140 H140        2.3768  -22.0221  -47.9264 H         1 UNK         0.0800 
    141 H141        4.1626  -22.6219  -45.6425 H         1 UNK         0.0800 
    142 H142        3.5948  -22.0183  -44.1305 H         1 UNK         0.0800 
    143 H143        2.7770  -24.1797  -44.3039 H         1 UNK         0.0600 
    144 H144        0.6395  -22.1973  -44.4874 H         1 UNK         0.3000 
    145 H145       -1.7601  -24.4736  -43.0810 H         1 UNK         0.0600 
    146 H146       -1.9992  -22.7831  -41.2846 H         1 UNK         0.0600 
    147 H147       -0.5380  -23.7221  -41.0251 H         1 UNK         0.0600 
    148 H148       -0.4248  -22.0932  -41.6822 H         1 UNK         0.0600 
    149 H149       -1.9651  -21.6957  -43.5675 H         1 UNK         0.3000 
    150 H150       -2.0038  -21.4818  -46.9621 H         1 UNK         0.0600 
    151 H151       -4.2270  -22.6645  -46.9325 H         1 UNK         0.0600 
    152 H152       -4.3904  -20.9311  -47.1291 H         1 UNK         0.0600 
    153 H153       -4.7187  -21.6718  -45.5646 H         1 UNK         0.0600 
    154 H154       -3.2390  -19.6118  -45.3848 H         1 UNK         0.3000 
    155 H155       -1.9388  -17.6775  -45.1737 H         1 UNK         0.0600 
    156 H156       -1.8224  -17.0489  -42.7416 H         1 UNK         0.0600 
    157 H157       -1.2048  -18.6531  -42.3475 H         1 UNK         0.0600 
    158 H158       -2.8399  -18.4613  -42.9748 H         1 UNK         0.0600 
    159 H159        0.7820  -18.4187  -44.4118 H         1 UNK         0.3000 
    160 H160        2.3962  -16.7316  -44.2428 H         1 UNK         0.0600 
    161 H161        3.5600  -16.5486  -46.4547 H         1 UNK         0.0600 
    162 H162        2.0155  -16.2587  -47.2543 H         1 UNK         0.0600 
    163 H163        2.3464  -17.8091  -46.4859 H         1 UNK         0.0600 
    164 H164        1.5616  -14.1945  -45.5622 H         1 UNK         0.3000 
    165 H165        3.9259  -12.4023  -43.5267 H         1 UNK         0.0600 
    166 H166        3.8594  -12.7463  -46.5681 H         1 UNK         0.0600 
    167 H167        4.4860  -11.3271  -45.7262 H         1 UNK         0.0600 
    168 H168        5.2716  -12.8871  -45.5320 H         1 UNK         0.0600 
    169 H169        1.4695  -12.3269  -45.2283 H         1 UNK         0.3000 
    170 H170        0.2115   -9.6482  -43.2267 H         1 UNK         0.0600 
    171 H171        1.3595   -8.4711  -45.1266 H         1 UNK         0.0600 
    172 H172        0.7665   -9.7033  -46.2343 H         1 UNK         0.0600 
    173 H173       -0.3679   -8.6471  -45.3986 H         1 UNK         0.0600 
    174 H174       -0.9562  -11.1828  -45.3461 H         1 UNK         0.3000 
    175 H175       -2.1578  -13.8427  -43.3818 H         1 UNK         0.0600 
    176 H176       -3.7731  -11.4176  -44.3284 H         1 UNK         0.0600 
    177 H177       -4.4126  -13.0440  -44.0894 H         1 UNK         0.0600 
    178 H178       -3.7968  -12.1272  -42.7229 H         1 UNK         0.0600 
    179 H179       -1.6394  -14.3481  -45.4300 H         1 UNK         0.3000 
    180 H180       -1.5388  -14.5621  -47.5154 H         1 UNK         0.0600 
    181 H181       -3.3212  -12.6749  -49.1371 H         1 UNK         0.0600 
    182 H182       -3.9062  -14.0414  -48.2011 H         1 UNK         0.0600 
    183 H183       -2.8460  -14.3177  -49.5733 H         1 UNK         0.0600 
    184 H184       -0.8883  -12.7109  -49.4986 H         1 UNK         0.3000 
    185 H185        1.0954  -12.0069  -49.9992 H         1 UNK         0.0600 
    186 H186        1.3559  -10.1012  -48.4865 H         1 UNK         0.0600 
    187 H187        2.5617  -10.9473  -47.5246 H         1 UNK         0.0600 
    188 H188        2.9172  -10.4845  -49.1874 H         1 UNK         0.0600 
    189 H189        3.4882  -13.0115  -48.6625 H         1 UNK         0.3000 
    190 H190        0.1192  -23.8717  -46.3728 H         1 UNK         0.3000 
    191 H191        1.4888  -25.1475  -48.6984 H         1 UNK         0.0600 
    192 H192       -0.5806  -24.4546  -49.9156 H         1 UNK         0.0600 
    193 H193        0.2229  -23.0836  -49.1755 H         1 UNK         0.0600 
    194 H194       -1.2302  -23.7599  -48.4423 H         1 UNK         0.0600 
    195 H195       -1.3449  -25.4349  -46.5283 H         1 UNK         0.3000 
    196 H196       -2.7064  -27.0664  -45.9273 H         1 UNK         0.0600 
    197 H197       -1.6724  -29.2894  -45.3863 H         1 UNK         0.0600 
    198 H198       -0.6913  -27.9478  -44.8258 H         1 UNK         0.0600 
    199 H199       -0.2141  -28.8318  -46.2671 H         1 UNK         0.0600 
    200 H200       -1.3660  -29.6929  -47.6856 H         1 UNK         0.3000 
    201 H201       -3.6948  -30.2444  -49.1907 H         1 UNK         0.0600 
    202 H202       -2.0872  -31.9806  -48.4492 H         1 UNK         0.0600 
    203 H203       -0.8310  -31.2999  -49.4846 H         1 UNK         0.0600 
    204 H204       -2.2631  -32.0351  -50.1952 H         1 UNK         0.0600 
    205 H205       -0.9856  -28.1512  -49.9846 H         1 UNK         0.3000 
    206 H206       -1.4349  -28.1428  -52.8577 H         1 UNK         0.0600 
    207 H207        0.7780  -27.5995  -51.9568 H         1 UNK         0.0600 
    208 H208        0.1362  -26.2042  -52.8083 H         1 UNK         0.0600 
    209 H209        0.1316  -26.2392  -51.0518 H         1 UNK         0.0600 
    210 H210       -3.1397  -26.7705  -50.2274 H         1 UNK         0.3000 
    211 H211       -4.9355  -25.5229  -50.0246 H         1 UNK         0.0600 
    212 H212       -5.4287  -26.2970  -52.9445 H         1 UNK         0.0600 
    213 H213       -6.6508  -25.8192  -51.7735 H         1 UNK         0.0600 
    214 H214       -5.7598  -27.3147  -51.5436 H         1 UNK         0.0600 
    215 H215       -2.8998  -23.7981  -50.2310 H         1 UNK         0.3000 
    216 H216       -3.2067  -21.7078  -52.1332 H         1 UNK         0.0600 
    217 H217       -2.0135  -21.6200  -49.3171 H         1 UNK         0.0600 
    218 H218       -1.8051  -20.3870  -50.5498 H         1 UNK         0.0600 
    219 H219       -1.1470  -21.9856  -50.8156 H         1 UNK         0.0600 
    220 H220       -5.3311  -22.5304  -49.5944 H         1 UNK         0.3000 
    221 H221       -6.4932  -20.0339  -48.9213 H         1 UNK         0.0600 
    222 H222       -7.7487  -22.8224  -49.1347 H         1 UNK         0.0600 
    223 H223       -6.9880  -22.1307  -47.7003 H         1 UNK         0.0600 
    224 H224       -8.4765  -21.4396  -48.3246 H         1 UNK         0.0600 
    225 H225       -6.7086  -21.9646  -51.8697 H         1 UNK         0.3000 
    226 H226       -8.9573  -20.6417  -53.0722 H         1 UNK         0.0600 
    227 H227       -8.1118  -22.8658  -53.8153 H         1 UNK         0.0600 
    228 H228       -8.0890  -21.7169  -55.1447 H         1 UNK         0.0600 
    229 H229       -6.5899  -22.1357  -54.3239 H         1 UNK         0.0600 
    230 H230       -5.6456  -19.6548  -52.5467 H         1 UNK         0.3000 
    231 H231       -5.8209  -17.3942  -54.4718 H         1 UNK         0.0600 
    232 H232       -3.4267  -18.4294  -52.8638 H         1 UNK         0.0600 
    233 H233       -3.4068  -17.1936  -54.1113 H         1 UNK         0.0600 
    234 H234       -3.7661  -18.8574  -54.5405 H         1 UNK         0.0600 
    235 H235       -7.1657  -17.9023  -51.6945 H         1 UNK         0.3000 
    236 H236       -8.0231  -16.7039  -50.0971 H         1 UNK         0.0600 
    237 H237       -8.1698  -14.8248  -51.7588 H         1 UNK         0.0600 
    238 H238       -8.0337  -14.2689  -50.1000 H         1 UNK         0.0600 
    239 H239       -6.6351  -14.1953  -51.1575 H         1 UNK         0.0600 
    240 H240       -5.1662  -17.8695  -49.9024 H         1 UNK         0.3000 
    241 H241       -4.0231  -16.4320  -47.6595 H         1 UNK         0.0600 
    242 H242       -6.9252  -18.1008  -47.5422 H         1 UNK         0.3800 
    243 H243       -6.7756  -18.7060  -45.9149 H         1 UNK         0.3800 
    244 H244       -2.4321  -18.3205  -47.5057 H         1 UNK         0.0800 
    245 H245       -3.3459  -19.2306  -48.6600 H         1 UNK         0.0800 
    246 H246       -0.7372  -16.8324  -47.8431 H         1 UNK         0.0800 
    247 H247       -0.2427  -16.0495  -49.3114 H         1 UNK         0.0800 
@<TRIPOS>BOND
     1    1    2 1    
     2    1  127 1    
     3    1  128 1    
     4    1  129 1    
     5    2    3 2    
     6    2    4 am   BACKBONE|DICT|INTERRES
     7    4    5 1    
     8    4  130 1    
     9    5    6 1    
    10    5   65 1    
    11    5  131 1    
    12    6    7 1    
    13    6  132 1    
    14    6  133 1    
    15    7    8 1    
    16    8    9 1    
    17    8  134 1    
    18    8  135 1    
    19    9   10 ar   
    20    9   14 ar   
    21   10   11 ar   
    22   10  136 1    
    23   11   12 ar   
    24   11  126 1    
    25   12   13 ar   
    26   12  137 1    
    27   13   14 ar   
    28   13   15 1    
    29   14  138 1    
    30   15   16 1    
    31   15  139 1    
    32   15  140 1    
    33   16   17 1    
    34   17   18 1    
    35   17  141 1    
    36   17  142 1    
    37   18   19 1    
    38   18   67 1    
    39   18  143 1    
    40   19   20 am   BACKBONE|DICT|INTERRES
    41   19  144 1    
    42   20   21 2    
    43   20   22 1    
    44   22   23 1    
    45   22   24 1    
    46   22  145 1    
    47   23  146 1    
    48   23  147 1    
    49   23  148 1    
    50   24   25 am   BACKBONE|DICT|INTERRES
    51   24  149 1    
    52   25   26 2    
    53   25   27 1    
    54   27   28 1    
    55   27   29 1    
    56   27  150 1    
    57   28  151 1    
    58   28  152 1    
    59   28  153 1    
    60   29   30 am   BACKBONE|DICT|INTERRES
    61   29  154 1    
    62   30   31 2    
    63   30   32 1    
    64   32   33 1    
    65   32   34 1    
    66   32  155 1    
    67   33  156 1    
    68   33  157 1    
    69   33  158 1    
    70   34   35 am   BACKBONE|DICT|INTERRES
    71   34  159 1    
    72   35   36 2    
    73   35   37 1    
    74   37   38 1    
    75   37   39 1    
    76   37  160 1    
    77   38  161 1    
    78   38  162 1    
    79   38  163 1    
    80   39   40 am   BACKBONE|DICT|INTERRES
    81   39  164 1    
    82   40   41 2    
    83   40   42 1    
    84   42   43 1    
    85   42   44 1    
    86   42  165 1    
    87   43  166 1    
    88   43  167 1    
    89   43  168 1    
    90   44   45 am   BACKBONE|DICT|INTERRES
    91   44  169 1    
    92   45   46 2    
    93   45   47 1    
    94   47   48 1    
    95   47   49 1    
    96   47  170 1    
    97   48  171 1    
    98   48  172 1    
    99   48  173 1    
   100   49   50 am   BACKBONE|DICT|INTERRES
   101   49  174 1    
   102   50   51 2    
   103   50   52 1    
   104   52   53 1    
   105   52   54 1    
   106   52  175 1    
   107   53  176 1    
   108   53  177 1    
   109   53  178 1    
   110   54   55 am   BACKBONE|DICT|INTERRES
   111   54  179 1    
   112   55   56 2    
   113   55   57 1    
   114   57   58 1    
   115   57   59 1    
   116   57  180 1    
   117   58  181 1    
   118   58  182 1    
   119   58  183 1    
   120   59   60 am   BACKBONE|DICT|INTERRES
   121   59  184 1    
   122   60   61 2    
   123   60   62 1    
   124   62   63 1    
   125   62   64 1    
   126   62  185 1    
   127   63  186 1    
   128   63  187 1    
   129   63  188 1    
   130   64   65 am   BACKBONE|DICT|INTERRES
   131   64  189 1    
   132   65   66 2    
   133   67   68 2    
   134   67   69 am   BACKBONE|DICT|INTERRES
   135   69   70 1    
   136   69  190 1    
   137   70   71 1    
   138   70   72 1    
   139   70  191 1    
   140   71  192 1    
   141   71  193 1    
   142   71  194 1    
   143   72   73 2    
   144   72   74 am   BACKBONE|DICT|INTERRES
   145   74   75 1    
   146   74  195 1    
   147   75   76 1    
   148   75   77 1    
   149   75  196 1    
   150   76  197 1    
   151   76  198 1    
   152   76  199 1    
   153   77   78 2    
   154   77   79 am   BACKBONE|DICT|INTERRES
   155   79   80 1    
   156   79  200 1    
   157   80   81 1    
   158   80   82 1    
   159   80  201 1    
   160   81  202 1    
   161   81  203 1    
   162   81  204 1    
   163   82   83 2    
   164   82   84 am   BACKBONE|DICT|INTERRES
   165   84   85 1    
   166   84  205 1    
   167   85   86 1    
   168   85   87 1    
   169   85  206 1    
   170   86  207 1    
   171   86  208 1    
   172   86  209 1    
   173   87   88 2    
   174   87   89 am   BACKBONE|DICT|INTERRES
   175   89   90 1    
   176   89  210 1    
   177   90   91 1    
   178   90   92 1    
   179   90  211 1    
   180   91  212 1    
   181   91  213 1    
   182   91  214 1    
   183   92   93 2    
   184   92   94 am   BACKBONE|DICT|INTERRES
   185   94   95 1    
   186   94  215 1    
   187   95   96 1    
   188   95   97 1    
   189   95  216 1    
   190   96  217 1    
   191   96  218 1    
   192   96  219 1    
   193   97   98 2    
   194   97   99 am   BACKBONE|DICT|INTERRES
   195   99  100 1    
   196   99  220 1    
   197  100  101 1    
   198  100  102 1    
   199  100  221 1    
   200  101  222 1    
   201  101  223 1    
   202  101  224 1    
   203  102  103 2    
   204  102  104 am   BACKBONE|DICT|INTERRES
   205  104  105 1    
   206  104  225 1    
   207  105  106 1    
   208  105  107 1    
   209  105  226 1    
   210  106  227 1    
   211  106  228 1    
   212  106  229 1    
   213  107  108 2    
   214  107  109 am   BACKBONE|DICT|INTERRES
   215  109  110 1    
   216  109  230 1    
   217  110  111 1    
   218  110  112 1    
   219  110  231 1    
   220  111  232 1    
   221  111  233 1    
   222  111  234 1    
   223  112  113 2    
   224  112  114 am   BACKBONE|DICT|INTERRES
   225  114  115 1    
   226  114  235 1    
   227  115  116 1    
   228  115  117 1    
   229  115  236 1    
   230  116  237 1    
   231  116  238 1    
   232  116  239 1    
   233  117  118 2    
   234  117  119 am   BACKBONE|DICT|INTERRES
   235  119  120 1    
   236  119  240 1    
   237  120  121 1    
   238  120  124 1    
   239  120  241 1    
   240  121  122 am   BACKBONE|DICT|INTERRES
   241  121  123 2    
   242  122  242 1    
   243  122  243 1    
   244  124  125 1    
   245  124  244 1    
   246  124  245 1    
   247  125  126 1    
   248  126  246 1    
   249  126  247 1    
@<TRIPOS>SUBSTRUCTURE
     1 UNK         1 GROUP             0       ****    0 ROOT    
