@<TRIPOS>MOLECULE
3R540
247   249    1
SMALL
USER_CHARGES


@<TRIPOS>ATOM
      1 CA          1.3230  -14.3471  -53.9330 C.3       0 UNK        -0.1800 
      2 C           1.9801  -13.8281  -52.6614 C.2       0 UNK         0.5000 
      3 O           2.4603  -12.6950  -52.6361 O.2       0 UNK        -0.5000 
      4 N           2.0045  -14.6540  -51.6089 N.am      1 UNK        -0.5000 
      5 CA          2.5843  -14.3282  -50.2979 C.3       1 UNK         0.1400 
      6 C6          2.9549  -15.6012  -49.4951 C.3       23 UNK        -0.0398 
      7 S7          4.3479  -16.5366  -50.2129 S.3       23 UNK        -0.2404 
      8 C8          3.5405  -17.6841  -51.3742 C.3       23 UNK        -0.0205 
      9 C9          2.5484  -18.6217  -50.7021 C.ar      23 UNK        -0.0193 
     10 C10         1.1760  -18.3799  -50.8026 C.ar      23 UNK        -0.1150 
     11 C11         0.2502  -19.2770  -50.2629 C.ar      23 UNK        -0.0193 
     12 C12         0.7102  -20.4025  -49.5772 C.ar      23 UNK        -0.1150 
     13 C13         2.0806  -20.6382  -49.4412 C.ar      23 UNK        -0.0193 
     14 C14         2.9967  -19.7511  -50.0129 C.ar      23 UNK        -0.1150 
     15 C15         2.5630  -21.8616  -48.6880 C.3       23 UNK        -0.0205 
     16 S16         2.7376  -21.5150  -46.9113 S.3       23 UNK        -0.2404 
     17 C17         2.7899  -23.2274  -46.2803 C.3       23 UNK        -0.0398 
     18 CA          1.5257  -23.6687  -45.5045 C.3       11 UNK         0.1400 
     19 N           1.4354  -23.0205  -44.1975 N.am      11 UNK        -0.5000 
     20 C           0.8453  -23.5456  -43.1163 C.2       10 UNK         0.5000 
     21 O           0.2630  -24.6313  -43.1292 O.2       10 UNK        -0.5000 
     22 CA          0.8790  -22.7109  -41.8188 C.3       10 UNK         0.1400 
     23 CB          1.1655  -23.5717  -40.5721 C.3       10 UNK        -0.1800 
     24 N           1.7764  -21.5514  -41.8818 N.am      10 UNK        -0.5000 
     25 C           3.1146  -21.5248  -41.9751 C.2       9 UNK         0.5000 
     26 O           3.8269  -22.5288  -41.9765 O.2       9 UNK        -0.5000 
     27 CA          3.7675  -20.1363  -42.1341 C.3       9 UNK         0.1400 
     28 CB          4.1838  -19.9153  -43.5968 C.3       9 UNK        -0.1800 
     29 N           2.8893  -19.0374  -41.7266 N.am      9 UNK        -0.5000 
     30 C           2.5658  -18.7464  -40.4592 C.2       8 UNK         0.5000 
     31 O           3.0510  -19.3155  -39.4808 O.2       8 UNK        -0.5000 
     32 CA          1.4854  -17.6686  -40.2554 C.3       8 UNK         0.1400 
     33 CB          2.1046  -16.2639  -40.3059 C.3       8 UNK        -0.1800 
     34 N           0.3920  -17.7673  -41.2281 N.am      8 UNK        -0.5000 
     35 C          -0.4671  -18.7954  -41.3042 C.2       7 UNK         0.5000 
     36 O          -0.4415  -19.7616  -40.5430 O.2       7 UNK        -0.5000 
     37 CA         -1.5101  -18.7651  -42.4347 C.3       7 UNK         0.1400 
     38 CB         -2.7040  -17.8801  -42.0485 C.3       7 UNK        -0.1800 
     39 N          -0.9465  -18.3080  -43.7028 N.am      7 UNK        -0.5000 
     40 C          -0.0790  -19.0050  -44.4503 C.2       6 UNK         0.5000 
     41 O           0.2838  -20.1527  -44.1870 O.2       6 UNK        -0.5000 
     42 CA          0.4969  -18.2883  -45.6869 C.3       6 UNK         0.1400 
     43 CB         -0.4555  -18.4075  -46.8829 C.3       6 UNK        -0.1800 
     44 N           0.7794  -16.8740  -45.4407 N.am      6 UNK        -0.5000 
     45 C           1.6808  -16.4257  -44.5559 C.2       5 UNK         0.5000 
     46 O           2.3886  -17.1574  -43.8648 O.2       5 UNK        -0.5000 
     47 CA          1.7702  -14.9024  -44.3798 C.3       5 UNK         0.1400 
     48 CB          2.6004  -14.2758  -45.5065 C.3       5 UNK        -0.1800 
     49 N           0.4467  -14.2817  -44.3387 N.am      5 UNK        -0.5000 
     50 C          -0.4163  -14.4232  -43.3231 C.2       4 UNK         0.5000 
     51 O          -0.1791  -15.0802  -42.3104 O.2       4 UNK        -0.5000 
     52 CA         -1.7920  -13.7538  -43.4858 C.3       4 UNK         0.1400 
     53 CB         -1.7147  -12.2595  -43.1388 C.3       4 UNK        -0.1800 
     54 N          -2.3422  -13.9132  -44.8317 N.am      4 UNK        -0.5000 
     55 C          -2.6781  -15.0899  -45.3784 C.2       3 UNK         0.5000 
     56 O          -2.5625  -16.1708  -44.8037 O.2       3 UNK        -0.5000 
     57 CA         -3.1972  -15.0559  -46.8247 C.3       3 UNK         0.1400 
     58 CB         -4.7130  -14.8116  -46.8450 C.3       3 UNK        -0.1800 
     59 N          -2.5396  -14.0515  -47.6636 N.am      3 UNK        -0.5000 
     60 C          -1.2349  -14.0417  -47.9648 C.2       2 UNK         0.5000 
     61 O          -0.4114  -14.8189  -47.4727 O.2       2 UNK        -0.5000 
     62 CA         -0.8094  -12.9919  -49.0074 C.3       2 UNK         0.1400 
     63 CB         -0.6060  -11.6015  -48.3726 C.3       2 UNK        -0.1800 
     64 N           0.3430  -13.4582  -49.7856 N.am      2 UNK        -0.5000 
     65 C           1.6424  -13.4476  -49.4500 C.2       1 UNK         0.5000 
     66 O           2.1176  -12.8070  -48.5128 O.2       1 UNK        -0.5000 
     67 C           0.2211  -23.5274  -46.3191 C.2       11 UNK         0.5000 
     68 O           0.0460  -24.2545  -47.2964 O.2       11 UNK        -0.5000 
     69 N          -0.6966  -22.6474  -45.8846 N.am      12 UNK        -0.5000 
     70 CA         -2.0417  -22.4694  -46.4445 C.3       12 UNK         0.1400 
     71 CB         -2.7732  -21.3655  -45.6644 C.3       12 UNK        -0.1800 
     72 C          -2.8958  -23.7554  -46.4577 C.2       12 UNK         0.5000 
     73 O          -3.7818  -23.8808  -47.3007 O.2       12 UNK        -0.5000 
     74 N          -2.6079  -24.6870  -45.5373 N.am      13 UNK        -0.5000 
     75 CA         -3.2284  -26.0097  -45.4701 C.3       13 UNK         0.1400 
     76 CB         -3.0082  -26.5847  -44.0624 C.3       13 UNK        -0.1800 
     77 C          -2.6951  -26.9869  -46.5385 C.2       13 UNK         0.5000 
     78 O          -3.4094  -27.9214  -46.9042 O.2       13 UNK        -0.5000 
     79 N          -1.4564  -26.7738  -47.0045 N.am      14 UNK        -0.5000 
     80 CA         -0.8066  -27.5784  -48.0405 C.3       14 UNK         0.1400 
     81 CB          0.7023  -27.6489  -47.7548 C.3       14 UNK        -0.1800 
     82 C          -1.0672  -27.0056  -49.4442 C.2       14 UNK         0.5000 
     83 O          -1.2296  -27.7734  -50.3940 O.2       14 UNK        -0.5000 
     84 N          -1.1053  -25.6707  -49.5481 N.am      15 UNK        -0.5000 
     85 CA         -1.4486  -24.9216  -50.7556 C.3       15 UNK         0.1400 
     86 CB         -1.0988  -23.4434  -50.5229 C.3       15 UNK        -0.1800 
     87 C          -2.9338  -25.0699  -51.1435 C.2       15 UNK         0.5000 
     88 O          -3.7538  -25.5016  -50.3297 O.2       15 UNK        -0.5000 
     89 N          -3.2577  -24.6834  -52.3855 N.am      16 UNK        -0.5000 
     90 CA         -4.6245  -24.6762  -52.9153 C.3       16 UNK         0.1400 
     91 CB         -4.5857  -24.4090  -54.4282 C.3       16 UNK        -0.1800 
     92 C          -5.5320  -23.6521  -52.2073 C.2       16 UNK         0.5000 
     93 O          -6.6927  -23.9607  -51.9356 O.2       16 UNK        -0.5000 
     94 N          -4.9682  -22.4683  -51.9137 N.am      17 UNK        -0.5000 
     95 CA         -5.5696  -21.3562  -51.1679 C.3       17 UNK         0.1400 
     96 CB         -5.6439  -21.7026  -49.6672 C.3       17 UNK        -0.1800 
     97 C          -6.9169  -20.8694  -51.7461 C.2       17 UNK         0.5000 
     98 O          -7.8375  -20.5472  -50.9928 O.2       17 UNK        -0.5000 
     99 N          -6.9961  -20.8020  -53.0796 N.am      18 UNK        -0.5000 
    100 CA        -8.1328  -20.2832  -53.8304 C.3       18 UNK         0.1400 
    101 CB        -9.0265  -21.4586  -54.2675 C.3       18 UNK        -0.1800 
    102 C         -7.5845  -19.4872  -55.0317 C.2       18 UNK         0.5000 
    103 O         -7.2443  -20.1065  -56.0395 O.2       18 UNK        -0.5000 
    104 N         -7.4552  -18.1517  -54.9700 N.am      19 UNK        -0.5000 
    105 CA        -7.6609  -17.2558  -53.8257 C.3       19 UNK         0.1400 
    106 CB        -7.5766  -15.8057  -54.3272 C.3       19 UNK        -0.1800 
    107 C         -6.6217  -17.4823  -52.7126 C.2       19 UNK         0.5000 
    108 O         -5.5342  -17.9921  -52.9861 O.2       19 UNK        -0.5000 
    109 N         -6.9669  -17.0907  -51.4792 N.am      20 UNK        -0.5000 
    110 CA        -6.1913  -17.3457  -50.2571 C.3       20 UNK         0.1400 
    111 CB        -6.9914  -16.8443  -49.0461 C.3       20 UNK        -0.1800 
    112 C         -4.7641  -16.7614  -50.2441 C.2       20 UNK         0.5000 
    113 O         -3.9169  -17.2637  -49.5078 O.2       20 UNK        -0.5000 
    114 N         -4.5194  -15.7276  -51.0606 N.am      21 UNK        -0.5000 
    115 CA        -3.1982  -15.1403  -51.2858 C.3       21 UNK         0.1400 
    116 CB        -3.3754  -13.7333  -51.8765 C.3       21 UNK        -0.1800 
    117 C         -2.2857  -15.9908  -52.1917 C.2       21 UNK         0.5000 
    118 O         -1.0728  -15.7756  -52.1778 O.2       21 UNK        -0.5000 
    119 N         -2.8780  -16.9254  -52.9491 N.am      22 UNK        -0.5000 
    120 CA        -2.2391  -17.8433  -53.9091 C.3       22 UNK         0.1400 
    121 C         -1.6272  -17.1536  -55.1685 C.2       22 UNK         0.5000 
    122 N         -1.9420  -15.8967  -55.4575 N.am      22 UNK        -0.7600 
    123 O         -0.8786  -17.7739  -55.9188 O.2       22 UNK        -0.5000 
    124 C124       -1.2520  -18.8469  -53.2516 C.3       23 UNK        -0.0398 
    125 S125       -1.9682  -19.8126  -51.8713 S.3       23 UNK        -0.2404 
    126 C126       -1.2433  -19.0194  -50.3966 C.3       23 UNK        -0.0205 
    127 H127        0.3823  -13.8254  -54.1089 H         1 UNK         0.0600 
    128 H128        1.1114  -15.4151  -53.8726 H         1 UNK         0.0600 
    129 H129        1.9743  -14.1805  -54.7907 H         1 UNK         0.0600 
    130 H130        1.5590  -15.5560  -51.6874 H         1 UNK         0.3000 
    131 H131        3.4983  -13.7515  -50.4566 H         1 UNK         0.0600 
    132 H132        3.2760  -15.3289  -48.4880 H         1 UNK         0.0800 
    133 H133        2.0872  -16.2456  -49.3534 H         1 UNK         0.0800 
    134 H134        4.3145  -18.2786  -51.8617 H         1 UNK         0.0800 
    135 H135        3.0588  -17.1212  -52.1737 H         1 UNK         0.0800 
    136 H136        0.8268  -17.4954  -51.3132 H         1 UNK         0.1150 
    137 H137        0.0013  -21.0907  -49.1395 H         1 UNK         0.1150 
    138 H138        4.0574  -19.9389  -49.9228 H         1 UNK         0.1150 
    139 H139        1.8574  -22.6795  -48.8400 H         1 UNK         0.0800 
    140 H140        3.5197  -22.2023  -49.0868 H         1 UNK         0.0800 
    141 H141        3.6648  -23.3198  -45.6352 H         1 UNK         0.0800 
    142 H142        2.9724  -23.9180  -47.1053 H         1 UNK         0.0800 
    143 H143        1.6419  -24.7400  -45.3251 H         1 UNK         0.0600 
    144 H144        1.8171  -22.0872  -44.1290 H         1 UNK         0.3000 
    145 H145       -0.1252  -22.2997  -41.7084 H         1 UNK         0.0600 
    146 H146        1.1763  -22.9625  -39.6681 H         1 UNK         0.0600 
    147 H147        0.3972  -24.3341  -40.4387 H         1 UNK         0.0600 
    148 H148        2.1239  -24.0861  -40.6436 H         1 UNK         0.0600 
    149 H149        1.3019  -20.6589  -41.9105 H         1 UNK         0.3000 
    150 H150        4.6643  -20.1168  -41.5116 H         1 UNK         0.0600 
    151 H151        4.8472  -20.7085  -43.9438 H         1 UNK         0.0600 
    152 H152        4.7152  -18.9710  -43.7168 H         1 UNK         0.0600 
    153 H153        3.3185  -19.8963  -44.2607 H         1 UNK         0.0600 
    154 H154        2.5037  -18.4648  -42.4738 H         1 UNK         0.3000 
    155 H155        1.0595  -17.8131  -39.2603 H         1 UNK         0.0600 
    156 H156        2.9192  -16.1691  -39.5868 H         1 UNK         0.0600 
    157 H157        1.3669  -15.4995  -40.0619 H         1 UNK         0.0600 
    158 H158        2.5090  -16.0371  -41.2925 H         1 UNK         0.0600 
    159 H159        0.2732  -16.9776  -41.8550 H         1 UNK         0.3000 
    160 H160       -1.8775  -19.7838  -42.5765 H         1 UNK         0.0600 
    161 H161       -2.4111  -16.8360  -41.9329 H         1 UNK         0.0600 
    162 H162       -3.1444  -18.2057  -41.1053 H         1 UNK         0.0600 
    163 H163       -3.4871  -17.9253  -42.8056 H         1 UNK         0.0600 
    164 H164       -1.2606  -17.4010  -44.0353 H         1 UNK         0.3000 
    165 H165        1.4379  -18.7764  -45.9487 H         1 UNK         0.0600 
    166 H166       -0.0558  -17.8885  -47.7541 H         1 UNK         0.0600 
    167 H167       -0.5965  -19.4520  -47.1606 H         1 UNK         0.0600 
    168 H168       -1.4371  -17.9854  -46.6660 H         1 UNK         0.0600 
    169 H169        0.2512  -16.1991  -45.9831 H         1 UNK         0.3000 
    170 H170        2.2744  -14.6993  -43.4327 H         1 UNK         0.0600 
    171 H171        3.6097  -14.6888  -45.5252 H         1 UNK         0.0600 
    172 H172        2.1502  -14.4665  -46.4797 H         1 UNK         0.0600 
    173 H173        2.6901  -13.1965  -45.3834 H         1 UNK         0.0600 
    174 H174        0.1539  -13.7779  -45.1632 H         1 UNK         0.3000 
    175 H175       -2.4781  -14.2323  -42.7836 H         1 UNK         0.0600 
    176 H176       -1.3193  -12.1130  -42.1328 H         1 UNK         0.0600 
    177 H177       -1.0670  -11.7170  -43.8286 H         1 UNK         0.0600 
    178 H178       -2.7011  -11.7963  -43.1694 H         1 UNK         0.0600 
    179 H179       -2.4640  -13.0751  -45.3805 H         1 UNK         0.3000 
    180 H180       -3.0007  -16.0349  -47.2663 H         1 UNK         0.0600 
    181 H181       -4.9735  -13.8510  -46.3988 H         1 UNK         0.0600 
    182 H182       -5.2399  -15.5872  -46.2877 H         1 UNK         0.0600 
    183 H183       -5.1004  -14.8220  -47.8632 H         1 UNK         0.0600 
    184 H184       -3.1457  -13.3638  -48.0866 H         1 UNK         0.3000 
    185 H185       -1.6195  -12.8973  -49.7300 H         1 UNK         0.0600 
    186 H186       -1.5535  -11.1984  -48.0138 H         1 UNK         0.0600 
    187 H187        0.0690  -11.6347  -47.5169 H         1 UNK         0.0600 
    188 H188       -0.2040  -10.8905  -49.0944 H         1 UNK         0.0600 
    189 H189        0.1041  -14.0213  -50.5908 H         1 UNK         0.3000 
    190 H190       -0.4469  -22.0517  -45.1043 H         1 UNK         0.3000 
    191 H191       -1.9280  -22.1411  -47.4790 H         1 UNK         0.0600 
    192 H192       -2.8361  -21.5983  -44.6007 H         1 UNK         0.0600 
    193 H193       -3.7914  -21.2331  -46.0331 H         1 UNK         0.0600 
    194 H194       -2.2730  -20.4051  -45.7674 H         1 UNK         0.0600 
    195 H195       -1.8736  -24.4967  -44.8700 H         1 UNK         0.3000 
    196 H196       -4.3033  -25.8998  -45.6292 H         1 UNK         0.0600 
    197 H197       -3.4737  -27.5662  -43.9630 H         1 UNK         0.0600 
    198 H198       -3.4457  -25.9399  -43.3000 H         1 UNK         0.0600 
    199 H199       -1.9471  -26.6992  -43.8360 H         1 UNK         0.0600 
    200 H200       -0.9583  -25.9449  -46.7064 H         1 UNK         0.3000 
    201 H201       -1.1991  -28.5972  -48.0150 H         1 UNK         0.0600 
    202 H202        0.8973  -28.0828  -46.7740 H         1 UNK         0.0600 
    203 H203        1.1692  -26.6640  -47.7842 H         1 UNK         0.0600 
    204 H204        1.2084  -28.2726  -48.4926 H         1 UNK         0.0600 
    205 H205       -0.9126  -25.1204  -48.7177 H         1 UNK         0.3000 
    206 H206       -0.8386  -25.3030  -51.5769 H         1 UNK         0.0600 
    207 H207       -0.0510  -23.3277  -50.2472 H         1 UNK         0.0600 
    208 H208       -1.2610  -22.8496  -51.4229 H         1 UNK         0.0600 
    209 H209       -1.7064  -23.0082  -49.7290 H         1 UNK         0.0600 
    210 H210       -2.5316  -24.3492  -53.0024 H         1 UNK         0.3000 
    211 H211       -5.0542  -25.6676  -52.7562 H         1 UNK         0.0600 
    212 H212       -5.5918  -24.4092  -54.8500 H         1 UNK         0.0600 
    213 H213       -4.0162  -25.1784  -54.9498 H         1 UNK         0.0600 
    214 H214       -4.1343  -23.4430  -54.6579 H         1 UNK         0.0600 
    215 H215       -4.0085  -22.3285  -52.1955 H         1 UNK         0.3000 
    216 H216       -4.8851  -20.5132  -51.2721 H         1 UNK         0.0600 
    217 H217       -5.9821  -20.8480  -49.0803 H         1 UNK         0.0600 
    218 H218       -4.6654  -21.9909  -49.2823 H         1 UNK         0.0600 
    219 H219       -6.3324  -22.5267  -49.4778 H         1 UNK         0.0600 
    220 H220       -6.1854  -21.0496  -53.6300 H         1 UNK         0.3000 
    221 H221       -8.7417  -19.6299  -53.2060 H         1 UNK         0.0600 
    222 H222       -8.4741  -22.1933  -54.8547 H         1 UNK         0.0600 
    223 H223       -9.4450  -21.9742  -53.4029 H         1 UNK         0.0600 
    224 H224       -9.8620  -21.1090  -54.8750 H         1 UNK         0.0600 
    225 H225       -7.0670  -17.6990  -55.7833 H         1 UNK         0.3000 
    226 H226       -8.6611  -17.4175  -53.4209 H         1 UNK         0.0600 
    227 H227       -8.3204  -15.6119  -55.1005 H         1 UNK         0.0600 
    228 H228       -7.7614  -15.0964  -53.5194 H         1 UNK         0.0600 
    229 H229       -6.5939  -15.5794  -54.7438 H         1 UNK         0.0600 
    230 H230       -7.8696  -16.6583  -51.3425 H         1 UNK         0.3000 
    231 H231       -6.0837  -18.4269  -50.1602 H         1 UNK         0.0600 
    232 H232       -7.1625  -15.7682  -49.0940 H         1 UNK         0.0600 
    233 H233       -7.9616  -17.3376  -48.9832 H         1 UNK         0.0600 
    234 H234       -6.4642  -17.0544  -48.1146 H         1 UNK         0.0600 
    235 H235       -5.2793  -15.3708  -51.6205 H         1 UNK         0.3000 
    236 H236       -2.6939  -15.0525  -50.3238 H         1 UNK         0.0600 
    237 H237       -2.4110  -13.2599  -52.0660 H         1 UNK         0.0600 
    238 H238       -3.9165  -13.7602  -52.8231 H         1 UNK         0.0600 
    239 H239       -3.9264  -13.0860  -51.1940 H         1 UNK         0.0600 
    240 H240       -3.8789  -17.0677  -52.8533 H         1 UNK         0.3000 
    241 H241       -3.0627  -18.4366  -54.3075 H         1 UNK         0.0600 
    242 H242       -1.5517  -15.4651  -56.2801 H         1 UNK         0.3800 
    243 H243       -2.5652  -15.3759  -54.8634 H         1 UNK         0.3800 
    244 H244       -0.9172  -19.5753  -53.9915 H         1 UNK         0.0800 
    245 H245       -0.3534  -18.3255  -52.9383 H         1 UNK         0.0800 
    246 H246       -1.4364  -17.9485  -50.4098 H         1 UNK         0.0800 
    247 H247       -1.7615  -19.3986  -49.5147 H         1 UNK         0.0800 
@<TRIPOS>BOND
     1    1    2 1    
     2    1  127 1    
     3    1  128 1    
     4    1  129 1    
     5    2    3 2    
     6    2    4 am   BACKBONE|DICT|INTERRES
     7    4    5 1    
     8    4  130 1    
     9    5    6 1    
    10    5   65 1    
    11    5  131 1    
    12    6    7 1    
    13    6  132 1    
    14    6  133 1    
    15    7    8 1    
    16    8    9 1    
    17    8  134 1    
    18    8  135 1    
    19    9   10 ar   
    20    9   14 ar   
    21   10   11 ar   
    22   10  136 1    
    23   11   12 ar   
    24   11  126 1    
    25   12   13 ar   
    26   12  137 1    
    27   13   14 ar   
    28   13   15 1    
    29   14  138 1    
    30   15   16 1    
    31   15  139 1    
    32   15  140 1    
    33   16   17 1    
    34   17   18 1    
    35   17  141 1    
    36   17  142 1    
    37   18   19 1    
    38   18   67 1    
    39   18  143 1    
    40   19   20 am   BACKBONE|DICT|INTERRES
    41   19  144 1    
    42   20   21 2    
    43   20   22 1    
    44   22   23 1    
    45   22   24 1    
    46   22  145 1    
    47   23  146 1    
    48   23  147 1    
    49   23  148 1    
    50   24   25 am   BACKBONE|DICT|INTERRES
    51   24  149 1    
    52   25   26 2    
    53   25   27 1    
    54   27   28 1    
    55   27   29 1    
    56   27  150 1    
    57   28  151 1    
    58   28  152 1    
    59   28  153 1    
    60   29   30 am   BACKBONE|DICT|INTERRES
    61   29  154 1    
    62   30   31 2    
    63   30   32 1    
    64   32   33 1    
    65   32   34 1    
    66   32  155 1    
    67   33  156 1    
    68   33  157 1    
    69   33  158 1    
    70   34   35 am   BACKBONE|DICT|INTERRES
    71   34  159 1    
    72   35   36 2    
    73   35   37 1    
    74   37   38 1    
    75   37   39 1    
    76   37  160 1    
    77   38  161 1    
    78   38  162 1    
    79   38  163 1    
    80   39   40 am   BACKBONE|DICT|INTERRES
    81   39  164 1    
    82   40   41 2    
    83   40   42 1    
    84   42   43 1    
    85   42   44 1    
    86   42  165 1    
    87   43  166 1    
    88   43  167 1    
    89   43  168 1    
    90   44   45 am   BACKBONE|DICT|INTERRES
    91   44  169 1    
    92   45   46 2    
    93   45   47 1    
    94   47   48 1    
    95   47   49 1    
    96   47  170 1    
    97   48  171 1    
    98   48  172 1    
    99   48  173 1    
   100   49   50 am   BACKBONE|DICT|INTERRES
   101   49  174 1    
   102   50   51 2    
   103   50   52 1    
   104   52   53 1    
   105   52   54 1    
   106   52  175 1    
   107   53  176 1    
   108   53  177 1    
   109   53  178 1    
   110   54   55 am   BACKBONE|DICT|INTERRES
   111   54  179 1    
   112   55   56 2    
   113   55   57 1    
   114   57   58 1    
   115   57   59 1    
   116   57  180 1    
   117   58  181 1    
   118   58  182 1    
   119   58  183 1    
   120   59   60 am   BACKBONE|DICT|INTERRES
   121   59  184 1    
   122   60   61 2    
   123   60   62 1    
   124   62   63 1    
   125   62   64 1    
   126   62  185 1    
   127   63  186 1    
   128   63  187 1    
   129   63  188 1    
   130   64   65 am   BACKBONE|DICT|INTERRES
   131   64  189 1    
   132   65   66 2    
   133   67   68 2    
   134   67   69 am   BACKBONE|DICT|INTERRES
   135   69   70 1    
   136   69  190 1    
   137   70   71 1    
   138   70   72 1    
   139   70  191 1    
   140   71  192 1    
   141   71  193 1    
   142   71  194 1    
   143   72   73 2    
   144   72   74 am   BACKBONE|DICT|INTERRES
   145   74   75 1    
   146   74  195 1    
   147   75   76 1    
   148   75   77 1    
   149   75  196 1    
   150   76  197 1    
   151   76  198 1    
   152   76  199 1    
   153   77   78 2    
   154   77   79 am   BACKBONE|DICT|INTERRES
   155   79   80 1    
   156   79  200 1    
   157   80   81 1    
   158   80   82 1    
   159   80  201 1    
   160   81  202 1    
   161   81  203 1    
   162   81  204 1    
   163   82   83 2    
   164   82   84 am   BACKBONE|DICT|INTERRES
   165   84   85 1    
   166   84  205 1    
   167   85   86 1    
   168   85   87 1    
   169   85  206 1    
   170   86  207 1    
   171   86  208 1    
   172   86  209 1    
   173   87   88 2    
   174   87   89 am   BACKBONE|DICT|INTERRES
   175   89   90 1    
   176   89  210 1    
   177   90   91 1    
   178   90   92 1    
   179   90  211 1    
   180   91  212 1    
   181   91  213 1    
   182   91  214 1    
   183   92   93 2    
   184   92   94 am   BACKBONE|DICT|INTERRES
   185   94   95 1    
   186   94  215 1    
   187   95   96 1    
   188   95   97 1    
   189   95  216 1    
   190   96  217 1    
   191   96  218 1    
   192   96  219 1    
   193   97   98 2    
   194   97   99 am   BACKBONE|DICT|INTERRES
   195   99  100 1    
   196   99  220 1    
   197  100  101 1    
   198  100  102 1    
   199  100  221 1    
   200  101  222 1    
   201  101  223 1    
   202  101  224 1    
   203  102  103 2    
   204  102  104 am   BACKBONE|DICT|INTERRES
   205  104  105 1    
   206  104  225 1    
   207  105  106 1    
   208  105  107 1    
   209  105  226 1    
   210  106  227 1    
   211  106  228 1    
   212  106  229 1    
   213  107  108 2    
   214  107  109 am   BACKBONE|DICT|INTERRES
   215  109  110 1    
   216  109  230 1    
   217  110  111 1    
   218  110  112 1    
   219  110  231 1    
   220  111  232 1    
   221  111  233 1    
   222  111  234 1    
   223  112  113 2    
   224  112  114 am   BACKBONE|DICT|INTERRES
   225  114  115 1    
   226  114  235 1    
   227  115  116 1    
   228  115  117 1    
   229  115  236 1    
   230  116  237 1    
   231  116  238 1    
   232  116  239 1    
   233  117  118 2    
   234  117  119 am   BACKBONE|DICT|INTERRES
   235  119  120 1    
   236  119  240 1    
   237  120  121 1    
   238  120  124 1    
   239  120  241 1    
   240  121  122 am   BACKBONE|DICT|INTERRES
   241  121  123 2    
   242  122  242 1    
   243  122  243 1    
   244  124  125 1    
   245  124  244 1    
   246  124  245 1    
   247  125  126 1    
   248  126  246 1    
   249  126  247 1    
@<TRIPOS>SUBSTRUCTURE
     1 UNK         1 GROUP             0       ****    0 ROOT    
