@<TRIPOS>MOLECULE
3R540
247   249    1
SMALL
USER_CHARGES


@<TRIPOS>ATOM
      1 CA         -4.3332   -9.3580  -48.3566 C.3       0 UNK        -0.1800 
      2 C          -3.2061  -10.3338  -48.0526 C.2       0 UNK         0.5000 
      3 O          -2.4448  -10.1165  -47.1117 O.2       0 UNK        -0.5000 
      4 N          -3.1029  -11.4180  -48.8328 N.am      1 UNK        -0.5000 
      5 CA         -2.0767  -12.4647  -48.7073 C.3       1 UNK         0.1400 
      6 C6         -2.1660  -13.4601  -49.8910 C.3       23 UNK        -0.0398 
      7 S7         -0.5961  -14.3183  -50.2450 S.3       23 UNK        -0.2404 
      8 C8         -1.1049  -16.0586  -50.1024 C.3       23 UNK        -0.0205 
      9 C9         -0.0418  -16.9858  -50.6683 C.ar      23 UNK        -0.0193 
     10 C10        -0.0164  -17.2691  -52.0372 C.ar      23 UNK        -0.1150 
     11 C11         0.9604  -18.1155  -52.5690 C.ar      23 UNK        -0.0193 
     12 C12         1.8967  -18.7048  -51.7149 C.ar      23 UNK        -0.1150 
     13 C13         1.8805  -18.4338  -50.3431 C.ar      23 UNK        -0.0193 
     14 C14         0.9164  -17.5600  -49.8289 C.ar      23 UNK        -0.1150 
     15 C15         2.9277  -19.0617  -49.4329 C.3       23 UNK        -0.0205 
     16 S16         2.2564  -20.4386  -48.4435 S.3       23 UNK        -0.2404 
     17 C17         1.5379  -19.5506  -47.0222 C.3       23 UNK        -0.0398 
     18 CA         -0.0046  -19.6471  -46.9855 C.3       11 UNK         0.1400 
     19 N          -0.4509  -21.0064  -46.6660 N.am      11 UNK        -0.5000 
     20 C          -1.7145  -21.4440  -46.7430 C.2       10 UNK         0.5000 
     21 O          -2.6633  -20.7439  -47.0922 O.2       10 UNK        -0.5000 
     22 CA         -1.9561  -22.8887  -46.2737 C.3       10 UNK         0.1400 
     23 CB         -1.4407  -23.8959  -47.3150 C.3       10 UNK        -0.1800 
     24 N          -1.3146  -23.1663  -44.9866 N.am      10 UNK        -0.5000 
     25 C          -1.5214  -22.5043  -43.8414 C.2       9 UNK         0.5000 
     26 O          -2.3274  -21.5817  -43.7288 O.2       9 UNK        -0.5000 
     27 CA         -0.6459  -22.8871  -42.6321 C.3       9 UNK         0.1400 
     28 CB         -1.2123  -24.1164  -41.8977 C.3       9 UNK        -0.1800 
     29 N           0.7823  -23.0481  -42.9444 N.am      9 UNK        -0.5000 
     30 C           1.3868  -23.9900  -43.6870 C.2       8 UNK         0.5000 
     31 O           0.7862  -24.8988  -44.2613 O.2       8 UNK        -0.5000 
     32 CA          2.9154  -23.8831  -43.8602 C.3       8 UNK         0.1400 
     33 CB          3.2495  -23.3621  -45.2679 C.3       8 UNK        -0.1800 
     34 N           3.5669  -23.0156  -42.8772 N.am      8 UNK        -0.5000 
     35 C           3.7003  -23.2777  -41.5688 C.2       7 UNK         0.5000 
     36 O           3.3132  -24.3190  -41.0383 O.2       7 UNK        -0.5000 
     37 CA          4.3688  -22.1871  -40.7063 C.3       7 UNK         0.1400 
     38 CB          5.8138  -22.5828  -40.3649 C.3       7 UNK        -0.1800 
     39 N           4.3768  -20.8642  -41.3416 N.am      7 UNK        -0.5000 
     40 C           3.2968  -20.0909  -41.5083 C.2       6 UNK         0.5000 
     41 O           2.1613  -20.4026  -41.1413 O.2       6 UNK        -0.5000 
     42 CA          3.5117  -18.7762  -42.2647 C.3       6 UNK         0.1400 
     43 CB          3.1396  -18.9447  -43.7485 C.3       6 UNK        -0.1800 
     44 N           2.6873  -17.7378  -41.6579 N.am      6 UNK        -0.5000 
     45 C           2.9092  -16.4259  -41.7789 C.2       5 UNK         0.5000 
     46 O           3.8513  -15.9482  -42.4175 O.2       5 UNK        -0.5000 
     47 CA          1.9385  -15.4900  -41.0370 C.3       5 UNK         0.1400 
     48 CB          2.4228  -15.2381  -39.6006 C.3       5 UNK        -0.1800 
     49 N           1.8377  -14.2087  -41.7351 N.am      5 UNK        -0.5000 
     50 C           1.0641  -13.9999  -42.8056 C.2       4 UNK         0.5000 
     51 O           0.2573  -14.8247  -43.2379 O.2       4 UNK        -0.5000 
     52 CA          1.2451  -12.6588  -43.5355 C.3       4 UNK         0.1400 
     53 CB          2.0345  -12.8555  -44.8390 C.3       4 UNK        -0.1800 
     54 N          -0.0556  -12.0776  -43.8505 N.am      4 UNK        -0.5000 
     55 C          -0.8017  -11.3796  -42.9836 C.2       3 UNK         0.5000 
     56 O          -0.4194  -11.0646  -41.8556 O.2       3 UNK        -0.5000 
     57 CA         -2.2124  -10.9622  -43.4451 C.3       3 UNK         0.1400 
     58 CB         -2.2085   -9.5068  -43.9357 C.3       3 UNK        -0.1800 
     59 N          -2.7479  -11.8352  -44.4939 N.am      3 UNK        -0.5000 
     60 C          -3.1612  -13.0937  -44.2727 C.2       2 UNK         0.5000 
     61 O          -3.2108  -13.5871  -43.1458 O.2       2 UNK        -0.5000 
     62 CA         -3.6068  -13.9435  -45.4840 C.3       2 UNK         0.1400 
     63 CB         -5.1084  -14.2628  -45.3981 C.3       2 UNK        -0.1800 
     64 N          -3.3360  -13.3314  -46.7859 N.am      2 UNK        -0.5000 
     65 C          -2.1234  -13.1867  -47.3396 C.2       1 UNK         0.5000 
     66 O          -1.0786  -13.5383  -46.7924 O.2       1 UNK        -0.5000 
     67 C          -0.5854  -18.5896  -46.0246 C.2       11 UNK         0.5000 
     68 O          -0.8732  -17.4783  -46.4657 O.2       11 UNK        -0.5000 
     69 N          -0.7620  -18.9535  -44.7458 N.am      12 UNK        -0.5000 
     70 CA         -1.3422  -18.0833  -43.7210 C.3       12 UNK         0.1400 
     71 CB         -0.9991  -18.6290  -42.3265 C.3       12 UNK        -0.1800 
     72 C          -2.8628  -17.9198  -43.8927 C.2       12 UNK         0.5000 
     73 O          -3.3898  -16.8350  -43.6561 O.2       12 UNK        -0.5000 
     74 N          -3.5400  -18.9919  -44.3224 N.am      13 UNK        -0.5000 
     75 CA         -4.9563  -18.9801  -44.6866 C.3       13 UNK         0.1400 
     76 CB         -5.4733  -20.4273  -44.6992 C.3       13 UNK        -0.1800 
     77 C          -5.2150  -18.3123  -46.0517 C.2       13 UNK         0.5000 
     78 O          -6.3194  -17.8175  -46.2780 O.2       13 UNK        -0.5000 
     79 N          -4.2045  -18.3489  -46.9347 N.am      14 UNK        -0.5000 
     80 CA         -4.2474  -18.0301  -48.3652 C.3       14 UNK         0.1400 
     81 CB         -4.5133  -16.5298  -48.5985 C.3       14 UNK        -0.1800 
     82 C          -5.2326  -18.9592  -49.1050 C.2       14 UNK         0.5000 
     83 O          -6.0642  -18.4991  -49.8895 O.2       14 UNK        -0.5000 
     84 N          -5.1410  -20.2559  -48.7916 N.am      15 UNK        -0.5000 
     85 CA         -6.0491  -21.3080  -49.2310 C.3       15 UNK         0.1400 
     86 CB         -7.2009  -21.4261  -48.2153 C.3       15 UNK        -0.1800 
     87 C          -5.2767  -22.6276  -49.3709 C.2       15 UNK         0.5000 
     88 O          -4.0702  -22.6650  -49.1191 O.2       15 UNK        -0.5000 
     89 N          -5.9835  -23.6924  -49.7763 N.am      16 UNK        -0.5000 
     90 CA         -5.4590  -25.0409  -50.0173 C.3       16 UNK         0.1400 
     91 CB         -5.0396  -25.7089  -48.6873 C.3       16 UNK        -0.1800 
     92 C          -4.3512  -25.0033  -51.0880 C.2       16 UNK         0.5000 
     93 O          -4.6281  -24.5787  -52.2108 O.2       16 UNK        -0.5000 
     94 N          -3.1166  -25.3776  -50.7264 N.am      17 UNK        -0.5000 
     95 CA         -1.9314  -25.3058  -51.5846 C.3       17 UNK         0.1400 
     96 CB         -0.7202  -25.8667  -50.8255 C.3       17 UNK        -0.1800 
     97 C          -1.6317  -23.8855  -52.1028 C.2       17 UNK         0.5000 
     98 O          -1.2359  -23.7384  -53.2585 O.2       17 UNK        -0.5000 
     99 N          -1.8953  -22.8660  -51.2718 N.am      18 UNK        -0.5000 
    100 CA        -1.7126  -21.4505  -51.6051 C.3       18 UNK         0.1400 
    101 CB        -1.5641  -20.6407  -50.3118 C.3       18 UNK        -0.1800 
    102 C         -2.8267  -20.8763  -52.5063 C.2       18 UNK         0.5000 
    103 O         -2.7766  -19.6948  -52.8469 O.2       18 UNK        -0.5000 
    104 N         -3.8005  -21.7105  -52.8889 N.am      19 UNK        -0.5000 
    105 CA        -4.7647  -21.4363  -53.9478 C.3       19 UNK         0.1400 
    106 CB        -6.1920  -21.6035  -53.4029 C.3       19 UNK        -0.1800 
    107 C         -4.5040  -22.3799  -55.1325 C.2       19 UNK         0.5000 
    108 O         -4.3881  -21.9125  -56.2654 O.2       19 UNK        -0.5000 
    109 N         -4.3965  -23.6866  -54.8510 N.am      20 UNK        -0.5000 
    110 CA        -4.2768  -24.7580  -55.8399 C.3       20 UNK         0.1400 
    111 CB        -4.3678  -26.1172  -55.1294 C.3       20 UNK        -0.1800 
    112 C         -3.0083  -24.6862  -56.7074 C.2       20 UNK         0.5000 
    113 O         -3.1028  -24.8822  -57.9200 O.2       20 UNK        -0.5000 
    114 N         -1.8522  -24.4095  -56.0879 N.am      21 UNK        -0.5000 
    115 CA        -0.5774  -24.2812  -56.7981 C.3       21 UNK         0.1400 
    116 CB         0.5794  -24.6302  -55.8485 C.3       21 UNK        -0.1800 
    117 C         -0.3840  -22.8719  -57.3834 C.2       21 UNK         0.5000 
    118 O          0.2679  -22.7290  -58.4189 O.2       21 UNK        -0.5000 
    119 N         -0.9342  -21.8618  -56.7007 N.am      22 UNK        -0.5000 
    120 CA        -0.7876  -20.4411  -57.0492 C.3       22 UNK         0.1400 
    121 C         -1.7382  -19.9697  -58.1843 C.2       22 UNK         0.5000 
    122 N         -2.9135  -20.5619  -58.3554 N.am      22 UNK        -0.7600 
    123 O         -1.3984  -19.0544  -58.9290 O.2       22 UNK        -0.5000 
    124 C124       -0.9265  -19.5331  -55.8038 C.3       23 UNK        -0.0398 
    125 S125        0.2778  -19.9722  -54.4983 S.3       23 UNK        -0.2404 
    126 C126        1.0251  -18.3705  -54.0672 C.3       23 UNK        -0.0205 
    127 H127       -4.9344   -9.6837  -49.2057 H         1 UNK         0.0600 
    128 H128       -3.9245   -8.3740  -48.5860 H         1 UNK         0.0600 
    129 H129       -4.9891   -9.2625  -47.4913 H         1 UNK         0.0600 
    130 H130       -3.7629  -11.5375  -49.5882 H         1 UNK         0.3000 
    131 H131       -1.1134  -11.9529  -48.7643 H         1 UNK         0.0600 
    132 H132       -2.4195  -12.9225  -50.8059 H         1 UNK         0.0800 
    133 H133       -2.9758  -14.1755  -49.7425 H         1 UNK         0.0800 
    134 H134       -2.0410  -16.2158  -50.6403 H         1 UNK         0.0800 
    135 H135       -1.3020  -16.2945  -49.0550 H         1 UNK         0.0800 
    136 H136       -0.7506  -16.8190  -52.6907 H         1 UNK         0.1150 
    137 H137        2.6467  -19.3668  -52.1247 H         1 UNK         0.1150 
    138 H138        0.9051  -17.3235  -48.7753 H         1 UNK         0.1150 
    139 H139        3.7545  -19.4482  -50.0308 H         1 UNK         0.0800 
    140 H140        3.3654  -18.3013  -48.7849 H         1 UNK         0.0800 
    141 H141        1.8708  -18.5117  -47.0398 H         1 UNK         0.0800 
    142 H142        1.9648  -19.9789  -46.1160 H         1 UNK         0.0800 
    143 H143       -0.3881  -19.3995  -47.9766 H         1 UNK         0.0600 
    144 H144        0.2636  -21.6581  -46.3800 H         1 UNK         0.3000 
    145 H145       -3.0330  -23.0263  -46.1576 H         1 UNK         0.0600 
    146 H146       -1.7274  -24.9138  -47.0511 H         1 UNK         0.0600 
    147 H147       -1.8501  -23.6894  -48.3028 H         1 UNK         0.0600 
    148 H148       -0.3539  -23.8675  -47.4027 H         1 UNK         0.0600 
    149 H149       -0.6287  -23.9168  -44.9636 H         1 UNK         0.3000 
    150 H150       -0.6946  -22.0473  -41.9370 H         1 UNK         0.0600 
    151 H151       -2.2356  -23.9325  -41.5681 H         1 UNK         0.0600 
    152 H152       -0.6224  -24.3511  -41.0116 H         1 UNK         0.0600 
    153 H153       -1.2311  -25.0024  -42.5326 H         1 UNK         0.0600 
    154 H154        1.3803  -22.3450  -42.5309 H         1 UNK         0.3000 
    155 H155        3.3276  -24.8889  -43.7560 H         1 UNK         0.0600 
    156 H156        2.8765  -22.3491  -45.4232 H         1 UNK         0.0600 
    157 H157        2.8061  -23.9958  -46.0375 H         1 UNK         0.0600 
    158 H158        4.3259  -23.3531  -45.4403 H         1 UNK         0.0600 
    159 H159        3.9401  -22.1448  -43.2228 H         1 UNK         0.3000 
    160 H160        3.8040  -22.1170  -39.7742 H         1 UNK         0.0600 
    161 H161        6.4328  -22.6591  -41.2597 H         1 UNK         0.0600 
    162 H162        5.8461  -23.5495  -39.8603 H         1 UNK         0.0600 
    163 H163        6.2752  -21.8549  -39.6972 H         1 UNK         0.0600 
    164 H164        5.2719  -20.5371  -41.6771 H         1 UNK         0.3000 
    165 H165        4.5638  -18.4938  -42.1833 H         1 UNK         0.0600 
    166 H166        3.3243  -18.0306  -44.3128 H         1 UNK         0.0600 
    167 H167        3.7269  -19.7364  -44.2151 H         1 UNK         0.0600 
    168 H168        2.0857  -19.1994  -43.8630 H         1 UNK         0.0600 
    169 H169        1.9297  -18.0829  -41.0825 H         1 UNK         0.3000 
    170 H170        0.9532  -15.9600  -40.9952 H         1 UNK         0.0600 
    171 H171        3.4111  -14.7768  -39.5827 H         1 UNK         0.0600 
    172 H172        1.7369  -14.5832  -39.0628 H         1 UNK         0.0600 
    173 H173        2.4862  -16.1715  -39.0398 H         1 UNK         0.0600 
    174 H174        2.5082  -13.5027  -41.4681 H         1 UNK         0.3000 
    175 H175        1.8038  -11.9701  -42.8978 H         1 UNK         0.0600 
    176 H176        1.5185  -13.5302  -45.5240 H         1 UNK         0.0600 
    177 H177        2.1876  -11.9075  -45.3549 H         1 UNK         0.0600 
    178 H178        3.0185  -13.2813  -44.6381 H         1 UNK         0.0600 
    179 H179       -0.4682  -12.3561  -44.7311 H         1 UNK         0.3000 
    180 H180       -2.8751  -11.0210  -42.5790 H         1 UNK         0.0600 
    181 H181       -3.1953   -9.2016  -44.2842 H         1 UNK         0.0600 
    182 H182       -1.5013   -9.3597  -44.7525 H         1 UNK         0.0600 
    183 H183       -1.9220   -8.8274  -43.1320 H         1 UNK         0.0600 
    184 H184       -2.7288  -11.4729  -45.4400 H         1 UNK         0.3000 
    185 H185       -3.0534  -14.8836  -45.4380 H         1 UNK         0.0600 
    186 H186       -5.4206  -14.9238  -46.2058 H         1 UNK         0.0600 
    187 H187       -5.3464  -14.7706  -44.4624 H         1 UNK         0.0600 
    188 H188       -5.7161  -13.3585  -45.4463 H         1 UNK         0.0600 
    189 H189       -4.1351  -12.9713  -47.2867 H         1 UNK         0.3000 
    190 H190       -0.5577  -19.9026  -44.4735 H         1 UNK         0.3000 
    191 H191       -0.8890  -17.0956  -43.8180 H         1 UNK         0.0600 
    192 H192       -1.3308  -17.9385  -41.5501 H         1 UNK         0.0600 
    193 H193        0.0751  -18.7615  -42.2075 H         1 UNK         0.0600 
    194 H194       -1.4781  -19.5891  -42.1356 H         1 UNK         0.0600 
    195 H195       -3.0528  -19.8788  -44.4073 H         1 UNK         0.3000 
    196 H196       -5.5110  -18.4230  -43.9287 H         1 UNK         0.0600 
    197 H197       -4.9496  -21.0348  -45.4387 H         1 UNK         0.0600 
    198 H198       -5.3428  -20.9011  -43.7261 H         1 UNK         0.0600 
    199 H199       -6.5367  -20.4608  -44.9390 H         1 UNK         0.0600 
    200 H200       -3.3785  -18.8595  -46.6464 H         1 UNK         0.3000 
    201 H201       -3.2548  -18.2549  -48.7587 H         1 UNK         0.0600 
    202 H202       -5.5144  -16.2387  -48.2807 H         1 UNK         0.0600 
    203 H203       -4.4237  -16.2803  -49.6560 H         1 UNK         0.0600 
    204 H204       -3.7943  -15.9184  -48.0541 H         1 UNK         0.0600 
    205 H205       -4.3721  -20.5721  -48.2051 H         1 UNK         0.3000 
    206 H206       -6.4528  -21.0584  -50.2136 H         1 UNK         0.0600 
    207 H207       -7.9489  -22.1496  -48.5403 H         1 UNK         0.0600 
    208 H208       -6.8387  -21.7428  -47.2365 H         1 UNK         0.0600 
    209 H209       -7.7132  -20.4723  -48.0867 H         1 UNK         0.0600 
    210 H210       -6.9623  -23.5667  -49.9908 H         1 UNK         0.3000 
    211 H211       -6.2752  -25.6268  -50.4421 H         1 UNK         0.0600 
    212 H212       -4.7115  -26.7365  -48.8488 H         1 UNK         0.0600 
    213 H213       -5.8803  -25.7491  -47.9947 H         1 UNK         0.0600 
    214 H214       -4.2317  -25.1743  -48.1869 H         1 UNK         0.0600 
    215 H215       -2.9708  -25.6915  -49.7785 H         1 UNK         0.3000 
    216 H216       -2.1131  -25.9414  -52.4532 H         1 UNK         0.0600 
    217 H217       -0.5015  -25.2862  -49.9285 H         1 UNK         0.0600 
    218 H218        0.1730  -25.8516  -51.4515 H         1 UNK         0.0600 
    219 H219       -0.8869  -26.9011  -50.5245 H         1 UNK         0.0600 
    220 H220       -2.3279  -23.0587  -50.3758 H         1 UNK         0.3000 
    221 H221       -0.7759  -21.3544  -52.1557 H         1 UNK         0.0600 
    222 H222       -0.7617  -21.0403  -49.6924 H         1 UNK         0.0600 
    223 H223       -2.4828  -20.6461  -49.7293 H         1 UNK         0.0600 
    224 H224       -1.3201  -19.6006  -50.5271 H         1 UNK         0.0600 
    225 H225       -3.7737  -22.6626  -52.5468 H         1 UNK         0.3000 
    226 H226       -4.6619  -20.4133  -54.3157 H         1 UNK         0.0600 
    227 H227       -6.3543  -22.5924  -52.9732 H         1 UNK         0.0600 
    228 H228       -6.4005  -20.8641  -52.6300 H         1 UNK         0.0600 
    229 H229       -6.9303  -21.4622  -54.1932 H         1 UNK         0.0600 
    230 H230       -4.5119  -23.9931  -53.8870 H         1 UNK         0.3000 
    231 H231       -5.1342  -24.6739  -56.5108 H         1 UNK         0.0600 
    232 H232       -3.5566  -26.2516  -54.4136 H         1 UNK         0.0600 
    233 H233       -4.3147  -26.9384  -55.8454 H         1 UNK         0.0600 
    234 H234       -5.3095  -26.2175  -54.5892 H         1 UNK         0.0600 
    235 H235       -1.8355  -24.2443  -55.0859 H         1 UNK         0.3000 
    236 H236       -0.5517  -24.9948  -57.6246 H         1 UNK         0.0600 
    237 H237        0.4383  -25.6112  -55.3945 H         1 UNK         0.0600 
    238 H238        1.5278  -24.6527  -56.3864 H         1 UNK         0.0600 
    239 H239        0.6800  -23.8987  -55.0462 H         1 UNK         0.0600 
    240 H240       -1.4516  -22.0712  -55.8610 H         1 UNK         0.3000 
    241 H241        0.2265  -20.2993  -57.4291 H         1 UNK         0.0600 
    242 H242       -3.5163  -20.2520  -59.1006 H         1 UNK         0.3800 
    243 H243       -3.2588  -21.2488  -57.6915 H         1 UNK         0.3800 
    244 H244       -1.9316  -19.6117  -55.3871 H         1 UNK         0.0800 
    245 H245       -0.7993  -18.4884  -56.0899 H         1 UNK         0.0800 
    246 H246        2.0655  -18.3679  -54.3955 H         1 UNK         0.0800 
    247 H247        0.5410  -17.5519  -54.6003 H         1 UNK         0.0800 
@<TRIPOS>BOND
     1    1    2 1    
     2    1  127 1    
     3    1  128 1    
     4    1  129 1    
     5    2    3 2    
     6    2    4 am   BACKBONE|DICT|INTERRES
     7    4    5 1    
     8    4  130 1    
     9    5    6 1    
    10    5   65 1    
    11    5  131 1    
    12    6    7 1    
    13    6  132 1    
    14    6  133 1    
    15    7    8 1    
    16    8    9 1    
    17    8  134 1    
    18    8  135 1    
    19    9   10 ar   
    20    9   14 ar   
    21   10   11 ar   
    22   10  136 1    
    23   11   12 ar   
    24   11  126 1    
    25   12   13 ar   
    26   12  137 1    
    27   13   14 ar   
    28   13   15 1    
    29   14  138 1    
    30   15   16 1    
    31   15  139 1    
    32   15  140 1    
    33   16   17 1    
    34   17   18 1    
    35   17  141 1    
    36   17  142 1    
    37   18   19 1    
    38   18   67 1    
    39   18  143 1    
    40   19   20 am   BACKBONE|DICT|INTERRES
    41   19  144 1    
    42   20   21 2    
    43   20   22 1    
    44   22   23 1    
    45   22   24 1    
    46   22  145 1    
    47   23  146 1    
    48   23  147 1    
    49   23  148 1    
    50   24   25 am   BACKBONE|DICT|INTERRES
    51   24  149 1    
    52   25   26 2    
    53   25   27 1    
    54   27   28 1    
    55   27   29 1    
    56   27  150 1    
    57   28  151 1    
    58   28  152 1    
    59   28  153 1    
    60   29   30 am   BACKBONE|DICT|INTERRES
    61   29  154 1    
    62   30   31 2    
    63   30   32 1    
    64   32   33 1    
    65   32   34 1    
    66   32  155 1    
    67   33  156 1    
    68   33  157 1    
    69   33  158 1    
    70   34   35 am   BACKBONE|DICT|INTERRES
    71   34  159 1    
    72   35   36 2    
    73   35   37 1    
    74   37   38 1    
    75   37   39 1    
    76   37  160 1    
    77   38  161 1    
    78   38  162 1    
    79   38  163 1    
    80   39   40 am   BACKBONE|DICT|INTERRES
    81   39  164 1    
    82   40   41 2    
    83   40   42 1    
    84   42   43 1    
    85   42   44 1    
    86   42  165 1    
    87   43  166 1    
    88   43  167 1    
    89   43  168 1    
    90   44   45 am   BACKBONE|DICT|INTERRES
    91   44  169 1    
    92   45   46 2    
    93   45   47 1    
    94   47   48 1    
    95   47   49 1    
    96   47  170 1    
    97   48  171 1    
    98   48  172 1    
    99   48  173 1    
   100   49   50 am   BACKBONE|DICT|INTERRES
   101   49  174 1    
   102   50   51 2    
   103   50   52 1    
   104   52   53 1    
   105   52   54 1    
   106   52  175 1    
   107   53  176 1    
   108   53  177 1    
   109   53  178 1    
   110   54   55 am   BACKBONE|DICT|INTERRES
   111   54  179 1    
   112   55   56 2    
   113   55   57 1    
   114   57   58 1    
   115   57   59 1    
   116   57  180 1    
   117   58  181 1    
   118   58  182 1    
   119   58  183 1    
   120   59   60 am   BACKBONE|DICT|INTERRES
   121   59  184 1    
   122   60   61 2    
   123   60   62 1    
   124   62   63 1    
   125   62   64 1    
   126   62  185 1    
   127   63  186 1    
   128   63  187 1    
   129   63  188 1    
   130   64   65 am   BACKBONE|DICT|INTERRES
   131   64  189 1    
   132   65   66 2    
   133   67   68 2    
   134   67   69 am   BACKBONE|DICT|INTERRES
   135   69   70 1    
   136   69  190 1    
   137   70   71 1    
   138   70   72 1    
   139   70  191 1    
   140   71  192 1    
   141   71  193 1    
   142   71  194 1    
   143   72   73 2    
   144   72   74 am   BACKBONE|DICT|INTERRES
   145   74   75 1    
   146   74  195 1    
   147   75   76 1    
   148   75   77 1    
   149   75  196 1    
   150   76  197 1    
   151   76  198 1    
   152   76  199 1    
   153   77   78 2    
   154   77   79 am   BACKBONE|DICT|INTERRES
   155   79   80 1    
   156   79  200 1    
   157   80   81 1    
   158   80   82 1    
   159   80  201 1    
   160   81  202 1    
   161   81  203 1    
   162   81  204 1    
   163   82   83 2    
   164   82   84 am   BACKBONE|DICT|INTERRES
   165   84   85 1    
   166   84  205 1    
   167   85   86 1    
   168   85   87 1    
   169   85  206 1    
   170   86  207 1    
   171   86  208 1    
   172   86  209 1    
   173   87   88 2    
   174   87   89 am   BACKBONE|DICT|INTERRES
   175   89   90 1    
   176   89  210 1    
   177   90   91 1    
   178   90   92 1    
   179   90  211 1    
   180   91  212 1    
   181   91  213 1    
   182   91  214 1    
   183   92   93 2    
   184   92   94 am   BACKBONE|DICT|INTERRES
   185   94   95 1    
   186   94  215 1    
   187   95   96 1    
   188   95   97 1    
   189   95  216 1    
   190   96  217 1    
   191   96  218 1    
   192   96  219 1    
   193   97   98 2    
   194   97   99 am   BACKBONE|DICT|INTERRES
   195   99  100 1    
   196   99  220 1    
   197  100  101 1    
   198  100  102 1    
   199  100  221 1    
   200  101  222 1    
   201  101  223 1    
   202  101  224 1    
   203  102  103 2    
   204  102  104 am   BACKBONE|DICT|INTERRES
   205  104  105 1    
   206  104  225 1    
   207  105  106 1    
   208  105  107 1    
   209  105  226 1    
   210  106  227 1    
   211  106  228 1    
   212  106  229 1    
   213  107  108 2    
   214  107  109 am   BACKBONE|DICT|INTERRES
   215  109  110 1    
   216  109  230 1    
   217  110  111 1    
   218  110  112 1    
   219  110  231 1    
   220  111  232 1    
   221  111  233 1    
   222  111  234 1    
   223  112  113 2    
   224  112  114 am   BACKBONE|DICT|INTERRES
   225  114  115 1    
   226  114  235 1    
   227  115  116 1    
   228  115  117 1    
   229  115  236 1    
   230  116  237 1    
   231  116  238 1    
   232  116  239 1    
   233  117  118 2    
   234  117  119 am   BACKBONE|DICT|INTERRES
   235  119  120 1    
   236  119  240 1    
   237  120  121 1    
   238  120  124 1    
   239  120  241 1    
   240  121  122 am   BACKBONE|DICT|INTERRES
   241  121  123 2    
   242  122  242 1    
   243  122  243 1    
   244  124  125 1    
   245  124  244 1    
   246  124  245 1    
   247  125  126 1    
   248  126  246 1    
   249  126  247 1    
@<TRIPOS>SUBSTRUCTURE
     1 UNK         1 GROUP             0       ****    0 ROOT    
