@<TRIPOS>MOLECULE
3R540
247   249    1
SMALL
USER_CHARGES


@<TRIPOS>ATOM
      1 CA          1.8937   -9.4405  -48.8210 C.3       0 UNK        -0.1800 
      2 C           0.8935  -10.5555  -49.1215 C.2       0 UNK         0.5000 
      3 O          -0.3103  -10.3300  -49.0138 O.2       0 UNK        -0.5000 
      4 N           1.3284  -11.7606  -49.5148 N.am      1 UNK        -0.5000 
      5 CA          2.7185  -12.2200  -49.6171 C.3       1 UNK         0.1400 
      6 C6          2.8201  -13.4595  -50.5489 C.3       23 UNK        -0.0398 
      7 S7          2.1165  -14.9916  -49.8448 S.3       23 UNK        -0.2404 
      8 C8          0.7102  -15.3474  -50.9413 C.3       23 UNK        -0.0205 
      9 C9         -0.1198  -16.4924  -50.3792 C.ar      23 UNK        -0.0193 
     10 C10        -1.4045  -16.2603  -49.8771 C.ar      23 UNK        -0.1150 
     11 C11        -2.1430  -17.3015  -49.3083 C.ar      23 UNK        -0.0193 
     12 C12        -1.5924  -18.5832  -49.2535 C.ar      23 UNK        -0.1150 
     13 C13        -0.3214  -18.8354  -49.7769 C.ar      23 UNK        -0.0193 
     14 C14         0.4088  -17.7863  -50.3401 C.ar      23 UNK        -0.1150 
     15 C15         0.2546  -20.2425  -49.7598 C.3       23 UNK        -0.0205 
     16 S16         1.3625  -20.5390  -48.3461 S.3       23 UNK        -0.2404 
     17 C17         0.2320  -20.4727  -46.9142 C.3       23 UNK        -0.0398 
     18 CA         -0.2621  -21.8672  -46.4617 C.3       11 UNK         0.1400 
     19 N          -0.6664  -21.8551  -45.0521 N.am      11 UNK        -0.5000 
     20 C          -1.0176  -22.9369  -44.3429 C.2       10 UNK         0.5000 
     21 O          -1.0258  -24.0779  -44.7989 O.2       10 UNK        -0.5000 
     22 CA         -1.5020  -22.6990  -42.9063 C.3       10 UNK         0.1400 
     23 CB         -0.3161  -22.4757  -41.9578 C.3       10 UNK        -0.1800 
     24 N          -2.4225  -21.5647  -42.8470 N.am      10 UNK        -0.5000 
     25 C          -3.6872  -21.6085  -43.2914 C.2       9 UNK         0.5000 
     26 O          -4.2239  -22.6271  -43.7271 O.2       9 UNK        -0.5000 
     27 CA         -4.4794  -20.2884  -43.2692 C.3       9 UNK         0.1400 
     28 CB         -5.1907  -20.1097  -41.9197 C.3       9 UNK        -0.1800 
     29 N          -3.6499  -19.1120  -43.5353 N.am      9 UNK        -0.5000 
     30 C          -3.0526  -18.8507  -44.7063 C.2       8 UNK         0.5000 
     31 O          -3.1214  -19.5828  -45.6927 O.2       8 UNK        -0.5000 
     32 CA         -2.2001  -17.5712  -44.7700 C.3       8 UNK         0.1400 
     33 CB         -3.1109  -16.3509  -44.9854 C.3       8 UNK        -0.1800 
     34 N          -1.3668  -17.3508  -43.5809 N.am      8 UNK        -0.5000 
     35 C          -0.4892  -18.2295  -43.0770 C.2       7 UNK         0.5000 
     36 O          -0.2560  -19.3278  -43.5883 O.2       7 UNK        -0.5000 
     37 CA          0.2203  -17.8202  -41.7764 C.3       7 UNK         0.1400 
     38 CB          0.6175  -19.0546  -40.9371 C.3       7 UNK        -0.1800 
     39 N           1.3884  -16.9970  -42.0836 N.am      7 UNK        -0.5000 
     40 C           2.1100  -16.3251  -41.1746 C.2       6 UNK         0.5000 
     41 O           1.8418  -16.2967  -39.9724 O.2       6 UNK        -0.5000 
     42 CA          3.3310  -15.5379  -41.6848 C.3       6 UNK         0.1400 
     43 CB          4.3837  -16.4642  -42.3156 C.3       6 UNK        -0.1800 
     44 N           2.9483  -14.4947  -42.6318 N.am      6 UNK        -0.5000 
     45 C           2.2732  -13.3821  -42.3081 C.2       5 UNK         0.5000 
     46 O           1.9844  -13.0649  -41.1536 O.2       5 UNK        -0.5000 
     47 CA          1.8220  -12.4790  -43.4720 C.3       5 UNK         0.1400 
     48 CB          2.9169  -11.4659  -43.8388 C.3       5 UNK        -0.1800 
     49 N           1.4494  -13.2390  -44.6636 N.am      5 UNK        -0.5000 
     50 C           0.4269  -14.1031  -44.7341 C.2       4 UNK         0.5000 
     51 O          -0.3676  -14.3147  -43.8172 O.2       4 UNK        -0.5000 
     52 CA          0.3021  -14.8907  -46.0463 C.3       4 UNK         0.1400 
     53 CB         -0.3826  -14.0364  -47.1224 C.3       4 UNK        -0.1800 
     54 N           1.6017  -15.3619  -46.5221 N.am      4 UNK        -0.5000 
     55 C           2.3313  -16.3098  -45.9160 C.2       3 UNK         0.5000 
     56 O           1.9615  -16.9185  -44.9124 O.2       3 UNK        -0.5000 
     57 CA          3.7302  -16.5916  -46.4943 C.3       3 UNK         0.1400 
     58 CB          3.6662  -17.6704  -47.5840 C.3       3 UNK        -0.1800 
     59 N           4.3705  -15.3851  -47.0227 N.am      3 UNK        -0.5000 
     60 C           4.8296  -14.3873  -46.2530 C.2       2 UNK         0.5000 
     61 O           4.7891  -14.4047  -45.0232 O.2       2 UNK        -0.5000 
     62 CA          5.3844  -13.1427  -46.9755 C.3       2 UNK         0.1400 
     63 CB          6.8699  -13.3336  -47.3154 C.3       2 UNK        -0.1800 
     64 N           4.6466  -12.7964  -48.1951 N.am      2 UNK        -0.5000 
     65 C           3.3466  -12.4720  -48.2226 C.2       1 UNK         0.5000 
     66 O           2.6515  -12.4116  -47.2050 O.2       1 UNK        -0.5000 
     67 C          -1.3772  -22.4188  -47.3805 C.2       11 UNK         0.5000 
     68 O          -1.0988  -23.2231  -48.2724 O.2       11 UNK        -0.5000 
     69 N          -2.6308  -22.0331  -47.1063 N.am      12 UNK        -0.5000 
     70 CA         -3.8298  -22.5261  -47.7863 C.3       12 UNK         0.1400 
     71 CB         -5.0330  -21.6633  -47.3774 C.3       12 UNK        -0.1800 
     72 C          -4.1218  -24.0250  -47.5712 C.2       12 UNK         0.5000 
     73 O          -4.8559  -24.6034  -48.3720 O.2       12 UNK        -0.5000 
     74 N          -3.5448  -24.6311  -46.5265 N.am      13 UNK        -0.5000 
     75 CA         -3.6096  -26.0682  -46.2733 C.3       13 UNK         0.1400 
     76 CB         -3.7518  -26.3123  -44.7620 C.3       13 UNK        -0.1800 
     77 C          -2.3675  -26.7849  -46.8310 C.2       13 UNK         0.5000 
     78 O          -2.5070  -27.8136  -47.4929 O.2       13 UNK        -0.5000 
     79 N          -1.1782  -26.2434  -46.5349 N.am      14 UNK        -0.5000 
     80 CA          0.1177  -26.8451  -46.8416 C.3       14 UNK         0.1400 
     81 CB          1.2062  -26.1631  -45.9973 C.3       14 UNK        -0.1800 
     82 C           0.4804  -26.7948  -48.3340 C.2       14 UNK         0.5000 
     83 O           0.8806  -27.8186  -48.8904 O.2       14 UNK        -0.5000 
     84 N           0.3528  -25.6119  -48.9484 N.am      15 UNK        -0.5000 
     85 CA          0.6543  -25.3914  -50.3616 C.3       15 UNK         0.1400 
     86 CB          1.2898  -24.0045  -50.5529 C.3       15 UNK        -0.1800 
     87 C          -0.6186  -25.5378  -51.2040 C.2       15 UNK         0.5000 
     88 O          -0.6060  -26.2695  -52.1944 O.2       15 UNK        -0.5000 
     89 N          -1.6909  -24.8512  -50.7785 N.am      16 UNK        -0.5000 
     90 CA         -3.0555  -24.8390  -51.3255 C.3       16 UNK         0.1400 
     91 CB         -3.7138  -26.2256  -51.2053 C.3       16 UNK        -0.1800 
     92 C          -3.1837  -24.2803  -52.7570 C.2       16 UNK         0.5000 
     93 O          -3.9418  -23.3341  -52.9715 O.2       16 UNK        -0.5000 
     94 N          -2.4286  -24.8389  -53.7090 N.am      17 UNK        -0.5000 
     95 CA         -2.4000  -24.4304  -55.1157 C.3       17 UNK         0.1400 
     96 CB         -1.6094  -25.4681  -55.9261 C.3       17 UNK        -0.1800 
     97 C          -1.8130  -23.0212  -55.3169 C.2       17 UNK         0.5000 
     98 O          -2.2635  -22.2936  -56.2016 O.2       17 UNK        -0.5000 
     99 N          -0.8414  -22.6549  -54.4693 N.am      18 UNK        -0.5000 
    100 CA        -0.2449  -21.3190  -54.4156 C.3       18 UNK         0.1400 
    101 CB         1.0802  -21.3965  -53.6426 C.3       18 UNK        -0.1800 
    102 C         -1.1814  -20.2750  -53.7761 C.2       18 UNK         0.5000 
    103 O         -1.0692  -19.0902  -54.0904 O.2       18 UNK        -0.5000 
    104 N         -2.0818  -20.7343  -52.8961 N.am      19 UNK        -0.5000 
    105 CA        -3.0992  -19.9143  -52.2438 C.3       19 UNK         0.1400 
    106 CB        -3.5911  -20.6397  -50.9795 C.3       19 UNK        -0.1800 
    107 C         -4.2741  -19.6350  -53.1924 C.2       19 UNK         0.5000 
    108 O         -4.6921  -18.4858  -53.3284 O.2       19 UNK        -0.5000 
    109 N         -4.7801  -20.7077  -53.8218 N.am      20 UNK        -0.5000 
    110 CA        -5.9632  -20.7446  -54.6865 C.3       20 UNK         0.1400 
    111 CB        -5.7199  -19.9574  -55.9911 C.3       20 UNK        -0.1800 
    112 C         -7.2461  -20.3200  -53.9370 C.2       20 UNK         0.5000 
    113 O         -8.0775  -19.6008  -54.4930 O.2       20 UNK        -0.5000 
    114 N         -7.3648  -20.7929  -52.6851 N.am      21 UNK        -0.5000 
    115 CA        -8.4392  -20.5439  -51.7192 C.3       21 UNK         0.1400 
    116 CB        -9.7815  -21.1149  -52.2232 C.3       21 UNK        -0.1800 
    117 C         -8.5348  -19.0579  -51.3163 C.2       21 UNK         0.5000 
    118 O         -9.3898  -18.3283  -51.8227 O.2       21 UNK        -0.5000 
    119 N         -7.6505  -18.6412  -50.3994 N.am      22 UNK        -0.5000 
    120 CA        -7.6138  -17.2819  -49.8228 C.3       22 UNK         0.1400 
    121 C         -8.8469  -16.9030  -48.9466 C.2       22 UNK         0.5000 
    122 N         -9.6518  -17.8493  -48.4778 N.am      22 UNK        -0.7600 
    123 O         -9.0768  -15.7247  -48.6884 O.2       22 UNK        -0.5000 
    124 C124       -6.3091  -17.0193  -49.0251 C.3       23 UNK        -0.0398 
    125 S125       -4.8030  -17.1824  -50.0353 S.3       23 UNK        -0.2404 
    126 C126       -3.5306  -17.0464  -48.7447 C.3       23 UNK        -0.0205 
    127 H127        2.4822   -9.6743  -47.9342 H         1 UNK         0.0600 
    128 H128        1.3714   -8.5023  -48.6326 H         1 UNK         0.0600 
    129 H129        2.5674   -9.2774  -49.6617 H         1 UNK         0.0600 
    130 H130        0.6397  -12.4797  -49.6754 H         1 UNK         0.3000 
    131 H131        3.3008  -11.4251  -50.0852 H         1 UNK         0.0600 
    132 H132        2.3406  -13.2443  -51.5050 H         1 UNK         0.0800 
    133 H133        3.8639  -13.6591  -50.7953 H         1 UNK         0.0800 
    134 H134        0.1002  -14.4504  -51.0579 H         1 UNK         0.0800 
    135 H135        1.0768  -15.6123  -51.9341 H         1 UNK         0.0800 
    136 H136       -1.8274  -15.2663  -49.9138 H         1 UNK         0.1150 
    137 H137       -2.1622  -19.3859  -48.8079 H         1 UNK         0.1150 
    138 H138        1.3984  -17.9719  -50.7333 H         1 UNK         0.1150 
    139 H139       -0.5409  -20.9854  -49.7688 H         1 UNK         0.0800 
    140 H140        0.8222  -20.4047  -50.6760 H         1 UNK         0.0800 
    141 H141        0.8080  -20.0140  -46.1086 H         1 UNK         0.0800 
    142 H142       -0.5974  -19.7893  -47.0870 H         1 UNK         0.0800 
    143 H143        0.5779  -22.5619  -46.5287 H         1 UNK         0.0600 
    144 H144       -0.6629  -20.9517  -44.5862 H         1 UNK         0.3000 
    145 H145       -2.0327  -23.5944  -42.5748 H         1 UNK         0.0600 
    146 H146       -0.6529  -22.2768  -40.9404 H         1 UNK         0.0600 
    147 H147        0.3207  -23.3604  -41.9225 H         1 UNK         0.0600 
    148 H148        0.3075  -21.6421  -42.2790 H         1 UNK         0.0600 
    149 H149       -2.0383  -20.6781  -42.5560 H         1 UNK         0.3000 
    150 H150       -5.2398  -20.3473  -44.0509 H         1 UNK         0.0600 
    151 H151       -5.8355  -20.9624  -41.7026 H         1 UNK         0.0600 
    152 H152       -5.8207  -19.2200  -41.9206 H         1 UNK         0.0600 
    153 H153       -4.4797  -20.0180  -41.0977 H         1 UNK         0.0600 
    154 H154       -3.5342  -18.4549  -42.7779 H         1 UNK         0.3000 
    155 H155       -1.5369  -17.6736  -45.6309 H         1 UNK         0.0600 
    156 H156       -2.5370  -15.4441  -45.1679 H         1 UNK         0.0600 
    157 H157       -3.7473  -16.1681  -44.1188 H         1 UNK         0.0600 
    158 H158       -3.7682  -16.4943  -45.8429 H         1 UNK         0.0600 
    159 H159       -1.4521  -16.4457  -43.1377 H         1 UNK         0.3000 
    160 H160       -0.4808  -17.2216  -41.1912 H         1 UNK         0.0600 
    161 H161        1.4008  -19.6354  -41.4252 H         1 UNK         0.0600 
    162 H162       -0.2387  -19.7115  -40.7821 H         1 UNK         0.0600 
    163 H163        0.9792  -18.7754  -39.9483 H         1 UNK         0.0600 
    164 H164        1.6474  -16.9539  -43.0688 H         1 UNK         0.3000 
    165 H165        3.7966  -15.0541  -40.8235 H         1 UNK         0.0600 
    166 H166        4.0080  -16.9674  -43.2054 H         1 UNK         0.0600 
    167 H167        5.2759  -15.9067  -42.6012 H         1 UNK         0.0600 
    168 H168        4.6944  -17.2360  -41.6104 H         1 UNK         0.0600 
    169 H169        3.2057  -14.6403  -43.6004 H         1 UNK         0.3000 
    170 H170        0.9407  -11.9256  -43.1415 H         1 UNK         0.0600 
    171 H171        3.1831  -10.8507  -42.9785 H         1 UNK         0.0600 
    172 H172        3.8252  -11.9615  -44.1818 H         1 UNK         0.0600 
    173 H173        2.5839  -10.7943  -44.6304 H         1 UNK         0.0600 
    174 H174        2.0122  -13.0881  -45.4963 H         1 UNK         0.3000 
    175 H175       -0.3130  -15.7697  -45.8661 H         1 UNK         0.0600 
    176 H176       -1.4209  -13.8362  -46.8562 H         1 UNK         0.0600 
    177 H177        0.1091  -13.0733  -47.2533 H         1 UNK         0.0600 
    178 H178       -0.3831  -14.5398  -48.0851 H         1 UNK         0.0600 
    179 H179        1.9827  -14.8994  -47.3353 H         1 UNK         0.3000 
    180 H180        4.3534  -16.9757  -45.6840 H         1 UNK         0.0600 
    181 H181        2.9923  -17.3960  -48.3955 H         1 UNK         0.0600 
    182 H182        3.3054  -18.6103  -47.1661 H         1 UNK         0.0600 
    183 H183        4.6499  -17.8636  -48.0117 H         1 UNK         0.0600 
    184 H184        4.4219  -15.2938  -48.0267 H         1 UNK         0.3000 
    185 H185        5.2996  -12.2999  -46.2863 H         1 UNK         0.0600 
    186 H186        7.2971  -12.4259  -47.7419 H         1 UNK         0.0600 
    187 H187        7.4469  -13.5733  -46.4211 H         1 UNK         0.0600 
    188 H188        7.0196  -14.1443  -48.0296 H         1 UNK         0.0600 
    189 H189        5.1705  -12.8265  -49.0578 H         1 UNK         0.3000 
    190 H190       -2.7801  -21.3220  -46.3948 H         1 UNK         0.3000 
    191 H191       -3.6760  -22.4014  -48.8566 H         1 UNK         0.0600 
    192 H192       -5.9420  -21.9896  -47.8841 H         1 UNK         0.0600 
    193 H193       -4.8738  -20.6168  -47.6392 H         1 UNK         0.0600 
    194 H194       -5.2158  -21.7170  -46.3038 H         1 UNK         0.0600 
    195 H195       -2.9479  -24.0894  -45.9156 H         1 UNK         0.3000 
    196 H196       -4.4890  -26.4972  -46.7585 H         1 UNK         0.0600 
    197 H197       -3.8206  -27.3788  -44.5444 H         1 UNK         0.0600 
    198 H198       -4.6545  -25.8411  -44.3728 H         1 UNK         0.0600 
    199 H199       -2.9043  -25.9171  -44.2014 H         1 UNK         0.0600 
    200 H200       -1.1528  -25.4070  -45.9542 H         1 UNK         0.3000 
    201 H201        0.0774  -27.8958  -46.5463 H         1 UNK         0.0600 
    202 H202        1.0030  -26.2716  -44.9318 H         1 UNK         0.0600 
    203 H203        1.2776  -25.0968  -46.2153 H         1 UNK         0.0600 
    204 H204        2.1850  -26.6048  -46.1887 H         1 UNK         0.0600 
    205 H205       -0.0454  -24.8265  -48.4431 H         1 UNK         0.3000 
    206 H206        1.3776  -26.1323  -50.7093 H         1 UNK         0.0600 
    207 H207        2.1792  -23.8905  -49.9331 H         1 UNK         0.0600 
    208 H208        1.5972  -23.8620  -51.5891 H         1 UNK         0.0600 
    209 H209        0.6041  -23.1967  -50.2994 H         1 UNK         0.0600 
    210 H210       -1.5586  -24.2753  -49.9529 H         1 UNK         0.3000 
    211 H211       -3.6179  -24.1577  -50.6873 H         1 UNK         0.0600 
    212 H212       -3.2113  -26.9744  -51.8180 H         1 UNK         0.0600 
    213 H213       -4.7568  -26.1895  -51.5223 H         1 UNK         0.0600 
    214 H214       -3.7011  -26.5758  -50.1728 H         1 UNK         0.0600 
    215 H215       -1.7893  -25.5770  -53.4222 H         1 UNK         0.3000 
    216 H216       -3.4278  -24.4168  -55.4844 H         1 UNK         0.0600 
    217 H217       -0.5782  -25.5488  -55.5796 H         1 UNK         0.0600 
    218 H218       -2.0656  -26.4555  -55.8523 H         1 UNK         0.0600 
    219 H219       -1.5822  -25.2010  -56.9833 H         1 UNK         0.0600 
    220 H220       -0.5193  -23.3293  -53.7915 H         1 UNK         0.3000 
    221 H221       -0.0284  -20.9915  -55.4348 H         1 UNK         0.0600 
    222 H222        1.7841  -22.0696  -54.1324 H         1 UNK         0.0600 
    223 H223        1.5563  -20.4168  -53.5814 H         1 UNK         0.0600 
    224 H224        0.9291  -21.7523  -52.6240 H         1 UNK         0.0600 
    225 H225       -2.1359  -21.7291  -52.7424 H         1 UNK         0.3000 
    226 H226       -2.6521  -18.9624  -51.9485 H         1 UNK         0.0600 
    227 H227       -4.2059  -21.5093  -51.2054 H         1 UNK         0.0600 
    228 H228       -2.7531  -20.9820  -50.3773 H         1 UNK         0.0600 
    229 H229       -4.1941  -19.9801  -50.3576 H         1 UNK         0.0600 
    230 H230       -4.3730  -21.6161  -53.6119 H         1 UNK         0.3000 
    231 H231       -6.1045  -21.7914  -54.9596 H         1 UNK         0.0600 
    232 H232       -6.5419  -20.1022  -56.6928 H         1 UNK         0.0600 
    233 H233       -4.8079  -20.2915  -56.4863 H         1 UNK         0.0600 
    234 H234       -5.6304  -18.8860  -55.8102 H         1 UNK         0.0600 
    235 H235       -6.6061  -21.3657  -52.3443 H         1 UNK         0.3000 
    236 H236       -8.1767  -21.1019  -50.8189 H         1 UNK         0.0600 
    237 H237       -9.6992  -22.1798  -52.4404 H         1 UNK         0.0600 
    238 H238      -10.5599  -20.9964  -51.4685 H         1 UNK         0.0600 
    239 H239      -10.1295  -20.6155  -53.1277 H         1 UNK         0.0600 
    240 H240       -6.9605  -19.2875  -50.0480 H         1 UNK         0.3000 
    241 H241       -7.6257  -16.5854  -50.6635 H         1 UNK         0.0600 
    242 H242       -9.4783  -18.8207  -48.6776 H         1 UNK         0.3800 
    243 H243      -10.4472  -17.5885  -47.9162 H         1 UNK         0.3800 
    244 H244       -6.3103  -16.0109  -48.6066 H         1 UNK         0.0800 
    245 H245       -6.2422  -17.7038  -48.1775 H         1 UNK         0.0800 
    246 H246       -3.7438  -17.7623  -47.9491 H         1 UNK         0.0800 
    247 H247       -3.5737  -16.0535  -48.2947 H         1 UNK         0.0800 
@<TRIPOS>BOND
     1    1    2 1    
     2    1  127 1    
     3    1  128 1    
     4    1  129 1    
     5    2    3 2    
     6    2    4 am   BACKBONE|DICT|INTERRES
     7    4    5 1    
     8    4  130 1    
     9    5    6 1    
    10    5   65 1    
    11    5  131 1    
    12    6    7 1    
    13    6  132 1    
    14    6  133 1    
    15    7    8 1    
    16    8    9 1    
    17    8  134 1    
    18    8  135 1    
    19    9   10 ar   
    20    9   14 ar   
    21   10   11 ar   
    22   10  136 1    
    23   11   12 ar   
    24   11  126 1    
    25   12   13 ar   
    26   12  137 1    
    27   13   14 ar   
    28   13   15 1    
    29   14  138 1    
    30   15   16 1    
    31   15  139 1    
    32   15  140 1    
    33   16   17 1    
    34   17   18 1    
    35   17  141 1    
    36   17  142 1    
    37   18   19 1    
    38   18   67 1    
    39   18  143 1    
    40   19   20 am   BACKBONE|DICT|INTERRES
    41   19  144 1    
    42   20   21 2    
    43   20   22 1    
    44   22   23 1    
    45   22   24 1    
    46   22  145 1    
    47   23  146 1    
    48   23  147 1    
    49   23  148 1    
    50   24   25 am   BACKBONE|DICT|INTERRES
    51   24  149 1    
    52   25   26 2    
    53   25   27 1    
    54   27   28 1    
    55   27   29 1    
    56   27  150 1    
    57   28  151 1    
    58   28  152 1    
    59   28  153 1    
    60   29   30 am   BACKBONE|DICT|INTERRES
    61   29  154 1    
    62   30   31 2    
    63   30   32 1    
    64   32   33 1    
    65   32   34 1    
    66   32  155 1    
    67   33  156 1    
    68   33  157 1    
    69   33  158 1    
    70   34   35 am   BACKBONE|DICT|INTERRES
    71   34  159 1    
    72   35   36 2    
    73   35   37 1    
    74   37   38 1    
    75   37   39 1    
    76   37  160 1    
    77   38  161 1    
    78   38  162 1    
    79   38  163 1    
    80   39   40 am   BACKBONE|DICT|INTERRES
    81   39  164 1    
    82   40   41 2    
    83   40   42 1    
    84   42   43 1    
    85   42   44 1    
    86   42  165 1    
    87   43  166 1    
    88   43  167 1    
    89   43  168 1    
    90   44   45 am   BACKBONE|DICT|INTERRES
    91   44  169 1    
    92   45   46 2    
    93   45   47 1    
    94   47   48 1    
    95   47   49 1    
    96   47  170 1    
    97   48  171 1    
    98   48  172 1    
    99   48  173 1    
   100   49   50 am   BACKBONE|DICT|INTERRES
   101   49  174 1    
   102   50   51 2    
   103   50   52 1    
   104   52   53 1    
   105   52   54 1    
   106   52  175 1    
   107   53  176 1    
   108   53  177 1    
   109   53  178 1    
   110   54   55 am   BACKBONE|DICT|INTERRES
   111   54  179 1    
   112   55   56 2    
   113   55   57 1    
   114   57   58 1    
   115   57   59 1    
   116   57  180 1    
   117   58  181 1    
   118   58  182 1    
   119   58  183 1    
   120   59   60 am   BACKBONE|DICT|INTERRES
   121   59  184 1    
   122   60   61 2    
   123   60   62 1    
   124   62   63 1    
   125   62   64 1    
   126   62  185 1    
   127   63  186 1    
   128   63  187 1    
   129   63  188 1    
   130   64   65 am   BACKBONE|DICT|INTERRES
   131   64  189 1    
   132   65   66 2    
   133   67   68 2    
   134   67   69 am   BACKBONE|DICT|INTERRES
   135   69   70 1    
   136   69  190 1    
   137   70   71 1    
   138   70   72 1    
   139   70  191 1    
   140   71  192 1    
   141   71  193 1    
   142   71  194 1    
   143   72   73 2    
   144   72   74 am   BACKBONE|DICT|INTERRES
   145   74   75 1    
   146   74  195 1    
   147   75   76 1    
   148   75   77 1    
   149   75  196 1    
   150   76  197 1    
   151   76  198 1    
   152   76  199 1    
   153   77   78 2    
   154   77   79 am   BACKBONE|DICT|INTERRES
   155   79   80 1    
   156   79  200 1    
   157   80   81 1    
   158   80   82 1    
   159   80  201 1    
   160   81  202 1    
   161   81  203 1    
   162   81  204 1    
   163   82   83 2    
   164   82   84 am   BACKBONE|DICT|INTERRES
   165   84   85 1    
   166   84  205 1    
   167   85   86 1    
   168   85   87 1    
   169   85  206 1    
   170   86  207 1    
   171   86  208 1    
   172   86  209 1    
   173   87   88 2    
   174   87   89 am   BACKBONE|DICT|INTERRES
   175   89   90 1    
   176   89  210 1    
   177   90   91 1    
   178   90   92 1    
   179   90  211 1    
   180   91  212 1    
   181   91  213 1    
   182   91  214 1    
   183   92   93 2    
   184   92   94 am   BACKBONE|DICT|INTERRES
   185   94   95 1    
   186   94  215 1    
   187   95   96 1    
   188   95   97 1    
   189   95  216 1    
   190   96  217 1    
   191   96  218 1    
   192   96  219 1    
   193   97   98 2    
   194   97   99 am   BACKBONE|DICT|INTERRES
   195   99  100 1    
   196   99  220 1    
   197  100  101 1    
   198  100  102 1    
   199  100  221 1    
   200  101  222 1    
   201  101  223 1    
   202  101  224 1    
   203  102  103 2    
   204  102  104 am   BACKBONE|DICT|INTERRES
   205  104  105 1    
   206  104  225 1    
   207  105  106 1    
   208  105  107 1    
   209  105  226 1    
   210  106  227 1    
   211  106  228 1    
   212  106  229 1    
   213  107  108 2    
   214  107  109 am   BACKBONE|DICT|INTERRES
   215  109  110 1    
   216  109  230 1    
   217  110  111 1    
   218  110  112 1    
   219  110  231 1    
   220  111  232 1    
   221  111  233 1    
   222  111  234 1    
   223  112  113 2    
   224  112  114 am   BACKBONE|DICT|INTERRES
   225  114  115 1    
   226  114  235 1    
   227  115  116 1    
   228  115  117 1    
   229  115  236 1    
   230  116  237 1    
   231  116  238 1    
   232  116  239 1    
   233  117  118 2    
   234  117  119 am   BACKBONE|DICT|INTERRES
   235  119  120 1    
   236  119  240 1    
   237  120  121 1    
   238  120  124 1    
   239  120  241 1    
   240  121  122 am   BACKBONE|DICT|INTERRES
   241  121  123 2    
   242  122  242 1    
   243  122  243 1    
   244  124  125 1    
   245  124  244 1    
   246  124  245 1    
   247  125  126 1    
   248  126  246 1    
   249  126  247 1    
@<TRIPOS>SUBSTRUCTURE
     1 UNK         1 GROUP             0       ****    0 ROOT    
