@<TRIPOS>MOLECULE
3R540
247   249    1
SMALL
USER_CHARGES


@<TRIPOS>ATOM
      1 CA          3.5929  -14.9029  -43.9456 C.3       0 UNK        -0.1800 
      2 C           2.4658  -14.0811  -44.5497 C.2       0 UNK         0.5000 
      3 O           1.7083  -13.4440  -43.8169 O.2       0 UNK        -0.5000 
      4 N           2.3598  -14.0841  -45.8852 N.am      1 UNK        -0.5000 
      5 CA          1.2938  -13.4431  -46.6688 C.3       1 UNK         0.1400 
      6 C6          1.4553  -13.6882  -48.1884 C.3       23 UNK        -0.0398 
      7 S7          1.5464  -15.4554  -48.6348 S.3       23 UNK        -0.2404 
      8 C8         -0.1810  -15.8203  -49.0765 C.3       23 UNK        -0.0205 
      9 C9         -0.2467  -16.8378  -50.2031 C.ar      23 UNK        -0.0193 
     10 C10        -0.3664  -16.4109  -51.5296 C.ar      23 UNK        -0.1150 
     11 C11        -0.4306  -17.3419  -52.5698 C.ar      23 UNK        -0.0193 
     12 C12        -0.3659  -18.7065  -52.2778 C.ar      23 UNK        -0.1150 
     13 C13        -0.2468  -19.1452  -50.9566 C.ar      23 UNK        -0.0193 
     14 C14        -0.1921  -18.2056  -49.9226 C.ar      23 UNK        -0.1150 
     15 C15        -0.2370  -20.6339  -50.6526 C.3       23 UNK        -0.0205 
     16 S16         1.2004  -21.1548  -49.6646 S.3       23 UNK        -0.2404 
     17 C17         0.7992  -22.9212  -49.4078 C.3       23 UNK        -0.0398 
     18 CA          0.1220  -23.2432  -48.0535 C.3       11 UNK         0.1400 
     19 N           0.9523  -22.8569  -46.9088 N.am      11 UNK        -0.5000 
     20 C           0.7142  -23.2003  -45.6377 C.2       10 UNK         0.5000 
     21 O          -0.2541  -23.8752  -45.2887 O.2       10 UNK        -0.5000 
     22 CA          1.6830  -22.6694  -44.5720 C.3       10 UNK         0.1400 
     23 CB          3.0045  -23.4588  -44.5565 C.3       10 UNK        -0.1800 
     24 N           1.9090  -21.2242  -44.6505 N.am      10 UNK        -0.5000 
     25 C           2.5806  -20.4981  -45.5556 C.2       9 UNK         0.5000 
     26 O           3.0959  -20.9651  -46.5711 O.2       9 UNK        -0.5000 
     27 CA          2.7058  -18.9893  -45.2539 C.3       9 UNK         0.1400 
     28 CB          1.5506  -18.2086  -45.8997 C.3       9 UNK        -0.1800 
     29 N           2.7291  -18.7144  -43.8139 N.am      9 UNK        -0.5000 
     30 C           3.7178  -19.0860  -42.9854 C.2       8 UNK         0.5000 
     31 O           4.7896  -19.5582  -43.3655 O.2       8 UNK        -0.5000 
     32 CA          3.4398  -18.9607  -41.4777 C.3       8 UNK         0.1400 
     33 CB          3.7983  -17.5604  -40.9601 C.3       8 UNK        -0.1800 
     34 N           2.0412  -19.2653  -41.1665 N.am      8 UNK        -0.5000 
     35 C           1.5510  -20.5080  -41.0452 C.2       7 UNK         0.5000 
     36 O           2.2415  -21.5237  -41.1245 O.2       7 UNK        -0.5000 
     37 CA          0.0346  -20.6512  -40.8127 C.3       7 UNK         0.1400 
     38 CB         -0.2760  -20.7202  -39.3104 C.3       7 UNK        -0.1800 
     39 N          -0.7429  -19.5660  -41.4113 N.am      7 UNK        -0.5000 
     40 C          -0.9730  -19.4275  -42.7237 C.2       6 UNK         0.5000 
     41 O          -0.5934  -20.2321  -43.5744 O.2       6 UNK        -0.5000 
     42 CA         -1.7285  -18.1594  -43.1646 C.3       6 UNK         0.1400 
     43 CB         -3.2394  -18.4281  -43.2163 C.3       6 UNK        -0.1800 
     44 N          -1.4728  -16.9818  -42.3309 N.am      6 UNK        -0.5000 
     45 C          -0.2676  -16.4398  -42.1157 C.2       5 UNK         0.5000 
     46 O           0.7806  -16.9069  -42.5663 O.2       5 UNK        -0.5000 
     47 CA         -0.2487  -15.1542  -41.2780 C.3       5 UNK         0.1400 
     48 CB          1.1115  -14.9072  -40.6041 C.3       5 UNK        -0.1800 
     49 N          -0.5523  -14.0230  -42.1421 N.am      5 UNK        -0.5000 
     50 C          -1.7741  -13.5401  -42.3996 C.2       4 UNK         0.5000 
     51 O          -2.8064  -14.0293  -41.9367 O.2       4 UNK        -0.5000 
     52 CA         -1.8413  -12.3055  -43.3280 C.3       4 UNK         0.1400 
     53 CB         -3.1233  -11.4700  -43.1332 C.3       4 UNK        -0.1800 
     54 N          -0.6412  -11.4650  -43.2368 N.am      4 UNK        -0.5000 
     55 C          -0.1677  -10.8267  -42.1535 C.2       3 UNK         0.5000 
     56 O          -0.7817  -10.7319  -41.0902 O.2       3 UNK        -0.5000 
     57 CA          1.2515  -10.2317  -42.2519 C.3       3 UNK         0.1400 
     58 CB          2.1939  -10.9310  -41.2571 C.3       3 UNK        -0.1800 
     59 N           1.8192  -10.3748  -43.5930 N.am      3 UNK        -0.5000 
     60 C           1.8079   -9.4276  -44.5392 C.2       2 UNK         0.5000 
     61 O           1.3585   -8.2938  -44.3685 O.2       2 UNK        -0.5000 
     62 CA          2.3839   -9.8140  -45.9164 C.3       2 UNK         0.1400 
     63 CB          3.8493   -9.3667  -46.0288 C.3       2 UNK        -0.1800 
     64 N           2.3016  -11.2482  -46.2085 N.am      2 UNK        -0.5000 
     65 C           1.1625  -11.9291  -46.4012 C.2       1 UNK         0.5000 
     66 O           0.0437  -11.4198  -46.3383 O.2       1 UNK        -0.5000 
     67 C          -1.3082  -22.6665  -47.9763 C.2       11 UNK         0.5000 
     68 O          -2.2477  -23.2925  -48.4711 O.2       11 UNK        -0.5000 
     69 N          -1.4412  -21.4862  -47.3550 N.am      12 UNK        -0.5000 
     70 CA         -2.7115  -20.8047  -47.1318 C.3       12 UNK         0.1400 
     71 CB         -2.4535  -19.3363  -46.7739 C.3       12 UNK        -0.1800 
     72 C          -3.5647  -21.5036  -46.0624 C.2       12 UNK         0.5000 
     73 O          -4.7723  -21.6443  -46.2491 O.2       12 UNK        -0.5000 
     74 N          -2.9235  -21.9692  -44.9821 N.am      13 UNK        -0.5000 
     75 CA         -3.5666  -22.7883  -43.9547 C.3       13 UNK         0.1400 
     76 CB         -2.6646  -22.8674  -42.7140 C.3       13 UNK        -0.1800 
     77 C          -3.9185  -24.1961  -44.4702 C.2       13 UNK         0.5000 
     78 O          -4.9729  -24.7249  -44.1165 O.2       13 UNK        -0.5000 
     79 N          -3.0335  -24.7705  -45.2964 N.am      14 UNK        -0.5000 
     80 CA         -3.1818  -26.1060  -45.8670 C.3       14 UNK         0.1400 
     81 CB         -1.8371  -26.5720  -46.4455 C.3       14 UNK        -0.1800 
     82 C          -4.2879  -26.2037  -46.9322 C.2       14 UNK         0.5000 
     83 O          -5.0903  -27.1368  -46.8702 O.2       14 UNK        -0.5000 
     84 N          -4.2982  -25.2794  -47.9048 N.am      15 UNK        -0.5000 
     85 CA         -5.1224  -25.4007  -49.1099 C.3       15 UNK         0.1400 
     86 CB         -4.4353  -26.3542  -50.1094 C.3       15 UNK        -0.1800 
     87 C          -5.4791  -24.0412  -49.7368 C.2       15 UNK         0.5000 
     88 O          -5.5381  -23.9394  -50.9651 O.2       15 UNK        -0.5000 
     89 N          -5.7155  -23.0207  -48.8980 N.am      16 UNK        -0.5000 
     90 CA         -6.2046  -21.6631  -49.2070 C.3       16 UNK         0.1400 
     91 CB         -7.6001  -21.7133  -49.8586 C.3       16 UNK        -0.1800 
     92 C          -5.2470  -20.7834  -50.0373 C.2       16 UNK         0.5000 
     93 O          -5.0158  -19.6280  -49.6819 O.2       16 UNK        -0.5000 
     94 N          -4.7052  -21.3508  -51.1139 N.am      17 UNK        -0.5000 
     95 CA         -3.7755  -20.7558  -52.0647 C.3       17 UNK         0.1400 
     96 CB         -4.5143  -19.7624  -52.9796 C.3       17 UNK        -0.1800 
     97 C          -3.0848  -21.8934  -52.8373 C.2       17 UNK         0.5000 
     98 O          -3.0487  -21.8731  -54.0698 O.2       17 UNK        -0.5000 
     99 N          -2.6173  -22.9111  -52.0920 N.am      18 UNK        -0.5000 
    100 CA        -1.9766  -24.1485  -52.5708 C.3       18 UNK         0.1400 
    101 CB        -0.6087  -23.8332  -53.2155 C.3       18 UNK        -0.1800 
    102 C         -2.8647  -24.9976  -53.5117 C.2       18 UNK         0.5000 
    103 O         -2.3364  -25.7581  -54.3239 O.2       18 UNK        -0.5000 
    104 N         -4.1927  -24.8163  -53.4223 N.am      19 UNK        -0.5000 
    105 CA        -5.2312  -25.3121  -54.3365 C.3       19 UNK         0.1400 
    106 CB        -5.3454  -26.8488  -54.2557 C.3       19 UNK        -0.1800 
    107 C         -5.0828  -24.8124  -55.7958 C.2       19 UNK         0.5000 
    108 O         -5.7105  -25.3747  -56.6948 O.2       19 UNK        -0.5000 
    109 N         -4.2636  -23.7737  -56.0124 N.am      20 UNK        -0.5000 
    110 CA        -3.8813  -23.2541  -57.3258 C.3       20 UNK         0.1400 
    111 CB        -2.3452  -23.2023  -57.3864 C.3       20 UNK        -0.1800 
    112 C         -4.4665  -21.8591  -57.6037 C.2       20 UNK         0.5000 
    113 O         -4.2982  -21.3535  -58.7149 O.2       20 UNK        -0.5000 
    114 N         -5.0975  -21.2375  -56.5935 N.am      21 UNK        -0.5000 
    115 CA        -5.6728  -19.8831  -56.6119 C.3       21 UNK         0.1400 
    116 CB        -6.9066  -19.8345  -57.5372 C.3       21 UNK        -0.1800 
    117 C         -4.6365  -18.7831  -56.9414 C.2       21 UNK         0.5000 
    118 O         -4.9935  -17.7506  -57.5112 O.2       21 UNK        -0.5000 
    119 N         -3.3672  -19.0477  -56.5996 N.am      22 UNK        -0.5000 
    120 CA        -2.1775  -18.2517  -56.9513 C.3       22 UNK         0.1400 
    121 C         -1.8371  -18.2362  -58.4754 C.2       22 UNK         0.5000 
    122 N         -2.3956  -19.1185  -59.2972 N.am      22 UNK        -0.7600 
    123 O         -1.0235  -17.4324  -58.9230 O.2       22 UNK        -0.5000 
    124 C124       -2.1689  -16.8282  -56.3209 C.3       23 UNK        -0.0398 
    125 S125       -2.3299  -16.8665  -54.5040 S.3       23 UNK        -0.2404 
    126 C126       -0.5800  -16.8845  -54.0105 C.3       23 UNK        -0.0205 
    127 H127        4.3793  -15.1043  -44.6730 H         1 UNK         0.0600 
    128 H128        4.0358  -14.3774  -43.0997 H         1 UNK         0.0600 
    129 H129        3.2012  -15.8553  -43.5929 H         1 UNK         0.0600 
    130 H130        3.0137  -14.6320  -46.4261 H         1 UNK         0.3000 
    131 H131        0.3547  -13.9025  -46.3528 H         1 UNK         0.0600 
    132 H132        0.6448  -13.2150  -48.7452 H         1 UNK         0.0800 
    133 H133        2.3718  -13.2172  -48.5488 H         1 UNK         0.0800 
    134 H134       -0.7051  -14.9126  -49.3776 H         1 UNK         0.0800 
    135 H135       -0.7040  -16.1971  -48.1961 H         1 UNK         0.0800 
    136 H136       -0.4144  -15.3542  -51.7523 H         1 UNK         0.1150 
    137 H137       -0.4262  -19.4256  -53.0830 H         1 UNK         0.1150 
    138 H138       -0.0998  -18.5399  -48.8995 H         1 UNK         0.1150 
    139 H139       -1.1587  -20.8755  -50.1264 H         1 UNK         0.0800 
    140 H140       -0.2457  -21.2060  -51.5795 H         1 UNK         0.0800 
    141 H141        1.7336  -23.4795  -49.4796 H         1 UNK         0.0800 
    142 H142        0.1849  -23.2859  -50.2313 H         1 UNK         0.0800 
    143 H143        0.0160  -24.3281  -48.0060 H         1 UNK         0.0600 
    144 H144        1.7556  -22.2631  -47.0993 H         1 UNK         0.3000 
    145 H145        1.1997  -22.8311  -43.6070 H         1 UNK         0.0600 
    146 H146        3.6578  -23.1113  -43.7559 H         1 UNK         0.0600 
    147 H147        2.8193  -24.5203  -44.3881 H         1 UNK         0.0600 
    148 H148        3.5489  -23.3693  -45.4968 H         1 UNK         0.0600 
    149 H149        1.4286  -20.7001  -43.9296 H         1 UNK         0.3000 
    150 H150        3.6446  -18.6364  -45.6856 H         1 UNK         0.0600 
    151 H151        1.5380  -18.3547  -46.9805 H         1 UNK         0.0600 
    152 H152        1.6454  -17.1379  -45.7175 H         1 UNK         0.0600 
    153 H153        0.5837  -18.5285  -45.5130 H         1 UNK         0.0600 
    154 H154        1.9150  -18.2537  -43.4182 H         1 UNK         0.3000 
    155 H155        4.0810  -19.6780  -40.9605 H         1 UNK         0.0600 
    156 H156        3.2029  -16.7871  -41.4411 H         1 UNK         0.0600 
    157 H157        4.8471  -17.3311  -41.1522 H         1 UNK         0.0600 
    158 H158        3.6397  -17.4848  -39.8844 H         1 UNK         0.0600 
    159 H159        1.4021  -18.4823  -41.1599 H         1 UNK         0.3000 
    160 H160       -0.2783  -21.5933  -41.2676 H         1 UNK         0.0600 
    161 H161       -1.3375  -20.8967  -39.1356 H         1 UNK         0.0600 
    162 H162        0.0012  -19.7980  -38.7983 H         1 UNK         0.0600 
    163 H163        0.2702  -21.5365  -38.8358 H         1 UNK         0.0600 
    164 H164       -1.1022  -18.8616  -40.7841 H         1 UNK         0.3000 
    165 H165       -1.3874  -17.9097  -44.1695 H         1 UNK         0.0600 
    166 H166       -3.4642  -19.3006  -43.8304 H         1 UNK         0.0600 
    167 H167       -3.6486  -18.6150  -42.2228 H         1 UNK         0.0600 
    168 H168       -3.7757  -17.5827  -43.6476 H         1 UNK         0.0600 
    169 H169       -2.2838  -16.5063  -41.9582 H         1 UNK         0.3000 
    170 H170       -1.0010  -15.2403  -40.4911 H         1 UNK         0.0600 
    171 H171        1.3923  -15.7477  -39.9686 H         1 UNK         0.0600 
    172 H172        1.0788  -14.0189  -39.9731 H         1 UNK         0.0600 
    173 H173        1.9068  -14.7621  -41.3356 H         1 UNK         0.0600 
    174 H174        0.2405  -13.6269  -42.6415 H         1 UNK         0.3000 
    175 H175       -1.8562  -12.6968  -44.3462 H         1 UNK         0.0600 
    176 H176       -3.1354  -10.6067  -43.7985 H         1 UNK         0.0600 
    177 H177       -4.0120  -12.0617  -43.3550 H         1 UNK         0.0600 
    178 H178       -3.2214  -11.1073  -42.1098 H         1 UNK         0.0600 
    179 H179       -0.0600  -11.4634  -44.0647 H         1 UNK         0.3000 
    180 H180        1.1864   -9.1768  -41.9777 H         1 UNK         0.0600 
    181 H181        2.2773  -11.9987  -41.4641 H         1 UNK         0.0600 
    182 H182        1.8356  -10.8228  -40.2326 H         1 UNK         0.0600 
    183 H183        3.1956  -10.5029  -41.2961 H         1 UNK         0.0600 
    184 H184        2.1706  -11.2953  -43.8273 H         1 UNK         0.3000 
    185 H185        1.8048   -9.2821  -46.6743 H         1 UNK         0.0600 
    186 H186        4.4840   -9.8828  -45.3072 H         1 UNK         0.0600 
    187 H187        4.2462   -9.5604  -47.0255 H         1 UNK         0.0600 
    188 H188        3.9465   -8.2959  -45.8446 H         1 UNK         0.0600 
    189 H189        3.1755  -11.7523  -46.2547 H         1 UNK         0.3000 
    190 H190       -0.6118  -21.0476  -46.9836 H         1 UNK         0.3000 
    191 H191       -3.2715  -20.8290  -48.0646 H         1 UNK         0.0600 
    192 H192       -2.0444  -18.7922  -47.6240 H         1 UNK         0.0600 
    193 H193       -1.7493  -19.2498  -45.9495 H         1 UNK         0.0600 
    194 H194       -3.3758  -18.8313  -46.4836 H         1 UNK         0.0600 
    195 H195       -1.9305  -21.8077  -44.8833 H         1 UNK         0.3000 
    196 H196       -4.4995  -22.3027  -43.6600 H         1 UNK         0.0600 
    197 H197       -3.0850  -23.5392  -41.9646 H         1 UNK         0.0600 
    198 H198       -2.5630  -21.8898  -42.2452 H         1 UNK         0.0600 
    199 H199       -1.6663  -23.2310  -42.9600 H         1 UNK         0.0600 
    200 H200       -2.1528  -24.2959  -45.4702 H         1 UNK         0.3000 
    201 H201       -3.4445  -26.7867  -45.0543 H         1 UNK         0.0600 
    202 H202       -1.0557  -26.5662  -45.6853 H         1 UNK         0.0600 
    203 H203       -1.5114  -25.9358  -47.2676 H         1 UNK         0.0600 
    204 H204       -1.9097  -27.5904  -46.8293 H         1 UNK         0.0600 
    205 H205       -3.5967  -24.5425  -47.9140 H         1 UNK         0.3000 
    206 H206       -6.0845  -25.8399  -48.8383 H         1 UNK         0.0600 
    207 H207       -4.2829  -27.3430  -49.6773 H         1 UNK         0.0600 
    208 H208       -5.0399  -26.4918  -51.0055 H         1 UNK         0.0600 
    209 H209       -3.4627  -25.9723  -50.4179 H         1 UNK         0.0600 
    210 H210       -5.5772  -23.1923  -47.9103 H         1 UNK         0.3000 
    211 H211       -6.3263  -21.1626  -48.2462 H         1 UNK         0.0600 
    212 H212       -7.5795  -22.1920  -50.8379 H         1 UNK         0.0600 
    213 H213       -7.9999  -20.7081  -49.9979 H         1 UNK         0.0600 
    214 H214       -8.3066  -22.2592  -49.2335 H         1 UNK         0.0600 
    215 H215       -4.9738  -22.3179  -51.2914 H         1 UNK         0.3000 
    216 H216       -3.0036  -20.2133  -51.5182 H         1 UNK         0.0600 
    217 H217       -3.8497  -19.3612  -53.7442 H         1 UNK         0.0600 
    218 H218       -4.9002  -18.9139  -52.4148 H         1 UNK         0.0600 
    219 H219       -5.3552  -20.2420  -53.4788 H         1 UNK         0.0600 
    220 H220       -2.7408  -22.8541  -51.0899 H         1 UNK         0.3000 
    221 H221       -1.7925  -24.7619  -51.6883 H         1 UNK         0.0600 
    222 H222       -0.7190  -23.2666  -54.1407 H         1 UNK         0.0600 
    223 H223        0.0315  -23.2602  -52.5489 H         1 UNK         0.0600 
    224 H224       -0.0685  -24.7488  -53.4588 H         1 UNK         0.0600 
    225 H225       -4.5405  -24.2392  -52.6641 H         1 UNK         0.3000 
    226 H226       -6.1707  -24.8942  -53.9724 H         1 UNK         0.0600 
    227 H227       -5.4714  -27.1839  -53.2271 H         1 UNK         0.0600 
    228 H228       -6.2088  -27.2081  -54.8166 H         1 UNK         0.0600 
    229 H229       -4.4641  -27.3436  -54.6643 H         1 UNK         0.0600 
    230 H230       -3.7925  -23.3496  -55.2195 H         1 UNK         0.3000 
    231 H231       -4.2323  -23.9156  -58.1201 H         1 UNK         0.0600 
    232 H232       -1.9126  -24.1895  -57.2222 H         1 UNK         0.0600 
    233 H233       -1.9349  -22.5297  -56.6319 H         1 UNK         0.0600 
    234 H234       -1.9994  -22.8546  -58.3608 H         1 UNK         0.0600 
    235 H235       -5.1512  -21.7277  -55.7123 H         1 UNK         0.3000 
    236 H236       -6.0210  -19.6757  -55.6008 H         1 UNK         0.0600 
    237 H237       -7.4267  -18.8801  -57.4477 H         1 UNK         0.0600 
    238 H238       -6.6328  -19.9598  -58.5852 H         1 UNK         0.0600 
    239 H239       -7.6217  -20.6163  -57.2817 H         1 UNK         0.0600 
    240 H240       -3.1817  -19.9219  -56.1287 H         1 UNK         0.3000 
    241 H241       -1.3426  -18.7944  -56.5073 H         1 UNK         0.0600 
    242 H242       -2.1530  -19.0985  -60.2750 H         1 UNK         0.3800 
    243 H243       -3.0688  -19.8023  -58.9671 H         1 UNK         0.3800 
    244 H244       -1.2501  -16.2962  -56.5727 H         1 UNK         0.0800 
    245 H245       -2.9809  -16.2241  -56.7267 H         1 UNK         0.0800 
    246 H246       -0.1535  -15.8891  -54.1439 H         1 UNK         0.0800 
    247 H247       -0.0174  -17.5529  -54.6641 H         1 UNK         0.0800 
@<TRIPOS>BOND
     1    1    2 1    
     2    1  127 1    
     3    1  128 1    
     4    1  129 1    
     5    2    3 2    
     6    2    4 am   BACKBONE|DICT|INTERRES
     7    4    5 1    
     8    4  130 1    
     9    5    6 1    
    10    5   65 1    
    11    5  131 1    
    12    6    7 1    
    13    6  132 1    
    14    6  133 1    
    15    7    8 1    
    16    8    9 1    
    17    8  134 1    
    18    8  135 1    
    19    9   10 ar   
    20    9   14 ar   
    21   10   11 ar   
    22   10  136 1    
    23   11   12 ar   
    24   11  126 1    
    25   12   13 ar   
    26   12  137 1    
    27   13   14 ar   
    28   13   15 1    
    29   14  138 1    
    30   15   16 1    
    31   15  139 1    
    32   15  140 1    
    33   16   17 1    
    34   17   18 1    
    35   17  141 1    
    36   17  142 1    
    37   18   19 1    
    38   18   67 1    
    39   18  143 1    
    40   19   20 am   BACKBONE|DICT|INTERRES
    41   19  144 1    
    42   20   21 2    
    43   20   22 1    
    44   22   23 1    
    45   22   24 1    
    46   22  145 1    
    47   23  146 1    
    48   23  147 1    
    49   23  148 1    
    50   24   25 am   BACKBONE|DICT|INTERRES
    51   24  149 1    
    52   25   26 2    
    53   25   27 1    
    54   27   28 1    
    55   27   29 1    
    56   27  150 1    
    57   28  151 1    
    58   28  152 1    
    59   28  153 1    
    60   29   30 am   BACKBONE|DICT|INTERRES
    61   29  154 1    
    62   30   31 2    
    63   30   32 1    
    64   32   33 1    
    65   32   34 1    
    66   32  155 1    
    67   33  156 1    
    68   33  157 1    
    69   33  158 1    
    70   34   35 am   BACKBONE|DICT|INTERRES
    71   34  159 1    
    72   35   36 2    
    73   35   37 1    
    74   37   38 1    
    75   37   39 1    
    76   37  160 1    
    77   38  161 1    
    78   38  162 1    
    79   38  163 1    
    80   39   40 am   BACKBONE|DICT|INTERRES
    81   39  164 1    
    82   40   41 2    
    83   40   42 1    
    84   42   43 1    
    85   42   44 1    
    86   42  165 1    
    87   43  166 1    
    88   43  167 1    
    89   43  168 1    
    90   44   45 am   BACKBONE|DICT|INTERRES
    91   44  169 1    
    92   45   46 2    
    93   45   47 1    
    94   47   48 1    
    95   47   49 1    
    96   47  170 1    
    97   48  171 1    
    98   48  172 1    
    99   48  173 1    
   100   49   50 am   BACKBONE|DICT|INTERRES
   101   49  174 1    
   102   50   51 2    
   103   50   52 1    
   104   52   53 1    
   105   52   54 1    
   106   52  175 1    
   107   53  176 1    
   108   53  177 1    
   109   53  178 1    
   110   54   55 am   BACKBONE|DICT|INTERRES
   111   54  179 1    
   112   55   56 2    
   113   55   57 1    
   114   57   58 1    
   115   57   59 1    
   116   57  180 1    
   117   58  181 1    
   118   58  182 1    
   119   58  183 1    
   120   59   60 am   BACKBONE|DICT|INTERRES
   121   59  184 1    
   122   60   61 2    
   123   60   62 1    
   124   62   63 1    
   125   62   64 1    
   126   62  185 1    
   127   63  186 1    
   128   63  187 1    
   129   63  188 1    
   130   64   65 am   BACKBONE|DICT|INTERRES
   131   64  189 1    
   132   65   66 2    
   133   67   68 2    
   134   67   69 am   BACKBONE|DICT|INTERRES
   135   69   70 1    
   136   69  190 1    
   137   70   71 1    
   138   70   72 1    
   139   70  191 1    
   140   71  192 1    
   141   71  193 1    
   142   71  194 1    
   143   72   73 2    
   144   72   74 am   BACKBONE|DICT|INTERRES
   145   74   75 1    
   146   74  195 1    
   147   75   76 1    
   148   75   77 1    
   149   75  196 1    
   150   76  197 1    
   151   76  198 1    
   152   76  199 1    
   153   77   78 2    
   154   77   79 am   BACKBONE|DICT|INTERRES
   155   79   80 1    
   156   79  200 1    
   157   80   81 1    
   158   80   82 1    
   159   80  201 1    
   160   81  202 1    
   161   81  203 1    
   162   81  204 1    
   163   82   83 2    
   164   82   84 am   BACKBONE|DICT|INTERRES
   165   84   85 1    
   166   84  205 1    
   167   85   86 1    
   168   85   87 1    
   169   85  206 1    
   170   86  207 1    
   171   86  208 1    
   172   86  209 1    
   173   87   88 2    
   174   87   89 am   BACKBONE|DICT|INTERRES
   175   89   90 1    
   176   89  210 1    
   177   90   91 1    
   178   90   92 1    
   179   90  211 1    
   180   91  212 1    
   181   91  213 1    
   182   91  214 1    
   183   92   93 2    
   184   92   94 am   BACKBONE|DICT|INTERRES
   185   94   95 1    
   186   94  215 1    
   187   95   96 1    
   188   95   97 1    
   189   95  216 1    
   190   96  217 1    
   191   96  218 1    
   192   96  219 1    
   193   97   98 2    
   194   97   99 am   BACKBONE|DICT|INTERRES
   195   99  100 1    
   196   99  220 1    
   197  100  101 1    
   198  100  102 1    
   199  100  221 1    
   200  101  222 1    
   201  101  223 1    
   202  101  224 1    
   203  102  103 2    
   204  102  104 am   BACKBONE|DICT|INTERRES
   205  104  105 1    
   206  104  225 1    
   207  105  106 1    
   208  105  107 1    
   209  105  226 1    
   210  106  227 1    
   211  106  228 1    
   212  106  229 1    
   213  107  108 2    
   214  107  109 am   BACKBONE|DICT|INTERRES
   215  109  110 1    
   216  109  230 1    
   217  110  111 1    
   218  110  112 1    
   219  110  231 1    
   220  111  232 1    
   221  111  233 1    
   222  111  234 1    
   223  112  113 2    
   224  112  114 am   BACKBONE|DICT|INTERRES
   225  114  115 1    
   226  114  235 1    
   227  115  116 1    
   228  115  117 1    
   229  115  236 1    
   230  116  237 1    
   231  116  238 1    
   232  116  239 1    
   233  117  118 2    
   234  117  119 am   BACKBONE|DICT|INTERRES
   235  119  120 1    
   236  119  240 1    
   237  120  121 1    
   238  120  124 1    
   239  120  241 1    
   240  121  122 am   BACKBONE|DICT|INTERRES
   241  121  123 2    
   242  122  242 1    
   243  122  243 1    
   244  124  125 1    
   245  124  244 1    
   246  124  245 1    
   247  125  126 1    
   248  126  246 1    
   249  126  247 1    
@<TRIPOS>SUBSTRUCTURE
     1 UNK         1 GROUP             0       ****    0 ROOT    
