@<TRIPOS>MOLECULE
3R540
247   249    1
SMALL
USER_CHARGES


@<TRIPOS>ATOM
      1 CA          1.2872  -15.7727  -53.6802 C.3       0 UNK        -0.1800 
      2 C           1.5058  -14.9930  -52.3914 C.2       0 UNK         0.5000 
      3 O           1.9417  -13.8429  -52.4346 O.2       0 UNK        -0.5000 
      4 N           1.2003  -15.6167  -51.2468 N.am      1 UNK        -0.5000 
      5 CA          1.2865  -15.0157  -49.9082 C.3       1 UNK         0.1400 
      6 C6          1.4307  -16.1046  -48.8042 C.3       23 UNK        -0.0398 
      7 S7          2.9982  -16.0014  -47.8731 S.3       23 UNK        -0.2404 
      8 C8          4.2318  -16.5698  -49.0898 C.3       23 UNK        -0.0205 
      9 C9          4.2626  -18.0842  -49.2500 C.ar      23 UNK        -0.0193 
     10 C10         3.4202  -18.7048  -50.1750 C.ar      23 UNK        -0.1150 
     11 C11         3.4676  -20.0868  -50.3661 C.ar      23 UNK        -0.0193 
     12 C12         4.3748  -20.8532  -49.6307 C.ar      23 UNK        -0.1150 
     13 C13         5.2415  -20.2471  -48.7159 C.ar      23 UNK        -0.0193 
     14 C14         5.1740  -18.8611  -48.5242 C.ar      23 UNK        -0.1150 
     15 C15         6.2851  -21.0959  -47.9936 C.3       23 UNK        -0.0205 
     16 S16         6.2603  -20.9277  -46.1788 S.3       23 UNK        -0.2404 
     17 C17         4.5764  -21.4826  -45.7679 C.3       23 UNK        -0.0398 
     18 CA          4.5043  -22.9241  -45.2032 C.3       11 UNK         0.1400 
     19 N           3.3922  -23.0542  -44.2563 N.am      11 UNK        -0.5000 
     20 C           3.1615  -24.0953  -43.4438 C.2       10 UNK         0.5000 
     21 O           3.9126  -25.0662  -43.3463 O.2       10 UNK        -0.5000 
     22 CA          1.8832  -24.0378  -42.5846 C.3       10 UNK         0.1400 
     23 CB          2.1750  -23.3785  -41.2275 C.3       10 UNK        -0.1800 
     24 N           0.8200  -23.2920  -43.2607 N.am      10 UNK        -0.5000 
     25 C          -0.1895  -23.8536  -43.9418 C.2       9 UNK         0.5000 
     26 O          -0.4327  -25.0599  -43.9308 O.2       9 UNK        -0.5000 
     27 CA         -1.0946  -22.9238  -44.7779 C.3       9 UNK         0.1400 
     28 CB         -2.4465  -22.7082  -44.0803 C.3       9 UNK        -0.1800 
     29 N          -0.5025  -21.6198  -45.0784 N.am      9 UNK        -0.5000 
     30 C           0.5705  -21.4206  -45.8547 C.2       8 UNK         0.5000 
     31 O           1.1632  -22.3227  -46.4379 O.2       8 UNK        -0.5000 
     32 CA          1.1173  -19.9847  -45.9438 C.3       8 UNK         0.1400 
     33 CB          0.5069  -19.2582  -47.1395 C.3       8 UNK        -0.1800 
     34 N           0.9051  -19.2007  -44.7265 N.am      8 UNK        -0.5000 
     35 C           1.3863  -19.5202  -43.5166 C.2       7 UNK         0.5000 
     36 O           2.0499  -20.5344  -43.2955 O.2       7 UNK        -0.5000 
     37 CA          1.0222  -18.5754  -42.3613 C.3       7 UNK         0.1400 
     38 CB          1.9488  -17.3500  -42.3454 C.3       7 UNK        -0.1800 
     39 N          -0.3696  -18.1392  -42.4697 N.am      7 UNK        -0.5000 
     40 C          -1.4177  -18.8531  -42.0349 C.2       6 UNK         0.5000 
     41 O          -1.3132  -19.9077  -41.4083 O.2       6 UNK        -0.5000 
     42 CA         -2.8215  -18.3132  -42.3760 C.3       6 UNK         0.1400 
     43 CB         -3.3100  -17.3520  -41.2821 C.3       6 UNK        -0.1800 
     44 N          -2.8855  -17.6361  -43.6732 N.am      6 UNK        -0.5000 
     45 C          -2.6820  -18.2358  -44.8545 C.2       5 UNK         0.5000 
     46 O          -2.4491  -19.4363  -44.9766 O.2       5 UNK        -0.5000 
     47 CA         -2.6909  -17.3384  -46.1074 C.3       5 UNK         0.1400 
     48 CB         -4.1047  -17.2620  -46.6955 C.3       5 UNK        -0.1800 
     49 N          -2.1800  -15.9826  -45.8911 N.am      5 UNK        -0.5000 
     50 C          -0.9907  -15.6571  -45.3623 C.2       4 UNK         0.5000 
     51 O          -0.1748  -16.4994  -44.9849 O.2       4 UNK        -0.5000 
     52 CA         -0.6637  -14.1554  -45.2069 C.3       4 UNK         0.1400 
     53 CB          0.8333  -13.8662  -45.4050 C.3       4 UNK        -0.1800 
     54 N          -1.4454  -13.2998  -46.1047 N.am      4 UNK        -0.5000 
     55 C          -2.6890  -12.8610  -45.8590 C.2       3 UNK         0.5000 
     56 O          -3.3047  -13.1254  -44.8264 O.2       3 UNK        -0.5000 
     57 CA         -3.3828  -12.0183  -46.9481 C.3       3 UNK         0.1400 
     58 CB         -3.3561  -10.5290  -46.5723 C.3       3 UNK        -0.1800 
     59 N          -2.8059  -12.1780  -48.2837 N.am      3 UNK        -0.5000 
     60 C          -2.8506  -13.2949  -49.0219 C.2       2 UNK         0.5000 
     61 O          -3.4003  -14.3340  -48.6559 O.2       2 UNK        -0.5000 
     62 CA         -2.1479  -13.2565  -50.3944 C.3       2 UNK         0.1400 
     63 CB         -1.7933  -11.8358  -50.8877 C.3       2 UNK        -0.1800 
     64 N          -0.9610  -14.1151  -50.4298 N.am      2 UNK        -0.5000 
     65 C           0.1128  -14.0460  -49.6243 C.2       1 UNK         0.5000 
     66 O           0.2076  -13.2509  -48.6882 O.2       1 UNK        -0.5000 
     67 C           4.4172  -23.9735  -46.3350 C.2       11 UNK         0.5000 
     68 O           5.3931  -24.6759  -46.6034 O.2       11 UNK        -0.5000 
     69 N           3.2354  -24.0645  -46.9538 N.am      12 UNK        -0.5000 
     70 CA          2.8363  -25.0673  -47.9351 C.3       12 UNK         0.1400 
     71 CB          2.1127  -24.3479  -49.0890 C.3       12 UNK        -0.1800 
     72 C           1.9231  -26.1125  -47.2638 C.2       12 UNK         0.5000 
     73 O           1.7598  -26.1044  -46.0421 O.2       12 UNK        -0.5000 
     74 N           1.3452  -27.0116  -48.0713 N.am      13 UNK        -0.5000 
     75 CA          0.4225  -28.0545  -47.6130 C.3       13 UNK         0.1400 
     76 CB          0.2511  -29.0979  -48.7281 C.3       13 UNK        -0.1800 
     77 C          -0.9512  -27.5103  -47.1697 C.2       13 UNK         0.5000 
     78 O          -1.5676  -28.0877  -46.2732 O.2       13 UNK        -0.5000 
     79 N          -1.4057  -26.4238  -47.8051 N.am      14 UNK        -0.5000 
     80 CA         -2.6713  -25.7394  -47.5565 C.3       14 UNK         0.1400 
     81 CB         -3.8549  -26.5943  -48.0519 C.3       14 UNK        -0.1800 
     82 C          -2.6435  -24.3862  -48.2817 C.2       14 UNK         0.5000 
     83 O          -1.8345  -24.2010  -49.1954 O.2       14 UNK        -0.5000 
     84 N          -3.5356  -23.4766  -47.8773 N.am      15 UNK        -0.5000 
     85 CA         -3.6993  -22.1449  -48.4510 C.3       15 UNK         0.1400 
     86 CB         -2.5440  -21.2368  -47.9944 C.3       15 UNK        -0.1800 
     87 C          -5.0500  -21.5583  -48.0120 C.2       15 UNK         0.5000 
     88 O          -5.5822  -21.9676  -46.9768 O.2       15 UNK        -0.5000 
     89 N          -5.5617  -20.5950  -48.7857 N.am      16 UNK        -0.5000 
     90 CA         -6.7614  -19.8165  -48.4887 C.3       16 UNK         0.1400 
     91 CB         -8.0040  -20.5377  -49.0359 C.3       16 UNK        -0.1800 
     92 C          -6.6154  -18.4306  -49.1286 C.2       16 UNK         0.5000 
     93 O          -6.1323  -18.3333  -50.2572 O.2       16 UNK        -0.5000 
     94 N          -7.0496  -17.3738  -48.4297 N.am      17 UNK        -0.5000 
     95 CA         -6.9247  -15.9806  -48.8827 C.3       17 UNK         0.1400 
     96 CB         -7.3856  -15.0346  -47.7648 C.3       17 UNK        -0.1800 
     97 C          -7.6746  -15.6859  -50.1975 C.2       17 UNK         0.5000 
     98 O          -7.1976  -14.8894  -51.0060 O.2       17 UNK        -0.5000 
     99 N          -8.7939  -16.3895  -50.4194 N.am      18 UNK        -0.5000 
    100 CA        -9.5834  -16.3578  -51.6539 C.3       18 UNK         0.1400 
    101 CB       -10.9049  -17.1040  -51.4143 C.3       18 UNK        -0.1800 
    102 C         -8.8490  -16.9454  -52.8786 C.2       18 UNK         0.5000 
    103 O         -9.1956  -16.6032  -54.0093 O.2       18 UNK        -0.5000 
    104 N         -7.8440  -17.7974  -52.6359 N.am      19 UNK        -0.5000 
    105 CA        -6.9665  -18.3942  -53.6437 C.3       19 UNK         0.1400 
    106 CB        -6.8027  -19.8900  -53.3200 C.3       19 UNK        -0.1800 
    107 C         -5.6009  -17.6770  -53.7060 C.2       19 UNK         0.5000 
    108 O         -4.6614  -18.2184  -54.2904 O.2       19 UNK        -0.5000 
    109 N         -5.5017  -16.4873  -53.0881 N.am      20 UNK        -0.5000 
    110 CA        -4.2950  -15.6675  -52.9268 C.3       20 UNK         0.1400 
    111 CB        -3.8110  -15.1148  -54.2830 C.3       20 UNK        -0.1800 
    112 C         -3.1862  -16.3986  -52.1413 C.2       20 UNK         0.5000 
    113 O         -2.0025  -16.2435  -52.4478 O.2       20 UNK        -0.5000 
    114 N         -3.6140  -17.1706  -51.1349 N.am      21 UNK        -0.5000 
    115 CA        -2.8722  -18.1511  -50.3542 C.3       21 UNK         0.1400 
    116 CB        -1.4958  -17.6600  -49.8625 C.3       21 UNK        -0.1800 
    117 C         -2.8643  -19.5006  -51.0877 C.2       21 UNK         0.5000 
    118 O         -3.8963  -20.1693  -51.0976 O.2       21 UNK        -0.5000 
    119 N         -1.7156  -19.9128  -51.6285 N.am      22 UNK        -0.5000 
    120 CA        -1.4743  -21.2759  -52.1362 C.3       22 UNK         0.1400 
    121 C         -2.1968  -21.6518  -53.4667 C.2       22 UNK         0.5000 
    122 N         -2.9432  -20.7641  -54.1106 N.am      22 UNK        -0.7600 
    123 O         -2.0775  -22.7831  -53.9290 O.2       22 UNK        -0.5000 
    124 C124        0.0406  -21.5964  -52.2222 C.3       23 UNK        -0.0398 
    125 S125        0.9562  -21.1871  -50.6952 S.3       23 UNK        -0.2404 
    126 C126        2.5680  -20.7374  -51.4018 C.3       23 UNK        -0.0205 
    127 H127        2.2257  -15.8700  -54.2258 H         1 UNK         0.0600 
    128 H128        0.5721  -15.2502  -54.3158 H         1 UNK         0.0600 
    129 H129        0.8983  -16.7731  -53.4882 H         1 UNK         0.0600 
    130 H130        0.8257  -16.5517  -51.2930 H         1 UNK         0.3000 
    131 H131        2.1803  -14.3883  -49.8949 H         1 UNK         0.0600 
    132 H132        1.3426  -17.1093  -49.2141 H         1 UNK         0.0800 
    133 H133        0.6272  -16.0390  -48.0682 H         1 UNK         0.0800 
    134 H134        4.0469  -16.0942  -50.0541 H         1 UNK         0.0800 
    135 H135        5.2141  -16.2188  -48.7702 H         1 UNK         0.0800 
    136 H136        2.7372  -18.1102  -50.7634 H         1 UNK         0.1150 
    137 H137        4.4251  -21.9202  -49.7938 H         1 UNK         0.1150 
    138 H138        5.8475  -18.3854  -47.8252 H         1 UNK         0.1150 
    139 H139        6.1673  -22.1514  -48.2443 H         1 UNK         0.0800 
    140 H140        7.2732  -20.8078  -48.3546 H         1 UNK         0.0800 
    141 H141        4.2193  -20.7743  -45.0192 H         1 UNK         0.0800 
    142 H142        3.9174  -21.3573  -46.6272 H         1 UNK         0.0800 
    143 H143        5.4167  -23.1222  -44.6366 H         1 UNK         0.0600 
    144 H144        2.7530  -22.2716  -44.2100 H         1 UNK         0.3000 
    145 H145        1.5647  -25.0653  -42.3971 H         1 UNK         0.0600 
    146 H146        1.2842  -23.3604  -40.5995 H         1 UNK         0.0600 
    147 H147        2.9447  -23.9288  -40.6849 H         1 UNK         0.0600 
    148 H148        2.5250  -22.3520  -41.3412 H         1 UNK         0.0600 
    149 H149        0.9359  -22.2865  -43.3026 H         1 UNK         0.3000 
    150 H150       -1.2770  -23.4289  -45.7279 H         1 UNK         0.0600 
    151 H151       -2.9234  -23.6600  -43.8432 H         1 UNK         0.0600 
    152 H152       -3.1359  -22.1522  -44.7161 H         1 UNK         0.0600 
    153 H153       -2.3310  -22.1546  -43.1476 H         1 UNK         0.0600 
    154 H154       -0.9837  -20.8075  -44.7061 H         1 UNK         0.3000 
    155 H155        2.1925  -20.0293  -46.1044 H         1 UNK         0.0600 
    156 H156        0.7341  -18.1950  -47.1117 H         1 UNK         0.0600 
    157 H157       -0.5729  -19.3796  -47.1565 H         1 UNK         0.0600 
    158 H158        0.8982  -19.6586  -48.0751 H         1 UNK         0.0600 
    159 H159        0.4032  -18.3234  -44.8294 H         1 UNK         0.3000 
    160 H160        1.1622  -19.1171  -41.4233 H         1 UNK         0.0600 
    161 H161        1.8747  -16.7697  -43.2656 H         1 UNK         0.0600 
    162 H162        2.9906  -17.6530  -42.2335 H         1 UNK         0.0600 
    163 H163        1.7114  -16.6882  -41.5124 H         1 UNK         0.0600 
    164 H164       -0.5390  -17.3186  -43.0372 H         1 UNK         0.3000 
    165 H165       -3.5020  -19.1667  -42.4106 H         1 UNK         0.0600 
    166 H166       -2.6829  -16.4619  -41.2184 H         1 UNK         0.0600 
    167 H167       -4.3344  -17.0293  -41.4690 H         1 UNK         0.0600 
    168 H168       -3.2960  -17.8345  -40.3038 H         1 UNK         0.0600 
    169 H169       -3.0683  -16.6434  -43.6629 H         1 UNK         0.3000 
    170 H170       -2.0493  -17.8018  -46.8536 H         1 UNK         0.0600 
    171 H171       -4.5050  -18.2607  -46.8738 H         1 UNK         0.0600 
    172 H172       -4.7933  -16.7441  -46.0272 H         1 UNK         0.0600 
    173 H173       -4.1042  -16.7369  -47.6499 H         1 UNK         0.0600 
    174 H174       -2.7811  -15.2280  -46.1904 H         1 UNK         0.3000 
    175 H175       -0.9067  -13.8943  -44.1751 H         1 UNK         0.0600 
    176 H176        1.4417  -14.4182  -44.6874 H         1 UNK         0.0600 
    177 H177        1.1689  -14.1485  -46.4013 H         1 UNK         0.0600 
    178 H178        1.0524  -12.8075  -45.2663 H         1 UNK         0.0600 
    179 H179       -1.0136  -13.0775  -46.9961 H         1 UNK         0.3000 
    180 H180       -4.4250  -12.3416  -46.9929 H         1 UNK         0.0600 
    181 H181       -2.3367  -10.1429  -46.5317 H         1 UNK         0.0600 
    182 H182       -3.8089  -10.3638  -45.5937 H         1 UNK         0.0600 
    183 H183       -3.9148   -9.9299  -47.2917 H         1 UNK         0.0600 
    184 H184       -2.3050  -11.3832  -48.6535 H         1 UNK         0.3000 
    185 H185       -2.8582  -13.6734  -51.1062 H         1 UNK         0.0600 
    186 H186       -1.3929  -11.8693  -51.9012 H         1 UNK         0.0600 
    187 H187       -2.6759  -11.1954  -50.9152 H         1 UNK         0.0600 
    188 H188       -1.0460  -11.3507  -50.2589 H         1 UNK         0.0600 
    189 H189       -0.9690  -14.8284  -51.1499 H         1 UNK         0.3000 
    190 H190        2.4759  -23.4598  -46.6409 H         1 UNK         0.3000 
    191 H191        3.7132  -25.5830  -48.3308 H         1 UNK         0.0600 
    192 H192        1.8805  -25.0291  -49.9075 H         1 UNK         0.0600 
    193 H193        2.7306  -23.5530  -49.5046 H         1 UNK         0.0600 
    194 H194        1.1753  -23.8967  -48.7591 H         1 UNK         0.0600 
    195 H195        1.5290  -26.9745  -49.0633 H         1 UNK         0.3000 
    196 H196        0.8719  -28.5529  -46.7513 H         1 UNK         0.0600 
    197 H197       -0.4118  -29.9037  -48.4099 H         1 UNK         0.0600 
    198 H198        1.2059  -29.5512  -48.9953 H         1 UNK         0.0600 
    199 H199       -0.1772  -28.6579  -49.6296 H         1 UNK         0.0600 
    200 H200       -0.8370  -25.9819  -48.5170 H         1 UNK         0.3000 
    201 H201       -2.7677  -25.5568  -46.4841 H         1 UNK         0.0600 
    202 H202       -3.9228  -27.5390  -47.5128 H         1 UNK         0.0600 
    203 H203       -3.7652  -26.8221  -49.1148 H         1 UNK         0.0600 
    204 H204       -4.8036  -26.0765  -47.9061 H         1 UNK         0.0600 
    205 H205       -4.2027  -23.6933  -47.1467 H         1 UNK         0.3000 
    206 H206       -3.6987  -22.2323  -49.5386 H         1 UNK         0.0600 
    207 H207       -1.5907  -21.5500  -48.4210 H         1 UNK         0.0600 
    208 H208       -2.7068  -20.2010  -48.2822 H         1 UNK         0.0600 
    209 H209       -2.4499  -21.2490  -46.9111 H         1 UNK         0.0600 
    210 H210       -5.0776  -20.3243  -49.6417 H         1 UNK         0.3000 
    211 H211       -6.8582  -19.6930  -47.4080 H         1 UNK         0.0600 
    212 H212       -7.9383  -20.6862  -50.1149 H         1 UNK         0.0600 
    213 H213       -8.9104  -19.9649  -48.8362 H         1 UNK         0.0600 
    214 H214       -8.1289  -21.5159  -48.5712 H         1 UNK         0.0600 
    215 H215       -7.4583  -17.5159  -47.5171 H         1 UNK         0.3000 
    216 H216       -5.8661  -15.7875  -49.0701 H         1 UNK         0.0600 
    217 H217       -7.2824  -13.9920  -48.0691 H         1 UNK         0.0600 
    218 H218       -6.7858  -15.1677  -46.8643 H         1 UNK         0.0600 
    219 H219       -8.4312  -15.1997  -47.5022 H         1 UNK         0.0600 
    220 H220       -9.1049  -17.0269  -49.7011 H         1 UNK         0.3000 
    221 H221       -9.8138  -15.3147  -51.8802 H         1 UNK         0.0600 
    222 H222      -10.7351  -18.1520  -51.1637 H         1 UNK         0.0600 
    223 H223      -11.4726  -16.6509  -50.6013 H         1 UNK         0.0600 
    224 H224      -11.5362  -17.0772  -52.3035 H         1 UNK         0.0600 
    225 H225       -7.5848  -17.9911  -51.6752 H         1 UNK         0.3000 
    226 H226       -7.4165  -18.3112  -54.6347 H         1 UNK         0.0600 
    227 H227       -7.7686  -20.3938  -53.2865 H         1 UNK         0.0600 
    228 H228       -6.2007  -20.3951  -54.0762 H         1 UNK         0.0600 
    229 H229       -6.3131  -20.0426  -52.3579 H         1 UNK         0.0600 
    230 H230       -6.3265  -16.1292  -52.6226 H         1 UNK         0.3000 
    231 H231       -4.5929  -14.8167  -52.3131 H         1 UNK         0.0600 
    232 H232       -3.0023  -14.3961  -54.1448 H         1 UNK         0.0600 
    233 H233       -4.6151  -14.6005  -54.8090 H         1 UNK         0.0600 
    234 H234       -3.4356  -15.9057  -54.9331 H         1 UNK         0.0600 
    235 H235       -4.6185  -17.2641  -51.0221 H         1 UNK         0.3000 
    236 H236       -3.4740  -18.3067  -49.4592 H         1 UNK         0.0600 
    237 H237       -1.5935  -16.7334  -49.2970 H         1 UNK         0.0600 
    238 H238       -1.0478  -18.3990  -49.2030 H         1 UNK         0.0600 
    239 H239       -0.7902  -17.4967  -50.6736 H         1 UNK         0.0600 
    240 H240       -0.9103  -19.3075  -51.5938 H         1 UNK         0.3000 
    241 H241       -1.8902  -21.9571  -51.3908 H         1 UNK         0.0600 
    242 H242       -3.1159  -19.8430  -53.7337 H         1 UNK         0.3800 
    243 H243       -3.3980  -21.0350  -54.9672 H         1 UNK         0.3800 
    244 H244        0.1950  -22.6577  -52.4247 H         1 UNK         0.0800 
    245 H245        0.4811  -21.0585  -53.0632 H         1 UNK         0.0800 
    246 H246        2.4279  -20.0517  -52.2388 H         1 UNK         0.0800 
    247 H247        3.0433  -21.6303  -51.8108 H         1 UNK         0.0800 
@<TRIPOS>BOND
     1    1    2 1    
     2    1  127 1    
     3    1  128 1    
     4    1  129 1    
     5    2    3 2    
     6    2    4 am   BACKBONE|DICT|INTERRES
     7    4    5 1    
     8    4  130 1    
     9    5    6 1    
    10    5   65 1    
    11    5  131 1    
    12    6    7 1    
    13    6  132 1    
    14    6  133 1    
    15    7    8 1    
    16    8    9 1    
    17    8  134 1    
    18    8  135 1    
    19    9   10 ar   
    20    9   14 ar   
    21   10   11 ar   
    22   10  136 1    
    23   11   12 ar   
    24   11  126 1    
    25   12   13 ar   
    26   12  137 1    
    27   13   14 ar   
    28   13   15 1    
    29   14  138 1    
    30   15   16 1    
    31   15  139 1    
    32   15  140 1    
    33   16   17 1    
    34   17   18 1    
    35   17  141 1    
    36   17  142 1    
    37   18   19 1    
    38   18   67 1    
    39   18  143 1    
    40   19   20 am   BACKBONE|DICT|INTERRES
    41   19  144 1    
    42   20   21 2    
    43   20   22 1    
    44   22   23 1    
    45   22   24 1    
    46   22  145 1    
    47   23  146 1    
    48   23  147 1    
    49   23  148 1    
    50   24   25 am   BACKBONE|DICT|INTERRES
    51   24  149 1    
    52   25   26 2    
    53   25   27 1    
    54   27   28 1    
    55   27   29 1    
    56   27  150 1    
    57   28  151 1    
    58   28  152 1    
    59   28  153 1    
    60   29   30 am   BACKBONE|DICT|INTERRES
    61   29  154 1    
    62   30   31 2    
    63   30   32 1    
    64   32   33 1    
    65   32   34 1    
    66   32  155 1    
    67   33  156 1    
    68   33  157 1    
    69   33  158 1    
    70   34   35 am   BACKBONE|DICT|INTERRES
    71   34  159 1    
    72   35   36 2    
    73   35   37 1    
    74   37   38 1    
    75   37   39 1    
    76   37  160 1    
    77   38  161 1    
    78   38  162 1    
    79   38  163 1    
    80   39   40 am   BACKBONE|DICT|INTERRES
    81   39  164 1    
    82   40   41 2    
    83   40   42 1    
    84   42   43 1    
    85   42   44 1    
    86   42  165 1    
    87   43  166 1    
    88   43  167 1    
    89   43  168 1    
    90   44   45 am   BACKBONE|DICT|INTERRES
    91   44  169 1    
    92   45   46 2    
    93   45   47 1    
    94   47   48 1    
    95   47   49 1    
    96   47  170 1    
    97   48  171 1    
    98   48  172 1    
    99   48  173 1    
   100   49   50 am   BACKBONE|DICT|INTERRES
   101   49  174 1    
   102   50   51 2    
   103   50   52 1    
   104   52   53 1    
   105   52   54 1    
   106   52  175 1    
   107   53  176 1    
   108   53  177 1    
   109   53  178 1    
   110   54   55 am   BACKBONE|DICT|INTERRES
   111   54  179 1    
   112   55   56 2    
   113   55   57 1    
   114   57   58 1    
   115   57   59 1    
   116   57  180 1    
   117   58  181 1    
   118   58  182 1    
   119   58  183 1    
   120   59   60 am   BACKBONE|DICT|INTERRES
   121   59  184 1    
   122   60   61 2    
   123   60   62 1    
   124   62   63 1    
   125   62   64 1    
   126   62  185 1    
   127   63  186 1    
   128   63  187 1    
   129   63  188 1    
   130   64   65 am   BACKBONE|DICT|INTERRES
   131   64  189 1    
   132   65   66 2    
   133   67   68 2    
   134   67   69 am   BACKBONE|DICT|INTERRES
   135   69   70 1    
   136   69  190 1    
   137   70   71 1    
   138   70   72 1    
   139   70  191 1    
   140   71  192 1    
   141   71  193 1    
   142   71  194 1    
   143   72   73 2    
   144   72   74 am   BACKBONE|DICT|INTERRES
   145   74   75 1    
   146   74  195 1    
   147   75   76 1    
   148   75   77 1    
   149   75  196 1    
   150   76  197 1    
   151   76  198 1    
   152   76  199 1    
   153   77   78 2    
   154   77   79 am   BACKBONE|DICT|INTERRES
   155   79   80 1    
   156   79  200 1    
   157   80   81 1    
   158   80   82 1    
   159   80  201 1    
   160   81  202 1    
   161   81  203 1    
   162   81  204 1    
   163   82   83 2    
   164   82   84 am   BACKBONE|DICT|INTERRES
   165   84   85 1    
   166   84  205 1    
   167   85   86 1    
   168   85   87 1    
   169   85  206 1    
   170   86  207 1    
   171   86  208 1    
   172   86  209 1    
   173   87   88 2    
   174   87   89 am   BACKBONE|DICT|INTERRES
   175   89   90 1    
   176   89  210 1    
   177   90   91 1    
   178   90   92 1    
   179   90  211 1    
   180   91  212 1    
   181   91  213 1    
   182   91  214 1    
   183   92   93 2    
   184   92   94 am   BACKBONE|DICT|INTERRES
   185   94   95 1    
   186   94  215 1    
   187   95   96 1    
   188   95   97 1    
   189   95  216 1    
   190   96  217 1    
   191   96  218 1    
   192   96  219 1    
   193   97   98 2    
   194   97   99 am   BACKBONE|DICT|INTERRES
   195   99  100 1    
   196   99  220 1    
   197  100  101 1    
   198  100  102 1    
   199  100  221 1    
   200  101  222 1    
   201  101  223 1    
   202  101  224 1    
   203  102  103 2    
   204  102  104 am   BACKBONE|DICT|INTERRES
   205  104  105 1    
   206  104  225 1    
   207  105  106 1    
   208  105  107 1    
   209  105  226 1    
   210  106  227 1    
   211  106  228 1    
   212  106  229 1    
   213  107  108 2    
   214  107  109 am   BACKBONE|DICT|INTERRES
   215  109  110 1    
   216  109  230 1    
   217  110  111 1    
   218  110  112 1    
   219  110  231 1    
   220  111  232 1    
   221  111  233 1    
   222  111  234 1    
   223  112  113 2    
   224  112  114 am   BACKBONE|DICT|INTERRES
   225  114  115 1    
   226  114  235 1    
   227  115  116 1    
   228  115  117 1    
   229  115  236 1    
   230  116  237 1    
   231  116  238 1    
   232  116  239 1    
   233  117  118 2    
   234  117  119 am   BACKBONE|DICT|INTERRES
   235  119  120 1    
   236  119  240 1    
   237  120  121 1    
   238  120  124 1    
   239  120  241 1    
   240  121  122 am   BACKBONE|DICT|INTERRES
   241  121  123 2    
   242  122  242 1    
   243  122  243 1    
   244  124  125 1    
   245  124  244 1    
   246  124  245 1    
   247  125  126 1    
   248  126  246 1    
   249  126  247 1    
@<TRIPOS>SUBSTRUCTURE
     1 UNK         1 GROUP             0       ****    0 ROOT    
