@<TRIPOS>MOLECULE
3R540
247   249    1
SMALL
USER_CHARGES


@<TRIPOS>ATOM
      1 CA         -1.0863  -14.0316  -47.9922 C.3       0 UNK        -0.1800 
      2 C          -0.5235  -13.0201  -48.9794 C.2       0 UNK         0.5000 
      3 O          -1.0877  -11.9393  -49.1483 O.2       0 UNK        -0.5000 
      4 N           0.6025  -13.3556  -49.6190 N.am      1 UNK        -0.5000 
      5 CA          1.2691  -12.5770  -50.6756 C.3       1 UNK         0.1400 
      6 C6          2.0755  -13.4899  -51.6421 C.3       23 UNK        -0.0398 
      7 S7          1.1161  -14.9209  -52.2493 S.3       23 UNK        -0.2404 
      8 C8          1.7498  -16.2179  -51.1310 C.3       23 UNK        -0.0205 
      9 C9          0.7605  -17.3526  -50.9037 C.ar      23 UNK        -0.0193 
     10 C10        -0.5594  -17.0861  -50.5254 C.ar      23 UNK        -0.1150 
     11 C11        -1.4550  -18.1311  -50.2832 C.ar      23 UNK        -0.0193 
     12 C12        -1.0169  -19.4523  -50.3938 C.ar      23 UNK        -0.1150 
     13 C13         0.3073  -19.7314  -50.7386 C.ar      23 UNK        -0.0193 
     14 C14         1.1858  -18.6795  -51.0112 C.ar      23 UNK        -0.1150 
     15 C15         0.7987  -21.1690  -50.7709 C.3       23 UNK        -0.0205 
     16 S16         2.0285  -21.5075  -49.4663 S.3       23 UNK        -0.2404 
     17 C17         1.1708  -21.0069  -47.9296 C.3       23 UNK        -0.0398 
     18 CA          0.4913  -22.1976  -47.2149 C.3       11 UNK         0.1400 
     19 N           0.4957  -22.0565  -45.7569 N.am      11 UNK        -0.5000 
     20 C           0.1975  -23.0528  -44.9115 C.2       10 UNK         0.5000 
     21 O          -0.1017  -24.1890  -45.2802 O.2       10 UNK        -0.5000 
     22 CA          0.1767  -22.7123  -43.4117 C.3       10 UNK         0.1400 
     23 CB          1.6021  -22.6336  -42.8453 C.3       10 UNK        -0.1800 
     24 N          -0.5405  -21.4673  -43.1363 N.am      10 UNK        -0.5000 
     25 C          -1.8517  -21.2908  -43.3559 C.2       9 UNK         0.5000 
     26 O          -2.6017  -22.1784  -43.7600 O.2       9 UNK        -0.5000 
     27 CA         -2.4192  -19.8809  -43.1177 C.3       9 UNK         0.1400 
     28 CB         -2.7283  -19.6689  -41.6284 C.3       9 UNK        -0.1800 
     29 N          -1.5377  -18.8163  -43.5998 N.am      9 UNK        -0.5000 
     30 C          -1.1845  -18.6400  -44.8821 C.2       8 UNK         0.5000 
     31 O          -1.5734  -19.3533  -45.8054 O.2       8 UNK        -0.5000 
     32 CA         -0.1805  -17.5131  -45.1786 C.3       8 UNK         0.1400 
     33 CB         -0.8580  -16.1369  -45.1096 C.3       8 UNK        -0.1800 
     34 N           0.9632  -17.5398  -44.2705 N.am      8 UNK        -0.5000 
     35 C           1.8258  -18.5583  -44.1521 C.2       7 UNK         0.5000 
     36 O           1.7839  -19.5810  -44.8369 O.2       7 UNK        -0.5000 
     37 CA          2.8783  -18.4308  -43.0393 C.3       7 UNK         0.1400 
     38 CB          4.0363  -17.5198  -43.4761 C.3       7 UNK        -0.1800 
     39 N           2.2940  -17.9259  -41.7964 N.am      7 UNK        -0.5000 
     40 C           1.4304  -18.6107  -41.0330 C.2       6 UNK         0.5000 
     41 O           1.0518  -19.7544  -41.2845 O.2       6 UNK        -0.5000 
     42 CA          0.8705  -17.8800  -39.7992 C.3       6 UNK         0.1400 
     43 CB          1.8606  -17.9559  -38.6274 C.3       6 UNK        -0.1800 
     44 N           0.5466  -16.4790  -40.0722 N.am      6 UNK        -0.5000 
     45 C          -0.4379  -16.0788  -40.8887 C.2       5 UNK         0.5000 
     46 O          -1.1870  -16.8492  -41.4872 O.2       5 UNK        -0.5000 
     47 CA         -0.5787  -14.5622  -41.1123 C.3       5 UNK         0.1400 
     48 CB         -1.4041  -13.9237  -39.9853 C.3       5 UNK        -0.1800 
     49 N           0.7013  -13.8580  -41.2395 N.am      5 UNK        -0.5000 
     50 C           1.6297  -14.1281  -42.1659 C.2       4 UNK         0.5000 
     51 O           1.5557  -15.0728  -42.9554 O.2       4 UNK        -0.5000 
     52 CA          2.8653  -13.2099  -42.1979 C.3       4 UNK         0.1400 
     53 CB          3.9714  -13.7792  -41.2962 C.3       4 UNK        -0.1800 
     54 N           3.3850  -13.0752  -43.5593 N.am      4 UNK        -0.5000 
     55 C           2.7259  -12.4865  -44.5653 C.2       3 UNK         0.5000 
     56 O           1.6747  -11.8552  -44.4205 O.2       3 UNK        -0.5000 
     57 CA          3.3272  -12.6865  -45.9679 C.3       3 UNK         0.1400 
     58 CB          3.1016  -14.1330  -46.4451 C.3       3 UNK        -0.1800 
     59 N           2.7177  -11.7903  -46.9452 N.am      3 UNK        -0.5000 
     60 C           3.0252  -10.5014  -47.1402 C.2       2 UNK         0.5000 
     61 O           3.9169   -9.9134  -46.5255 O.2       2 UNK        -0.5000 
     62 CA          2.1839   -9.7527  -48.2030 C.3       2 UNK         0.1400 
     63 CB          2.9696   -8.6308  -48.9137 C.3       2 UNK        -0.1800 
     64 N           1.5464  -10.6628  -49.1674 N.am      2 UNK        -0.5000 
     65 C           2.1519  -11.4701  -50.0522 C.2       1 UNK         0.5000 
     66 O           3.3556  -11.4191  -50.3096 O.2       1 UNK        -0.5000 
     67 C          -0.9244  -22.4738  -47.7629 C.2       11 UNK         0.5000 
     68 O          -1.0731  -23.3341  -48.6265 O.2       11 UNK        -0.5000 
     69 N          -1.9444  -21.8014  -47.2109 N.am      12 UNK        -0.5000 
     70 CA         -3.3580  -22.0074  -47.5393 C.3       12 UNK         0.1400 
     71 CB         -4.1888  -20.8686  -46.9286 C.3       12 UNK        -0.1800 
     72 C          -3.9254  -23.3701  -47.0927 C.2       12 UNK         0.5000 
     73 O          -4.9779  -23.7700  -47.5939 O.2       12 UNK        -0.5000 
     74 N          -3.2445  -24.0452  -46.1574 N.am      13 UNK        -0.5000 
     75 CA         -3.5438  -25.4113  -45.7365 C.3       13 UNK         0.1400 
     76 CB         -3.1740  -25.5890  -44.2561 C.3       13 UNK        -0.1800 
     77 C          -2.8052  -26.4349  -46.6157 C.2       13 UNK         0.5000 
     78 O          -3.3910  -27.4608  -46.9615 O.2       13 UNK        -0.5000 
     79 N          -1.5450  -26.1396  -46.9715 N.am      14 UNK        -0.5000 
     80 CA         -0.7154  -26.9482  -47.8685 C.3       14 UNK         0.1400 
     81 CB          0.7317  -26.4315  -47.8378 C.3       14 UNK        -0.1800 
     82 C          -1.2706  -26.9662  -49.3043 C.2       14 UNK         0.5000 
     83 O          -1.5056  -28.0398  -49.8605 O.2       14 UNK        -0.5000 
     84 N          -1.5321  -25.7732  -49.8496 N.am      15 UNK        -0.5000 
     85 CA         -2.3137  -25.5453  -51.0585 C.3       15 UNK         0.1400 
     86 CB         -1.7298  -24.3370  -51.8103 C.3       15 UNK        -0.1800 
     87 C          -3.7672  -25.3310  -50.6068 C.2       15 UNK         0.5000 
     88 O          -4.2337  -24.1920  -50.5383 O.2       15 UNK        -0.5000 
     89 N          -4.3994  -26.4479  -50.2198 N.am      16 UNK        -0.5000 
     90 CA         -5.6571  -26.5536  -49.4794 C.3       16 UNK         0.1400 
     91 CB         -6.0884  -28.0278  -49.4489 C.3       16 UNK        -0.1800 
     92 C          -6.8055  -25.6713  -49.9992 C.2       16 UNK         0.5000 
     93 O          -7.0244  -25.5904  -51.2099 O.2       16 UNK        -0.5000 
     94 N          -7.5259  -25.0618  -49.0478 N.am      17 UNK        -0.5000 
     95 CA         -8.6364  -24.1243  -49.2348 C.3       17 UNK         0.1400 
     96 CB         -9.8315  -24.8037  -49.9377 C.3       17 UNK        -0.1800 
     97 C          -8.2008  -22.8039  -49.9045 C.2       17 UNK         0.5000 
     98 O          -8.9811  -22.2142  -50.6543 O.2       17 UNK        -0.5000 
     99 N          -6.9714  -22.3582  -49.5968 N.am      18 UNK        -0.5000 
    100 CA        -6.3326  -21.1325  -50.0889 C.3       18 UNK         0.1400 
    101 CB        -7.0497  -19.8804  -49.5403 C.3       18 UNK        -0.1800 
    102 C         -6.1725  -21.1270  -51.6219 C.2       18 UNK         0.5000 
    103 O         -6.6307  -20.2046  -52.2997 O.2       18 UNK        -0.5000 
    104 N         -5.5327  -22.1829  -52.1345 N.am      19 UNK        -0.5000 
    105 CA        -5.1069  -22.3042  -53.5249 C.3       19 UNK         0.1400 
    106 CB        -5.2066  -23.7854  -53.9366 C.3       19 UNK        -0.1800 
    107 C         -3.6859  -21.7264  -53.7066 C.2       19 UNK         0.5000 
    108 O         -3.1688  -21.0464  -52.8175 O.2       19 UNK        -0.5000 
    109 N         -3.0763  -22.0141  -54.8644 N.am      20 UNK        -0.5000 
    110 CA        -1.7616  -21.5404  -55.3052 C.3       20 UNK         0.1400 
    111 CB        -0.6278  -22.0605  -54.3902 C.3       20 UNK        -0.1800 
    112 C         -1.7539  -20.0157  -55.5414 C.2       20 UNK         0.5000 
    113 O         -2.6666  -19.5095  -56.1979 O.2       20 UNK        -0.5000 
    114 N         -0.7176  -19.3188  -55.0573 N.am      21 UNK        -0.5000 
    115 CA        -0.4023  -17.9256  -55.3831 C.3       21 UNK         0.1400 
    116 CB         0.9546  -17.5637  -54.7653 C.3       21 UNK        -0.1800 
    117 C         -1.4805  -16.8889  -55.0082 C.2       21 UNK         0.5000 
    118 O         -1.5726  -15.8648  -55.6873 O.2       21 UNK        -0.5000 
    119 N         -2.2899  -17.1686  -53.9777 N.am      22 UNK        -0.5000 
    120 CA        -3.4705  -16.3609  -53.6241 C.3       22 UNK         0.1400 
    121 C         -4.7611  -16.7112  -54.4263 C.2       22 UNK         0.5000 
    122 N         -4.7575  -17.6893  -55.3249 N.am      22 UNK        -0.7600 
    123 O         -5.7866  -16.0575  -54.2531 O.2       22 UNK        -0.5000 
    124 C124       -3.7138  -16.2940  -52.0945 C.3       23 UNK        -0.0398 
    125 S125       -4.0193  -17.9084  -51.2978 S.3       23 UNK        -0.2404 
    126 C126       -2.8893  -17.8429  -49.8749 C.3       23 UNK        -0.0205 
    127 H127       -1.1298  -13.5960  -46.9940 H         1 UNK         0.0600 
    128 H128       -0.4767  -14.9345  -47.9457 H         1 UNK         0.0600 
    129 H129       -2.0960  -14.3196  -48.2848 H         1 UNK         0.0600 
    130 H130        1.0241  -14.2501  -49.4223 H         1 UNK         0.3000 
    131 H131        0.5017  -12.0749  -51.2688 H         1 UNK         0.0600 
    132 H132        2.4015  -12.9139  -52.5097 H         1 UNK         0.0800 
    133 H133        2.9888  -13.8558  -51.1692 H         1 UNK         0.0800 
    134 H134        1.9958  -15.7944  -50.1574 H         1 UNK         0.0800 
    135 H135        2.6857  -16.5972  -51.5445 H         1 UNK         0.0800 
    136 H136       -0.8873  -16.0623  -50.4198 H         1 UNK         0.1150 
    137 H137       -1.7052  -20.2621  -50.1934 H         1 UNK         0.1150 
    138 H138        2.2115  -18.8988  -51.2728 H         1 UNK         0.1150 
    139 H139       -0.0331  -21.8668  -50.6717 H         1 UNK         0.0800 
    140 H140        1.2514  -21.3707  -51.7424 H         1 UNK         0.0800 
    141 H141        0.4776  -20.1818  -48.0972 H         1 UNK         0.0800 
    142 H142        1.9500  -20.5931  -47.2890 H         1 UNK         0.0800 
    143 H143        1.0874  -23.0892  -47.4215 H         1 UNK         0.0600 
    144 H144        0.7549  -21.1478  -45.3821 H         1 UNK         0.3000 
    145 H145       -0.3464  -23.5207  -42.8965 H         1 UNK         0.0600 
    146 H146        1.5879  -22.4850  -41.7655 H         1 UNK         0.0600 
    147 H147        2.1511  -23.5558  -43.0392 H         1 UNK         0.0600 
    148 H148        2.1690  -21.8140  -43.2872 H         1 UNK         0.0600 
    149 H149        0.0035  -20.7024  -42.7507 H         1 UNK         0.3000 
    150 H150       -3.3577  -19.8062  -43.6704 H         1 UNK         0.0600 
    151 H151       -3.3829  -20.4542  -41.2483 H         1 UNK         0.0600 
    152 H152       -3.2339  -18.7175  -41.4631 H         1 UNK         0.0600 
    153 H153       -1.8204  -19.6755  -41.0244 H         1 UNK         0.0600 
    154 H154       -1.2000  -18.1610  -42.9002 H         1 UNK         0.3000 
    155 H155        0.1967  -17.6582  -46.1932 H         1 UNK         0.0600 
    156 H156       -1.2527  -15.9302  -44.1149 H         1 UNK         0.0600 
    157 H157       -1.6896  -16.0762  -45.8125 H         1 UNK         0.0600 
    158 H158       -0.1563  -15.3407  -45.3584 H         1 UNK         0.0600 
    159 H159        1.0996  -16.7177  -43.6862 H         1 UNK         0.3000 
    160 H160        3.2833  -19.4264  -42.8458 H         1 UNK         0.0600 
    161 H161        4.8086  -17.4687  -42.7086 H         1 UNK         0.0600 
    162 H162        3.7002  -16.5034  -43.6815 H         1 UNK         0.0600 
    163 H163        4.5059  -17.8981  -44.3850 H         1 UNK         0.0600 
    164 H164        2.4988  -16.9680  -41.5548 H         1 UNK         0.3000 
    165 H165       -0.0488  -18.3888  -39.5013 H         1 UNK         0.0600 
    166 H166        1.4386  -17.5120  -37.7257 H         1 UNK         0.0600 
    167 H167        2.1081  -18.9922  -38.3930 H         1 UNK         0.0600 
    168 H168        2.7939  -17.4380  -38.8520 H         1 UNK         0.0600 
    169 H169        1.1199  -15.7780  -39.6267 H         1 UNK         0.3000 
    170 H170       -1.1211  -14.4218  -42.0495 H         1 UNK         0.0600 
    171 H171       -2.3703  -14.4192  -39.8801 H         1 UNK         0.0600 
    172 H172       -0.8942  -13.9910  -39.0235 H         1 UNK         0.0600 
    173 H173       -1.6016  -12.8710  -40.1883 H         1 UNK         0.0600 
    174 H174        0.8449  -13.0755  -40.6175 H         1 UNK         0.3000 
    175 H175        2.5836  -12.2193  -41.8349 H         1 UNK         0.0600 
    176 H176        4.2912  -14.7689  -41.6252 H         1 UNK         0.0600 
    177 H177        4.8469  -13.1296  -41.2883 H         1 UNK         0.0600 
    178 H178        3.6282  -13.8712  -40.2649 H         1 UNK         0.0600 
    179 H179        4.2234  -13.5967  -43.7675 H         1 UNK         0.3000 
    180 H180        4.4002  -12.4886  -45.9212 H         1 UNK         0.0600 
    181 H181        2.0407  -14.3851  -46.4795 H         1 UNK         0.0600 
    182 H182        3.5836  -14.8502  -45.7796 H         1 UNK         0.0600 
    183 H183        3.5161  -14.2895  -47.4413 H         1 UNK         0.0600 
    184 H184        1.9429  -12.1667  -47.4680 H         1 UNK         0.3000 
    185 H185        1.3671   -9.2806  -47.6553 H         1 UNK         0.0600 
    186 H186        3.2835   -7.8656  -48.2028 H         1 UNK         0.0600 
    187 H187        3.8692   -9.0071  -49.4010 H         1 UNK         0.0600 
    188 H188        2.3580   -8.1382  -49.6694 H         1 UNK         0.0600 
    189 H189        0.5483  -10.8063  -49.0397 H         1 UNK         0.3000 
    190 H190       -1.7444  -21.0667  -46.5355 H         1 UNK         0.3000 
    191 H191       -3.4506  -21.9643  -48.6259 H         1 UNK         0.0600 
    192 H192       -4.0924  -20.8450  -45.8430 H         1 UNK         0.0600 
    193 H193       -5.2483  -20.9842  -47.1580 H         1 UNK         0.0600 
    194 H194       -3.8764  -19.8983  -47.3120 H         1 UNK         0.0600 
    195 H195       -2.4292  -23.6103  -45.7467 H         1 UNK         0.3000 
    196 H196       -4.6157  -25.5954  -45.8349 H         1 UNK         0.0600 
    197 H197       -3.4209  -26.5938  -43.9114 H         1 UNK         0.0600 
    198 H198       -3.7209  -24.8853  -43.6282 H         1 UNK         0.0600 
    199 H199       -2.1098  -25.4344  -44.0791 H         1 UNK         0.0600 
    200 H200       -1.1155  -25.3035  -46.5899 H         1 UNK         0.3000 
    201 H201       -0.7170  -27.9741  -47.4947 H         1 UNK         0.0600 
    202 H202        1.1403  -26.4650  -46.8276 H         1 UNK         0.0600 
    203 H203        0.8027  -25.4028  -48.1916 H         1 UNK         0.0600 
    204 H204        1.3767  -27.0415  -48.4712 H         1 UNK         0.0600 
    205 H205       -1.3367  -24.9329  -49.3045 H         1 UNK         0.3000 
    206 H206       -2.2679  -26.4142  -51.7183 H         1 UNK         0.0600 
    207 H207       -2.2350  -24.1983  -52.7646 H         1 UNK         0.0600 
    208 H208       -1.8347  -23.4098  -51.2459 H         1 UNK         0.0600 
    209 H209       -0.6700  -24.4784  -52.0220 H         1 UNK         0.0600 
    210 H210       -3.8872  -27.3139  -50.3112 H         1 UNK         0.3000 
    211 H211       -5.4327  -26.2517  -48.4555 H         1 UNK         0.0600 
    212 H212       -6.2645  -28.4140  -50.4536 H         1 UNK         0.0600 
    213 H213       -7.0111  -28.1553  -48.8810 H         1 UNK         0.0600 
    214 H214       -5.3294  -28.6513  -48.9755 H         1 UNK         0.0600 
    215 H215       -7.2291  -25.1815  -48.0887 H         1 UNK         0.3000 
    216 H216       -8.9667  -23.8504  -48.2318 H         1 UNK         0.0600 
    217 H217      -10.7104  -24.1583  -49.9233 H         1 UNK         0.0600 
    218 H218      -10.1058  -25.7337  -49.4399 H         1 UNK         0.0600 
    219 H219       -9.6141  -25.0322  -50.9813 H         1 UNK         0.0600 
    220 H220       -6.3905  -22.9463  -49.0078 H         1 UNK         0.3000 
    221 H221       -5.3205  -21.1263  -49.6867 H         1 UNK         0.0600 
    222 H222       -6.5081  -18.9737  -49.8111 H         1 UNK         0.0600 
    223 H223       -8.0616  -19.7838  -49.9343 H         1 UNK         0.0600 
    224 H224       -7.1147  -19.9060  -48.4529 H         1 UNK         0.0600 
    225 H225       -5.1596  -22.8851  -51.4983 H         1 UNK         0.3000 
    226 H226       -5.7778  -21.7297  -54.1666 H         1 UNK         0.0600 
    227 H227       -5.0265  -23.9203  -55.0032 H         1 UNK         0.0600 
    228 H228       -4.4915  -24.4059  -53.3985 H         1 UNK         0.0600 
    229 H229       -6.2018  -24.1807  -53.7309 H         1 UNK         0.0600 
    230 H230       -3.5884  -22.5508  -55.5496 H         1 UNK         0.3000 
    231 H231       -1.6023  -21.9844  -56.2888 H         1 UNK         0.0600 
    232 H232       -0.6604  -23.1467  -54.3149 H         1 UNK         0.0600 
    233 H233       -0.6914  -21.6552  -53.3803 H         1 UNK         0.0600 
    234 H234        0.3544  -21.8062  -54.7900 H         1 UNK         0.0600 
    235 H235       -0.0349  -19.8096  -54.4993 H         1 UNK         0.3000 
    236 H236       -0.2915  -17.8749  -56.4682 H         1 UNK         0.0600 
    237 H237        1.7500  -18.1999  -55.1534 H         1 UNK         0.0600 
    238 H238        1.2267  -16.5314  -54.9888 H         1 UNK         0.0600 
    239 H239        0.9369  -17.6721  -53.6826 H         1 UNK         0.0600 
    240 H240       -2.1720  -18.0354  -53.4714 H         1 UNK         0.3000 
    241 H241       -3.2574  -15.3308  -53.9157 H         1 UNK         0.0600 
    242 H242       -3.9240  -18.2383  -55.5137 H         1 UNK         0.3800 
    243 H243       -5.6030  -17.8863  -55.8353 H         1 UNK         0.3800 
    244 H244       -2.8573  -15.8118  -51.6258 H         1 UNK         0.0800 
    245 H245       -4.5606  -15.6430  -51.8715 H         1 UNK         0.0800 
    246 H246       -2.9666  -16.8739  -49.3796 H         1 UNK         0.0800 
    247 H247       -3.2107  -18.5833  -49.1424 H         1 UNK         0.0800 
@<TRIPOS>BOND
     1    1    2 1    
     2    1  127 1    
     3    1  128 1    
     4    1  129 1    
     5    2    3 2    
     6    2    4 am   BACKBONE|DICT|INTERRES
     7    4    5 1    
     8    4  130 1    
     9    5    6 1    
    10    5   65 1    
    11    5  131 1    
    12    6    7 1    
    13    6  132 1    
    14    6  133 1    
    15    7    8 1    
    16    8    9 1    
    17    8  134 1    
    18    8  135 1    
    19    9   10 ar   
    20    9   14 ar   
    21   10   11 ar   
    22   10  136 1    
    23   11   12 ar   
    24   11  126 1    
    25   12   13 ar   
    26   12  137 1    
    27   13   14 ar   
    28   13   15 1    
    29   14  138 1    
    30   15   16 1    
    31   15  139 1    
    32   15  140 1    
    33   16   17 1    
    34   17   18 1    
    35   17  141 1    
    36   17  142 1    
    37   18   19 1    
    38   18   67 1    
    39   18  143 1    
    40   19   20 am   BACKBONE|DICT|INTERRES
    41   19  144 1    
    42   20   21 2    
    43   20   22 1    
    44   22   23 1    
    45   22   24 1    
    46   22  145 1    
    47   23  146 1    
    48   23  147 1    
    49   23  148 1    
    50   24   25 am   BACKBONE|DICT|INTERRES
    51   24  149 1    
    52   25   26 2    
    53   25   27 1    
    54   27   28 1    
    55   27   29 1    
    56   27  150 1    
    57   28  151 1    
    58   28  152 1    
    59   28  153 1    
    60   29   30 am   BACKBONE|DICT|INTERRES
    61   29  154 1    
    62   30   31 2    
    63   30   32 1    
    64   32   33 1    
    65   32   34 1    
    66   32  155 1    
    67   33  156 1    
    68   33  157 1    
    69   33  158 1    
    70   34   35 am   BACKBONE|DICT|INTERRES
    71   34  159 1    
    72   35   36 2    
    73   35   37 1    
    74   37   38 1    
    75   37   39 1    
    76   37  160 1    
    77   38  161 1    
    78   38  162 1    
    79   38  163 1    
    80   39   40 am   BACKBONE|DICT|INTERRES
    81   39  164 1    
    82   40   41 2    
    83   40   42 1    
    84   42   43 1    
    85   42   44 1    
    86   42  165 1    
    87   43  166 1    
    88   43  167 1    
    89   43  168 1    
    90   44   45 am   BACKBONE|DICT|INTERRES
    91   44  169 1    
    92   45   46 2    
    93   45   47 1    
    94   47   48 1    
    95   47   49 1    
    96   47  170 1    
    97   48  171 1    
    98   48  172 1    
    99   48  173 1    
   100   49   50 am   BACKBONE|DICT|INTERRES
   101   49  174 1    
   102   50   51 2    
   103   50   52 1    
   104   52   53 1    
   105   52   54 1    
   106   52  175 1    
   107   53  176 1    
   108   53  177 1    
   109   53  178 1    
   110   54   55 am   BACKBONE|DICT|INTERRES
   111   54  179 1    
   112   55   56 2    
   113   55   57 1    
   114   57   58 1    
   115   57   59 1    
   116   57  180 1    
   117   58  181 1    
   118   58  182 1    
   119   58  183 1    
   120   59   60 am   BACKBONE|DICT|INTERRES
   121   59  184 1    
   122   60   61 2    
   123   60   62 1    
   124   62   63 1    
   125   62   64 1    
   126   62  185 1    
   127   63  186 1    
   128   63  187 1    
   129   63  188 1    
   130   64   65 am   BACKBONE|DICT|INTERRES
   131   64  189 1    
   132   65   66 2    
   133   67   68 2    
   134   67   69 am   BACKBONE|DICT|INTERRES
   135   69   70 1    
   136   69  190 1    
   137   70   71 1    
   138   70   72 1    
   139   70  191 1    
   140   71  192 1    
   141   71  193 1    
   142   71  194 1    
   143   72   73 2    
   144   72   74 am   BACKBONE|DICT|INTERRES
   145   74   75 1    
   146   74  195 1    
   147   75   76 1    
   148   75   77 1    
   149   75  196 1    
   150   76  197 1    
   151   76  198 1    
   152   76  199 1    
   153   77   78 2    
   154   77   79 am   BACKBONE|DICT|INTERRES
   155   79   80 1    
   156   79  200 1    
   157   80   81 1    
   158   80   82 1    
   159   80  201 1    
   160   81  202 1    
   161   81  203 1    
   162   81  204 1    
   163   82   83 2    
   164   82   84 am   BACKBONE|DICT|INTERRES
   165   84   85 1    
   166   84  205 1    
   167   85   86 1    
   168   85   87 1    
   169   85  206 1    
   170   86  207 1    
   171   86  208 1    
   172   86  209 1    
   173   87   88 2    
   174   87   89 am   BACKBONE|DICT|INTERRES
   175   89   90 1    
   176   89  210 1    
   177   90   91 1    
   178   90   92 1    
   179   90  211 1    
   180   91  212 1    
   181   91  213 1    
   182   91  214 1    
   183   92   93 2    
   184   92   94 am   BACKBONE|DICT|INTERRES
   185   94   95 1    
   186   94  215 1    
   187   95   96 1    
   188   95   97 1    
   189   95  216 1    
   190   96  217 1    
   191   96  218 1    
   192   96  219 1    
   193   97   98 2    
   194   97   99 am   BACKBONE|DICT|INTERRES
   195   99  100 1    
   196   99  220 1    
   197  100  101 1    
   198  100  102 1    
   199  100  221 1    
   200  101  222 1    
   201  101  223 1    
   202  101  224 1    
   203  102  103 2    
   204  102  104 am   BACKBONE|DICT|INTERRES
   205  104  105 1    
   206  104  225 1    
   207  105  106 1    
   208  105  107 1    
   209  105  226 1    
   210  106  227 1    
   211  106  228 1    
   212  106  229 1    
   213  107  108 2    
   214  107  109 am   BACKBONE|DICT|INTERRES
   215  109  110 1    
   216  109  230 1    
   217  110  111 1    
   218  110  112 1    
   219  110  231 1    
   220  111  232 1    
   221  111  233 1    
   222  111  234 1    
   223  112  113 2    
   224  112  114 am   BACKBONE|DICT|INTERRES
   225  114  115 1    
   226  114  235 1    
   227  115  116 1    
   228  115  117 1    
   229  115  236 1    
   230  116  237 1    
   231  116  238 1    
   232  116  239 1    
   233  117  118 2    
   234  117  119 am   BACKBONE|DICT|INTERRES
   235  119  120 1    
   236  119  240 1    
   237  120  121 1    
   238  120  124 1    
   239  120  241 1    
   240  121  122 am   BACKBONE|DICT|INTERRES
   241  121  123 2    
   242  122  242 1    
   243  122  243 1    
   244  124  125 1    
   245  124  244 1    
   246  124  245 1    
   247  125  126 1    
   248  126  246 1    
   249  126  247 1    
@<TRIPOS>SUBSTRUCTURE
     1 UNK         1 GROUP             0       ****    0 ROOT    
