@<TRIPOS>MOLECULE
3R540
247   249    1
SMALL
USER_CHARGES


@<TRIPOS>ATOM
      1 CA         -0.4199  -10.0631  -50.7673 C.3       0 UNK        -0.1800 
      2 C           0.4196  -10.2406  -49.5105 C.2       0 UNK         0.5000 
      3 O           0.5466   -9.3056  -48.7189 O.2       0 UNK        -0.5000 
      4 N           0.9891  -11.4372  -49.3192 N.am      1 UNK        -0.5000 
      5 CA          1.8259  -11.8322  -48.1795 C.3       1 UNK         0.1400 
      6 C6          2.8014  -12.9901  -48.5391 C.3       23 UNK        -0.0398 
      7 S7          2.1726  -14.6937  -48.8325 S.3       23 UNK        -0.2404 
      8 C8          0.4709  -14.5205  -49.4669 C.3       23 UNK        -0.0205 
      9 C9         -0.2305  -15.8642  -49.6262 C.ar      23 UNK        -0.0193 
     10 C10         0.3914  -16.9230  -50.2960 C.ar      23 UNK        -0.1150 
     11 C11        -0.2559  -18.1519  -50.4411 C.ar      23 UNK        -0.0193 
     12 C12        -1.5499  -18.3127  -49.9388 C.ar      23 UNK        -0.1150 
     13 C13        -2.1875  -17.2633  -49.2706 C.ar      23 UNK        -0.0193 
     14 C14        -1.5213  -16.0433  -49.1188 C.ar      23 UNK        -0.1150 
     15 C15        -3.5996  -17.4277  -48.7256 C.3       23 UNK        -0.0205 
     16 S16        -3.6131  -17.4975  -46.9044 S.3       23 UNK        -0.2404 
     17 C17        -3.9639  -19.2494  -46.5398 C.3       23 UNK        -0.0398 
     18 CA         -2.9050  -20.2345  -47.0806 C.3       11 UNK         0.1400 
     19 N          -1.5427  -19.9377  -46.6288 N.am      11 UNK        -0.5000 
     20 C          -0.4482  -20.4242  -47.2319 C.2       10 UNK         0.5000 
     21 O          -0.4916  -21.1488  -48.2256 O.2       10 UNK        -0.5000 
     22 CA          0.9166  -20.1104  -46.5895 C.3       10 UNK         0.1400 
     23 CB          1.5269  -18.8308  -47.1812 C.3       10 UNK        -0.1800 
     24 N           0.8744  -20.0176  -45.1273 N.am      10 UNK        -0.5000 
     25 C           0.4955  -21.0206  -44.3186 C.2       9 UNK         0.5000 
     26 O           0.0725  -22.1012  -44.7345 O.2       9 UNK        -0.5000 
     27 CA          0.6121  -20.7693  -42.8020 C.3       9 UNK         0.1400 
     28 CB          0.4965  -22.0543  -41.9581 C.3       9 UNK        -0.1800 
     29 N           1.8261  -20.0332  -42.4518 N.am      9 UNK        -0.5000 
     30 C           3.1037  -20.3822  -42.6725 C.2       8 UNK         0.5000 
     31 O           3.4514  -21.4511  -43.1753 O.2       8 UNK        -0.5000 
     32 CA          4.1778  -19.3520  -42.2714 C.3       8 UNK         0.1400 
     33 CB          4.9750  -18.8822  -43.5003 C.3       8 UNK        -0.1800 
     34 N           3.5766  -18.1858  -41.6179 N.am      8 UNK        -0.5000 
     35 C           3.5493  -17.9898  -40.2939 C.2       7 UNK         0.5000 
     36 O           4.1146  -18.7195  -39.4788 O.2       7 UNK        -0.5000 
     37 CA          2.7364  -16.7856  -39.7904 C.3       7 UNK         0.1400 
     38 CB          3.5926  -15.5101  -39.8222 C.3       7 UNK        -0.1800 
     39 N           1.4892  -16.5589  -40.5284 N.am      7 UNK        -0.5000 
     40 C           0.4105  -17.3542  -40.4636 C.2       6 UNK         0.5000 
     41 O           0.4066  -18.4461  -39.8965 O.2       6 UNK        -0.5000 
     42 CA         -0.8824  -16.8546  -41.1304 C.3       6 UNK         0.1400 
     43 CB         -1.5489  -15.7764  -40.2618 C.3       6 UNK        -0.1800 
     44 N          -0.6283  -16.3025  -42.4571 N.am      6 UNK        -0.5000 
     45 C          -0.9604  -16.8927  -43.6141 C.2       5 UNK         0.5000 
     46 O          -1.5334  -17.9799  -43.7040 O.2       5 UNK        -0.5000 
     47 CA         -0.5258  -16.1618  -44.8997 C.3       5 UNK         0.1400 
     48 CB         -1.5276  -15.0494  -45.2434 C.3       5 UNK        -0.1800 
     49 N           0.8107  -15.5698  -44.8191 N.am      5 UNK        -0.5000 
     50 C           1.9252  -16.1596  -44.3678 C.2       4 UNK         0.5000 
     51 O           1.9968  -17.3487  -44.0530 O.2       4 UNK        -0.5000 
     52 CA          3.1496  -15.2516  -44.1510 C.3       4 UNK         0.1400 
     53 CB          4.0788  -15.3014  -45.3698 C.3       4 UNK        -0.1800 
     54 N           2.8209  -13.8543  -43.8415 N.am      4 UNK        -0.5000 
     55 C           2.1104  -13.4289  -42.7850 C.2       3 UNK         0.5000 
     56 O           1.5736  -14.1820  -41.9721 O.2       3 UNK        -0.5000 
     57 CA          1.9454  -11.9059  -42.6347 C.3       3 UNK         0.1400 
     58 CB          3.3035  -11.1998  -42.4884 C.3       3 UNK        -0.1800 
     59 N           1.2159  -11.3441  -43.7689 N.am      3 UNK        -0.5000 
     60 C          -0.0995  -11.5027  -43.9691 C.2       2 UNK         0.5000 
     61 O          -0.8580  -12.0084  -43.1414 O.2       2 UNK        -0.5000 
     62 CA         -0.6713  -11.0389  -45.3253 C.3       2 UNK         0.1400 
     63 CB         -1.2986   -9.6429  -45.1938 C.3       2 UNK        -0.1800 
     64 N           0.2794  -11.0254  -46.4436 N.am      2 UNK        -0.5000 
     65 C           1.0113  -12.0585  -46.8812 C.2       1 UNK         0.5000 
     66 O           1.0452  -13.1438  -46.3039 O.2       1 UNK        -0.5000 
     67 C          -3.3124  -21.6892  -46.7786 C.2       11 UNK         0.5000 
     68 O          -4.0305  -22.2856  -47.5809 O.2       11 UNK        -0.5000 
     69 N          -2.8290  -22.2545  -45.6626 N.am      12 UNK        -0.5000 
     70 CA         -3.0444  -23.6577  -45.3019 C.3       12 UNK         0.1400 
     71 CB         -2.6887  -23.8887  -43.8266 C.3       12 UNK        -0.1800 
     72 C          -2.2466  -24.6013  -46.2173 C.2       12 UNK         0.5000 
     73 O          -2.7784  -25.6295  -46.6357 O.2       12 UNK        -0.5000 
     74 N          -1.0170  -24.1988  -46.5730 N.am      13 UNK        -0.5000 
     75 CA         -0.1730  -24.8680  -47.5683 C.3       13 UNK         0.1400 
     76 CB          1.2190  -24.2191  -47.5781 C.3       13 UNK        -0.1800 
     77 C          -0.7940  -24.8631  -48.9815 C.2       13 UNK         0.5000 
     78 O          -0.6102  -25.8216  -49.7309 O.2       13 UNK        -0.5000 
     79 N          -1.5673  -23.8139  -49.2920 N.am      14 UNK        -0.5000 
     80 CA         -2.3929  -23.6771  -50.4932 C.3       14 UNK         0.1400 
     81 CB         -2.5558  -22.1818  -50.8088 C.3       14 UNK        -0.1800 
     82 C          -3.7663  -24.3800  -50.3848 C.2       14 UNK         0.5000 
     83 O          -4.6418  -24.1076  -51.2076 O.2       14 UNK        -0.5000 
     84 N          -3.9465  -25.2553  -49.3835 N.am      15 UNK        -0.5000 
     85 CA         -5.1394  -26.0634  -49.1099 C.3       15 UNK         0.1400 
     86 CB         -5.3854  -27.0793  -50.2457 C.3       15 UNK        -0.1800 
     87 C          -6.3728  -25.1990  -48.7840 C.2       15 UNK         0.5000 
     88 O          -7.4324  -25.3745  -49.3852 O.2       15 UNK        -0.5000 
     89 N          -6.1885  -24.2580  -47.8472 N.am      16 UNK        -0.5000 
     90 CA         -7.1447  -23.2283  -47.4218 C.3       16 UNK         0.1400 
     91 CB         -8.4097  -23.8506  -46.7940 C.3       16 UNK        -0.1800 
     92 C          -7.4433  -22.2295  -48.5582 C.2       16 UNK         0.5000 
     93 O          -8.5994  -21.8762  -48.7959 O.2       16 UNK        -0.5000 
     94 N          -6.3683  -21.8128  -49.2439 N.am      17 UNK        -0.5000 
     95 CA         -6.3272  -20.8946  -50.3876 C.3       17 UNK         0.1400 
     96 CB         -6.7898  -19.4844  -49.9652 C.3       17 UNK        -0.1800 
     97 C          -7.0704  -21.4068  -51.6426 C.2       17 UNK         0.5000 
     98 O          -7.4352  -20.6022  -52.5017 O.2       17 UNK        -0.5000 
     99 N          -7.2772  -22.7273  -51.7427 N.am      18 UNK        -0.5000 
    100 CA        -7.9081  -23.3815  -52.8888 C.3       18 UNK         0.1400 
    101 CB        -8.3613  -24.7928  -52.4903 C.3       18 UNK        -0.1800 
    102 C         -6.9744  -23.4376  -54.1095 C.2       18 UNK         0.5000 
    103 O         -7.4397  -23.2742  -55.2386 O.2       18 UNK        -0.5000 
    104 N         -5.6748  -23.6496  -53.8647 N.am      19 UNK        -0.5000 
    105 CA        -4.6273  -23.5966  -54.8767 C.3       19 UNK         0.1400 
    106 CB        -3.4225  -24.4307  -54.4090 C.3       19 UNK        -0.1800 
    107 C         -4.2394  -22.1306  -55.1204 C.2       19 UNK         0.5000 
    108 O         -3.4880  -21.5598  -54.3295 O.2       19 UNK        -0.5000 
    109 N         -4.7526  -21.5409  -56.2075 N.am      20 UNK        -0.5000 
    110 CA        -4.4948  -20.1496  -56.6006 C.3       20 UNK         0.1400 
    111 CB        -5.3961  -19.7906  -57.7917 C.3       20 UNK        -0.1800 
    112 C         -3.0158  -19.8608  -56.9342 C.2       20 UNK         0.5000 
    113 O         -2.5650  -18.7261  -56.7764 O.2       20 UNK        -0.5000 
    114 N         -2.2888  -20.8996  -57.3651 N.am      21 UNK        -0.5000 
    115 CA        -0.8480  -20.8808  -57.6201 C.3       21 UNK         0.1400 
    116 CB        -0.5503  -21.8661  -58.7633 C.3       21 UNK        -0.1800 
    117 C         -0.0076  -21.2236  -56.3696 C.2       21 UNK         0.5000 
    118 O          1.2197  -21.2565  -56.4742 O.2       21 UNK        -0.5000 
    119 N         -0.6642  -21.4861  -55.2290 N.am      22 UNK        -0.5000 
    120 CA        -0.0865  -21.9607  -53.9592 C.3       22 UNK         0.1400 
    121 C          0.4627  -23.4194  -54.0276 C.2       22 UNK         0.5000 
    122 N          0.9744  -23.9541  -52.9261 N.am      22 UNK        -0.7600 
    123 O          0.3963  -24.0993  -55.0495 O.2       22 UNK        -0.5000 
    124 C124        0.9237  -20.9547  -53.3331 C.3       23 UNK        -0.0398 
    125 S125        0.1334  -19.3666  -52.8985 S.3       23 UNK        -0.2404 
    126 C126        0.4566  -19.3143  -51.1106 C.3       23 UNK        -0.0205 
    127 H127       -1.4432   -9.7993  -50.5000 H         1 UNK         0.0600 
    128 H128       -0.0095   -9.2621  -51.3821 H         1 UNK         0.0600 
    129 H129       -0.4489  -10.9726  -51.3679 H         1 UNK         0.0600 
    130 H130        0.8418  -12.1578  -50.0097 H         1 UNK         0.3000 
    131 H131        2.4672  -10.9757  -47.9597 H         1 UNK         0.0600 
    132 H132        3.5534  -13.0662  -47.7531 H         1 UNK         0.0800 
    133 H133        3.3655  -12.7054  -49.4282 H         1 UNK         0.0800 
    134 H134        0.4923  -14.0237  -50.4370 H         1 UNK         0.0800 
    135 H135       -0.1061  -13.8923  -48.7889 H         1 UNK         0.0800 
    136 H136        1.3884  -16.7953  -50.6935 H         1 UNK         0.1150 
    137 H137       -2.0518  -19.2602  -50.0669 H         1 UNK         0.1150 
    138 H138       -2.0160  -15.2316  -48.6042 H         1 UNK         0.1150 
    139 H139       -4.0788  -18.3107  -49.1481 H         1 UNK         0.0800 
    140 H140       -4.2029  -16.5770  -49.0453 H         1 UNK         0.0800 
    141 H141       -4.0506  -19.3460  -45.4559 H         1 UNK         0.0800 
    142 H142       -4.9496  -19.4856  -46.9451 H         1 UNK         0.0800 
    143 H143       -2.9147  -20.1486  -48.1661 H         1 UNK         0.0600 
    144 H144       -1.4444  -19.3512  -45.8111 H         1 UNK         0.3000 
    145 H145        1.5853  -20.9382  -46.8331 H         1 UNK         0.0600 
    146 H146        2.4849  -18.5944  -46.7176 H         1 UNK         0.0600 
    147 H147        1.7054  -18.9486  -48.2502 H         1 UNK         0.0600 
    148 H148        0.8732  -17.9688  -47.0599 H         1 UNK         0.0600 
    149 H149        1.2244  -19.1603  -44.7118 H         1 UNK         0.3000 
    150 H150       -0.2243  -20.1231  -42.5327 H         1 UNK         0.0600 
    151 H151       -0.4879  -22.5070  -42.0710 H         1 UNK         0.0600 
    152 H152        0.6312  -21.8417  -40.8975 H         1 UNK         0.0600 
    153 H153        1.2379  -22.7993  -42.2487 H         1 UNK         0.0600 
    154 H154        1.6721  -19.1327  -42.0234 H         1 UNK         0.3000 
    155 H155        4.8719  -19.8530  -41.5938 H         1 UNK         0.0600 
    156 H156        5.5275  -19.7114  -43.9437 H         1 UNK         0.0600 
    157 H157        5.7018  -18.1155  -43.2317 H         1 UNK         0.0600 
    158 H158        4.3276  -18.4752  -44.2763 H         1 UNK         0.0600 
    159 H159        3.0541  -17.5641  -42.2222 H         1 UNK         0.3000 
    160 H160        2.4716  -16.9825  -38.7492 H         1 UNK         0.0600 
    161 H161        3.9049  -15.2575  -40.8356 H         1 UNK         0.0600 
    162 H162        3.0465  -14.6577  -39.4177 H         1 UNK         0.0600 
    163 H163        4.4957  -15.6315  -39.2226 H         1 UNK         0.0600 
    164 H164        1.4256  -15.6727  -41.0269 H         1 UNK         0.3000 
    165 H165       -1.5688  -17.7015  -41.1968 H         1 UNK         0.0600 
    166 H166       -2.5039  -15.4666  -40.6865 H         1 UNK         0.0600 
    167 H167       -1.7460  -16.1498  -39.2561 H         1 UNK         0.0600 
    168 H168       -0.9225  -14.8881  -40.1676 H         1 UNK         0.0600 
    169 H169       -0.1079  -15.4337  -42.4925 H         1 UNK         0.3000 
    170 H170       -0.5314  -16.8881  -45.7117 H         1 UNK         0.0600 
    171 H171       -2.5528  -15.4179  -45.2369 H         1 UNK         0.0600 
    172 H172       -1.4783  -14.2331  -44.5239 H         1 UNK         0.0600 
    173 H173       -1.3333  -14.6369  -46.2333 H         1 UNK         0.0600 
    174 H174        0.8889  -14.6070  -45.1391 H         1 UNK         0.3000 
    175 H175        3.6981  -15.6509  -43.2964 H         1 UNK         0.0600 
    176 H176        3.5916  -14.8952  -46.2542 H         1 UNK         0.0600 
    177 H177        4.9935  -14.7345  -45.1961 H         1 UNK         0.0600 
    178 H178        4.3702  -16.3269  -45.6003 H         1 UNK         0.0600 
    179 H179        3.1664  -13.1656  -44.4921 H         1 UNK         0.3000 
    180 H180        1.3739  -11.7214  -41.7224 H         1 UNK         0.0600 
    181 H181        3.8763  -11.6247  -41.6630 H         1 UNK         0.0600 
    182 H182        3.9117  -11.2853  -43.3895 H         1 UNK         0.0600 
    183 H183        3.1708  -10.1386  -42.2770 H         1 UNK         0.0600 
    184 H184        1.7598  -10.9125  -44.5007 H         1 UNK         0.3000 
    185 H185       -1.4626  -11.7426  -45.5910 H         1 UNK         0.0600 
    186 H186       -2.0394   -9.6188  -44.3933 H         1 UNK         0.0600 
    187 H187       -0.5465   -8.8855  -44.9695 H         1 UNK         0.0600 
    188 H188       -1.8062   -9.3500  -46.1132 H         1 UNK         0.0600 
    189 H189        0.3020  -10.1803  -47.0073 H         1 UNK         0.3000 
    190 H190       -2.1764  -21.7360  -45.0914 H         1 UNK         0.3000 
    191 H191       -4.1059  -23.8817  -45.4276 H         1 UNK         0.0600 
    192 H192       -2.9798  -24.8920  -43.5134 H         1 UNK         0.0600 
    193 H193       -3.2043  -23.1819  -43.1764 H         1 UNK         0.0600 
    194 H194       -1.6183  -23.7949  -43.6492 H         1 UNK         0.0600 
    195 H195       -0.6402  -23.3621  -46.1377 H         1 UNK         0.3000 
    196 H196       -0.0610  -25.9094  -47.2601 H         1 UNK         0.0600 
    197 H197        1.8913  -24.7520  -48.2515 H         1 UNK         0.0600 
    198 H198        1.6702  -24.2357  -46.5857 H         1 UNK         0.0600 
    199 H199        1.1795  -23.1823  -47.9103 H         1 UNK         0.0600 
    200 H200       -1.6092  -23.0461  -48.6337 H         1 UNK         0.3000 
    201 H201       -1.8674  -24.1395  -51.3307 H         1 UNK         0.0600 
    202 H202       -1.5875  -21.7027  -50.9370 H         1 UNK         0.0600 
    203 H203       -3.0834  -21.6587  -50.0136 H         1 UNK         0.0600 
    204 H204       -3.1153  -22.0267  -51.7311 H         1 UNK         0.0600 
    205 H205       -3.1918  -25.3772  -48.7194 H         1 UNK         0.3000 
    206 H206       -4.9225  -26.6343  -48.2059 H         1 UNK         0.0600 
    207 H207       -4.5076  -27.7040  -50.4100 H         1 UNK         0.0600 
    208 H208       -6.2151  -27.7437  -50.0020 H         1 UNK         0.0600 
    209 H209       -5.6267  -26.5890  -51.1888 H         1 UNK         0.0600 
    210 H210       -5.2497  -24.1371  -47.4897 H         1 UNK         0.3000 
    211 H211       -6.6456  -22.6549  -46.6393 H         1 UNK         0.0600 
    212 H212       -9.0141  -24.3816  -47.5296 H         1 UNK         0.0600 
    213 H213       -9.0418  -23.0797  -46.3519 H         1 UNK         0.0600 
    214 H214       -8.1517  -24.5525  -46.0010 H         1 UNK         0.0600 
    215 H215       -5.4678  -22.1578  -48.9258 H         1 UNK         0.3000 
    216 H216       -5.2779  -20.8218  -50.6743 H         1 UNK         0.0600 
    217 H217       -6.3000  -19.1622  -49.0472 H         1 UNK         0.0600 
    218 H218       -6.5552  -18.7485  -50.7350 H         1 UNK         0.0600 
    219 H219       -7.8664  -19.4478  -49.7964 H         1 UNK         0.0600 
    220 H220       -6.9108  -23.3311  -51.0185 H         1 UNK         0.3000 
    221 H221       -8.7945  -22.8086  -53.1695 H         1 UNK         0.0600 
    222 H222       -7.5173  -25.4172  -52.1961 H         1 UNK         0.0600 
    223 H223       -9.0611  -24.7607  -51.6550 H         1 UNK         0.0600 
    224 H224       -8.8655  -25.2905  -53.3195 H         1 UNK         0.0600 
    225 H225       -5.3671  -23.7547  -52.9001 H         1 UNK         0.3000 
    226 H226       -4.9939  -24.0329  -55.8083 H         1 UNK         0.0600 
    227 H227       -3.7055  -25.4688  -54.2347 H         1 UNK         0.0600 
    228 H228       -2.6320  -24.4285  -55.1605 H         1 UNK         0.0600 
    229 H229       -2.9937  -24.0437  -53.4853 H         1 UNK         0.0600 
    230 H230       -5.3962  -22.0621  -56.7866 H         1 UNK         0.3000 
    231 H231       -4.7695  -19.5103  -55.7589 H         1 UNK         0.0600 
    232 H232       -5.1849  -20.4169  -58.6593 H         1 UNK         0.0600 
    233 H233       -6.4500  -19.9094  -57.5391 H         1 UNK         0.0600 
    234 H234       -5.2507  -18.7523  -58.0930 H         1 UNK         0.0600 
    235 H235       -2.7507  -21.7910  -57.4696 H         1 UNK         0.3000 
    236 H236       -0.5498  -19.8826  -57.9473 H         1 UNK         0.0600 
    237 H237       -0.7973  -22.8913  -58.4842 H         1 UNK         0.0600 
    238 H238       -1.1181  -21.6147  -59.6593 H         1 UNK         0.0600 
    239 H239        0.5058  -21.8458  -59.0354 H         1 UNK         0.0600 
    240 H240       -1.6746  -21.4117  -55.2226 H         1 UNK         0.3000 
    241 H241       -0.9398  -22.0307  -53.2850 H         1 UNK         0.0600 
    242 H242        1.3131  -24.9029  -52.9653 H         1 UNK         0.3800 
    243 H243        1.0245  -23.4516  -52.0552 H         1 UNK         0.3800 
    244 H244        1.7553  -20.7578  -54.0096 H         1 UNK         0.0800 
    245 H245        1.3787  -21.3691  -52.4334 H         1 UNK         0.0800 
    246 H246        0.1440  -20.2504  -50.6493 H         1 UNK         0.0800 
    247 H247        1.5321  -19.2388  -50.9424 H         1 UNK         0.0800 
@<TRIPOS>BOND
     1    1    2 1    
     2    1  127 1    
     3    1  128 1    
     4    1  129 1    
     5    2    3 2    
     6    2    4 am   BACKBONE|DICT|INTERRES
     7    4    5 1    
     8    4  130 1    
     9    5    6 1    
    10    5   65 1    
    11    5  131 1    
    12    6    7 1    
    13    6  132 1    
    14    6  133 1    
    15    7    8 1    
    16    8    9 1    
    17    8  134 1    
    18    8  135 1    
    19    9   10 ar   
    20    9   14 ar   
    21   10   11 ar   
    22   10  136 1    
    23   11   12 ar   
    24   11  126 1    
    25   12   13 ar   
    26   12  137 1    
    27   13   14 ar   
    28   13   15 1    
    29   14  138 1    
    30   15   16 1    
    31   15  139 1    
    32   15  140 1    
    33   16   17 1    
    34   17   18 1    
    35   17  141 1    
    36   17  142 1    
    37   18   19 1    
    38   18   67 1    
    39   18  143 1    
    40   19   20 am   BACKBONE|DICT|INTERRES
    41   19  144 1    
    42   20   21 2    
    43   20   22 1    
    44   22   23 1    
    45   22   24 1    
    46   22  145 1    
    47   23  146 1    
    48   23  147 1    
    49   23  148 1    
    50   24   25 am   BACKBONE|DICT|INTERRES
    51   24  149 1    
    52   25   26 2    
    53   25   27 1    
    54   27   28 1    
    55   27   29 1    
    56   27  150 1    
    57   28  151 1    
    58   28  152 1    
    59   28  153 1    
    60   29   30 am   BACKBONE|DICT|INTERRES
    61   29  154 1    
    62   30   31 2    
    63   30   32 1    
    64   32   33 1    
    65   32   34 1    
    66   32  155 1    
    67   33  156 1    
    68   33  157 1    
    69   33  158 1    
    70   34   35 am   BACKBONE|DICT|INTERRES
    71   34  159 1    
    72   35   36 2    
    73   35   37 1    
    74   37   38 1    
    75   37   39 1    
    76   37  160 1    
    77   38  161 1    
    78   38  162 1    
    79   38  163 1    
    80   39   40 am   BACKBONE|DICT|INTERRES
    81   39  164 1    
    82   40   41 2    
    83   40   42 1    
    84   42   43 1    
    85   42   44 1    
    86   42  165 1    
    87   43  166 1    
    88   43  167 1    
    89   43  168 1    
    90   44   45 am   BACKBONE|DICT|INTERRES
    91   44  169 1    
    92   45   46 2    
    93   45   47 1    
    94   47   48 1    
    95   47   49 1    
    96   47  170 1    
    97   48  171 1    
    98   48  172 1    
    99   48  173 1    
   100   49   50 am   BACKBONE|DICT|INTERRES
   101   49  174 1    
   102   50   51 2    
   103   50   52 1    
   104   52   53 1    
   105   52   54 1    
   106   52  175 1    
   107   53  176 1    
   108   53  177 1    
   109   53  178 1    
   110   54   55 am   BACKBONE|DICT|INTERRES
   111   54  179 1    
   112   55   56 2    
   113   55   57 1    
   114   57   58 1    
   115   57   59 1    
   116   57  180 1    
   117   58  181 1    
   118   58  182 1    
   119   58  183 1    
   120   59   60 am   BACKBONE|DICT|INTERRES
   121   59  184 1    
   122   60   61 2    
   123   60   62 1    
   124   62   63 1    
   125   62   64 1    
   126   62  185 1    
   127   63  186 1    
   128   63  187 1    
   129   63  188 1    
   130   64   65 am   BACKBONE|DICT|INTERRES
   131   64  189 1    
   132   65   66 2    
   133   67   68 2    
   134   67   69 am   BACKBONE|DICT|INTERRES
   135   69   70 1    
   136   69  190 1    
   137   70   71 1    
   138   70   72 1    
   139   70  191 1    
   140   71  192 1    
   141   71  193 1    
   142   71  194 1    
   143   72   73 2    
   144   72   74 am   BACKBONE|DICT|INTERRES
   145   74   75 1    
   146   74  195 1    
   147   75   76 1    
   148   75   77 1    
   149   75  196 1    
   150   76  197 1    
   151   76  198 1    
   152   76  199 1    
   153   77   78 2    
   154   77   79 am   BACKBONE|DICT|INTERRES
   155   79   80 1    
   156   79  200 1    
   157   80   81 1    
   158   80   82 1    
   159   80  201 1    
   160   81  202 1    
   161   81  203 1    
   162   81  204 1    
   163   82   83 2    
   164   82   84 am   BACKBONE|DICT|INTERRES
   165   84   85 1    
   166   84  205 1    
   167   85   86 1    
   168   85   87 1    
   169   85  206 1    
   170   86  207 1    
   171   86  208 1    
   172   86  209 1    
   173   87   88 2    
   174   87   89 am   BACKBONE|DICT|INTERRES
   175   89   90 1    
   176   89  210 1    
   177   90   91 1    
   178   90   92 1    
   179   90  211 1    
   180   91  212 1    
   181   91  213 1    
   182   91  214 1    
   183   92   93 2    
   184   92   94 am   BACKBONE|DICT|INTERRES
   185   94   95 1    
   186   94  215 1    
   187   95   96 1    
   188   95   97 1    
   189   95  216 1    
   190   96  217 1    
   191   96  218 1    
   192   96  219 1    
   193   97   98 2    
   194   97   99 am   BACKBONE|DICT|INTERRES
   195   99  100 1    
   196   99  220 1    
   197  100  101 1    
   198  100  102 1    
   199  100  221 1    
   200  101  222 1    
   201  101  223 1    
   202  101  224 1    
   203  102  103 2    
   204  102  104 am   BACKBONE|DICT|INTERRES
   205  104  105 1    
   206  104  225 1    
   207  105  106 1    
   208  105  107 1    
   209  105  226 1    
   210  106  227 1    
   211  106  228 1    
   212  106  229 1    
   213  107  108 2    
   214  107  109 am   BACKBONE|DICT|INTERRES
   215  109  110 1    
   216  109  230 1    
   217  110  111 1    
   218  110  112 1    
   219  110  231 1    
   220  111  232 1    
   221  111  233 1    
   222  111  234 1    
   223  112  113 2    
   224  112  114 am   BACKBONE|DICT|INTERRES
   225  114  115 1    
   226  114  235 1    
   227  115  116 1    
   228  115  117 1    
   229  115  236 1    
   230  116  237 1    
   231  116  238 1    
   232  116  239 1    
   233  117  118 2    
   234  117  119 am   BACKBONE|DICT|INTERRES
   235  119  120 1    
   236  119  240 1    
   237  120  121 1    
   238  120  124 1    
   239  120  241 1    
   240  121  122 am   BACKBONE|DICT|INTERRES
   241  121  123 2    
   242  122  242 1    
   243  122  243 1    
   244  124  125 1    
   245  124  244 1    
   246  124  245 1    
   247  125  126 1    
   248  126  246 1    
   249  126  247 1    
@<TRIPOS>SUBSTRUCTURE
     1 UNK         1 GROUP             0       ****    0 ROOT    
