@<TRIPOS>MOLECULE
3R540
247   249    1
SMALL
USER_CHARGES


@<TRIPOS>ATOM
      1 CA          3.9341   -9.6175  -48.1991 C.3       0 UNK        -0.1800 
      2 C           3.4641  -10.9032  -47.5339 C.2       0 UNK         0.5000 
      3 O           2.3517  -10.9458  -47.0082 O.2       0 UNK        -0.5000 
      4 N           4.3125  -11.9427  -47.5510 N.am      1 UNK        -0.5000 
      5 CA          4.0615  -13.2845  -46.9937 C.3       1 UNK         0.1400 
      6 C6          2.9408  -14.0582  -47.7428 C.3       23 UNK        -0.0398 
      7 S7          3.2602  -14.1450  -49.5381 S.3       23 UNK        -0.2404 
      8 C8          4.1354  -15.7402  -49.7083 C.3       23 UNK        -0.0205 
      9 C9          3.2900  -16.8834  -50.2696 C.ar      23 UNK        -0.0193 
     10 C10         2.2399  -16.6552  -51.1674 C.ar      23 UNK        -0.1150 
     11 C11         1.5137  -17.7175  -51.7147 C.ar      23 UNK        -0.0193 
     12 C12         1.8693  -19.0284  -51.3831 C.ar      23 UNK        -0.1150 
     13 C13         2.9375  -19.2772  -50.5148 C.ar      23 UNK        -0.0193 
     14 C14         3.6290  -18.2016  -49.9492 C.ar      23 UNK        -0.1150 
     15 C15         3.3939  -20.7042  -50.2405 C.3       23 UNK        -0.0205 
     16 S16         2.7385  -21.3630  -48.6781 S.3       23 UNK        -0.2404 
     17 C17         0.9843  -21.5740  -49.1113 C.3       23 UNK        -0.0398 
     18 CA          0.2150  -22.4349  -48.0842 C.3       11 UNK         0.1400 
     19 N           0.1040  -21.7989  -46.7661 N.am      11 UNK        -0.5000 
     20 C          -0.4068  -22.3963  -45.6788 C.2       10 UNK         0.5000 
     21 O          -0.7862  -23.5669  -45.6572 O.2       10 UNK        -0.5000 
     22 CA         -0.5742  -21.5360  -44.4143 C.3       10 UNK         0.1400 
     23 CB          0.7554  -21.4075  -43.6564 C.3       10 UNK        -0.1800 
     24 N          -1.1203  -20.2096  -44.7020 N.am      10 UNK        -0.5000 
     25 C          -2.3376  -19.9846  -45.2178 C.2       9 UNK         0.5000 
     26 O          -3.1511  -20.8753  -45.4586 O.2       9 UNK        -0.5000 
     27 CA         -2.6927  -18.5286  -45.5720 C.3       9 UNK         0.1400 
     28 CB         -3.1590  -17.7582  -44.3287 C.3       9 UNK        -0.1800 
     29 N          -1.5851  -17.8165  -46.2086 N.am      9 UNK        -0.5000 
     30 C          -1.0263  -18.1714  -47.3753 C.2       8 UNK         0.5000 
     31 O          -1.4144  -19.1155  -48.0633 O.2       8 UNK        -0.5000 
     32 CA          0.2097  -17.3679  -47.8111 C.3       8 UNK         0.1400 
     33 CB         -0.2040  -16.0286  -48.4379 C.3       8 UNK        -0.1800 
     34 N           1.1246  -17.1333  -46.6926 N.am      8 UNK        -0.5000 
     35 C           1.8102  -18.1011  -46.0673 C.2       7 UNK         0.5000 
     36 O           1.7670  -19.2856  -46.3911 O.2       7 UNK        -0.5000 
     37 CA          2.6175  -17.6898  -44.8230 C.3       7 UNK         0.1400 
     38 CB          4.0084  -17.1598  -45.2005 C.3       7 UNK        -0.1800 
     39 N           1.8996  -16.7092  -44.0055 N.am      7 UNK        -0.5000 
     40 C           0.7952  -17.0192  -43.3088 C.2       6 UNK         0.5000 
     41 O           0.3158  -18.1515  -43.2698 O.2       6 UNK        -0.5000 
     42 CA          0.0778  -15.8903  -42.5515 C.3       6 UNK         0.1400 
     43 CB          0.5796  -15.8293  -41.1024 C.3       6 UNK        -0.1800 
     44 N           0.1884  -14.5759  -43.1890 N.am      6 UNK        -0.5000 
     45 C          -0.3014  -14.2817  -44.4045 C.2       5 UNK         0.5000 
     46 O          -0.8482  -15.1232  -45.1209 O.2       5 UNK        -0.5000 
     47 CA         -0.1417  -12.8330  -44.9243 C.3       5 UNK         0.1400 
     48 CB         -1.3166  -12.3973  -45.8248 C.3       5 UNK        -0.1800 
     49 N           0.1237  -11.8392  -43.8757 N.am      5 UNK        -0.5000 
     50 C          -0.6963  -11.4687  -42.8806 C.2       4 UNK         0.5000 
     51 O          -1.8420  -11.9001  -42.7410 O.2       4 UNK        -0.5000 
     52 CA         -0.1191  -10.4589  -41.8591 C.3       4 UNK         0.1400 
     53 CB         -0.9316  -10.4191  -40.5477 C.3       4 UNK        -0.1800 
     54 N           1.3091  -10.6449  -41.5504 N.am      4 UNK        -0.5000 
     55 C           1.8943  -11.7752  -41.1285 C.2       3 UNK         0.5000 
     56 O           1.3168  -12.8572  -41.0483 O.2       3 UNK        -0.5000 
     57 CA          3.3710  -11.6850  -40.7129 C.3       3 UNK         0.1400 
     58 CB          3.4824  -11.6010  -39.1833 C.3       3 UNK        -0.1800 
     59 N           4.1102  -12.8651  -41.1728 N.am      3 UNK        -0.5000 
     60 C           4.6461  -13.0759  -42.3844 C.2       2 UNK         0.5000 
     61 O           5.2154  -14.1333  -42.6577 O.2       2 UNK        -0.5000 
     62 CA          4.6165  -11.9377  -43.4313 C.3       2 UNK         0.1400 
     63 CB          5.7903  -10.9692  -43.2001 C.3       2 UNK        -0.1800 
     64 N           4.6789  -12.3767  -44.8234 N.am      2 UNK        -0.5000 
     65 C           3.8597  -13.2262  -45.4598 C.2       1 UNK         0.5000 
     66 O           2.9726  -13.8854  -44.9127 O.2       1 UNK        -0.5000 
     67 C          -1.1655  -22.8259  -48.6464 C.2       11 UNK         0.5000 
     68 O          -1.3343  -23.9614  -49.0916 O.2       11 UNK        -0.5000 
     69 N          -2.1321  -21.8987  -48.5812 N.am      12 UNK        -0.5000 
     70 CA         -3.5166  -22.1175  -49.0000 C.3       12 UNK         0.1400 
     71 CB         -4.3004  -20.8011  -48.8998 C.3       12 UNK        -0.1800 
     72 C          -4.2092  -23.2286  -48.1913 C.2       12 UNK         0.5000 
     73 O          -4.8742  -24.0780  -48.7823 O.2       12 UNK        -0.5000 
     74 N          -4.0124  -23.2269  -46.8650 N.am      13 UNK        -0.5000 
     75 CA         -4.5244  -24.2412  -45.9438 C.3       13 UNK         0.1400 
     76 CB         -4.2853  -23.7965  -44.4933 C.3       13 UNK        -0.1800 
     77 C          -3.9222  -25.6344  -46.1948 C.2       13 UNK         0.5000 
     78 O          -4.6681  -26.6131  -46.2317 O.2       13 UNK        -0.5000 
     79 N          -2.5996  -25.7012  -46.4075 N.am      14 UNK        -0.5000 
     80 CA         -1.8703  -26.9292  -46.7409 C.3       14 UNK         0.1400 
     81 CB         -0.3603  -26.6478  -46.7342 C.3       14 UNK        -0.1800 
     82 C          -2.3033  -27.5384  -48.0882 C.2       14 UNK         0.5000 
     83 O          -2.3782  -28.7612  -48.2110 O.2       14 UNK        -0.5000 
     84 N          -2.6213  -26.6709  -49.0562 N.am      15 UNK        -0.5000 
     85 CA         -3.1735  -27.0232  -50.3636 C.3       15 UNK         0.1400 
     86 CB         -2.8017  -25.9098  -51.3523 C.3       15 UNK        -0.1800 
     87 C          -4.7006  -27.2562  -50.3477 C.2       15 UNK         0.5000 
     88 O          -5.2729  -27.5220  -51.4054 O.2       15 UNK        -0.5000 
     89 N          -5.3451  -27.1262  -49.1764 N.am      16 UNK        -0.5000 
     90 CA         -6.7844  -27.2785  -48.9233 C.3       16 UNK         0.1400 
     91 CB         -7.1964  -28.7582  -49.0645 C.3       16 UNK        -0.1800 
     92 C          -7.6651  -26.3304  -49.7684 C.2       16 UNK         0.5000 
     93 O          -8.7855  -26.6892  -50.1342 O.2       16 UNK        -0.5000 
     94 N          -7.1199  -25.1473  -50.0869 N.am      17 UNK        -0.5000 
     95 CA         -7.6606  -24.0945  -50.9521 C.3       17 UNK         0.1400 
     96 CB         -8.9337  -23.4801  -50.3363 C.3       17 UNK        -0.1800 
     97 C          -7.8609  -24.5054  -52.4294 C.2       17 UNK         0.5000 
     98 O          -8.4589  -23.7399  -53.1873 O.2       17 UNK        -0.5000 
     99 N          -7.3427  -25.6743  -52.8373 N.am      18 UNK        -0.5000 
    100 CA        -7.3717  -26.1548  -54.2228 C.3       18 UNK         0.1400 
    101 CB        -7.2107  -27.6826  -54.2291 C.3       18 UNK        -0.1800 
    102 C         -6.2864  -25.4910  -55.0930 C.2       18 UNK         0.5000 
    103 O         -6.3967  -25.4941  -56.3196 O.2       18 UNK        -0.5000 
    104 N         -5.2691  -24.9260  -54.4383 N.am      19 UNK        -0.5000 
    105 CA        -4.1786  -24.1459  -55.0007 C.3       19 UNK         0.1400 
    106 CB        -3.0677  -25.0883  -55.4999 C.3       19 UNK        -0.1800 
    107 C         -3.6741  -23.1988  -53.9005 C.2       19 UNK         0.5000 
    108 O         -4.1308  -23.2905  -52.7576 O.2       19 UNK        -0.5000 
    109 N         -2.7493  -22.3008  -54.2660 N.am      20 UNK        -0.5000 
    110 CA        -2.0163  -21.3732  -53.3896 C.3       20 UNK         0.1400 
    111 CB        -1.1055  -22.1542  -52.4212 C.3       20 UNK        -0.1800 
    112 C         -2.8801  -20.3302  -52.6454 C.2       20 UNK         0.5000 
    113 O         -2.3612  -19.6201  -51.7844 O.2       20 UNK        -0.5000 
    114 N         -4.1640  -20.2116  -53.0067 N.am      21 UNK        -0.5000 
    115 CA        -5.1351  -19.2747  -52.4415 C.3       21 UNK         0.1400 
    116 CB        -6.5479  -19.8512  -52.6458 C.3       21 UNK        -0.1800 
    117 C         -4.9645  -17.8597  -53.0329 C.2       21 UNK         0.5000 
    118 O         -5.8940  -17.3144  -53.6305 O.2       21 UNK        -0.5000 
    119 N         -3.7574  -17.3062  -52.8795 N.am      22 UNK        -0.5000 
    120 CA        -3.3472  -15.9853  -53.3777 C.3       22 UNK         0.1400 
    121 C         -3.8732  -14.7713  -52.5541 C.2       22 UNK         0.5000 
    122 N         -4.4848  -14.9664  -51.3919 N.am      22 UNK        -0.7600 
    123 O         -3.7397  -13.6303  -52.9886 O.2       22 UNK        -0.5000 
    124 C124       -1.8144  -15.9208  -53.6061 C.3       23 UNK        -0.0398 
    125 S125       -0.8259  -16.2464  -52.1029 S.3       23 UNK        -0.2404 
    126 C126        0.3969  -17.4495  -52.7184 C.3       23 UNK        -0.0205 
    127 H127        4.9339   -9.7206  -48.6215 H         1 UNK         0.0600 
    128 H128        3.2522   -9.3415  -49.0034 H         1 UNK         0.0600 
    129 H129        3.9535   -8.8050  -47.4727 H         1 UNK         0.0600 
    130 H130        5.2041  -11.8317  -48.0133 H         1 UNK         0.3000 
    131 H131        4.9863  -13.8453  -47.1377 H         1 UNK         0.0600 
    132 H132        2.8328  -15.0700  -47.3582 H         1 UNK         0.0800 
    133 H133        1.9743  -13.5748  -47.5947 H         1 UNK         0.0800 
    134 H134        4.9780  -15.5894  -50.3840 H         1 UNK         0.0800 
    135 H135        4.5664  -16.0246  -48.7473 H         1 UNK         0.0800 
    136 H136        1.9856  -15.6465  -51.4584 H         1 UNK         0.1150 
    137 H137        1.3367  -19.8569  -51.8271 H         1 UNK         0.1150 
    138 H138        4.4586  -18.3960  -49.2839 H         1 UNK         0.1150 
    139 H139        3.1119  -21.3624  -51.0638 H         1 UNK         0.0800 
    140 H140        4.4837  -20.7315  -50.1974 H         1 UNK         0.0800 
    141 H141        0.9506  -22.0457  -50.0944 H         1 UNK         0.0800 
    142 H142        0.5244  -20.5905  -49.2192 H         1 UNK         0.0800 
    143 H143        0.7715  -23.3643  -47.9445 H         1 UNK         0.0600 
    144 H144        0.4455  -20.8457  -46.6925 H         1 UNK         0.3000 
    145 H145       -1.2831  -22.0474  -43.7601 H         1 UNK         0.0600 
    146 H146        0.6218  -20.8754  -42.7145 H         1 UNK         0.0600 
    147 H147        1.1654  -22.3899  -43.4193 H         1 UNK         0.0600 
    148 H148        1.5039  -20.8720  -44.2399 H         1 UNK         0.0600 
    149 H149       -0.5295  -19.4163  -44.4706 H         1 UNK         0.3000 
    150 H150       -3.5188  -18.5522  -46.2856 H         1 UNK         0.0600 
    151 H151       -4.0456  -18.2224  -43.8952 H         1 UNK         0.0600 
    152 H152       -3.4159  -16.7273  -44.5736 H         1 UNK         0.0600 
    153 H153       -2.3912  -17.7389  -43.5562 H         1 UNK         0.0600 
    154 H154       -1.2258  -16.9982  -45.7266 H         1 UNK         0.3000 
    155 H155        0.7354  -17.9519  -48.5699 H         1 UNK         0.0600 
    156 H156        0.6412  -15.5424  -48.9220 H         1 UNK         0.0600 
    157 H157       -0.6146  -15.3380  -47.7028 H         1 UNK         0.0600 
    158 H158       -0.9690  -16.1785  -49.1994 H         1 UNK         0.0600 
    159 H159        1.1358  -16.2036  -46.3007 H         1 UNK         0.3000 
    160 H160        2.7657  -18.5871  -44.2180 H         1 UNK         0.0600 
    161 H161        3.9536  -16.2682  -45.8199 H         1 UNK         0.0600 
    162 H162        4.5698  -17.9098  -45.7589 H         1 UNK         0.0600 
    163 H163        4.5894  -16.9115  -44.3119 H         1 UNK         0.0600 
    164 H164        2.2296  -15.7504  -44.0237 H         1 UNK         0.3000 
    165 H165       -0.9833  -16.1427  -42.5216 H         1 UNK         0.0600 
    166 H166        1.6291  -15.5366  -41.0530 H         1 UNK         0.0600 
    167 H167       -0.0005  -15.1183  -40.5140 H         1 UNK         0.0600 
    168 H168        0.4871  -16.8006  -40.6145 H         1 UNK         0.0600 
    169 H169        0.6195  -13.8438  -42.6334 H         1 UNK         0.3000 
    170 H170        0.7435  -12.8371  -45.5578 H         1 UNK         0.0600 
    171 H171       -2.2720  -12.4486  -45.3025 H         1 UNK         0.0600 
    172 H172       -1.3932  -13.0384  -46.7037 H         1 UNK         0.0600 
    173 H173       -1.1809  -11.3768  -46.1829 H         1 UNK         0.0600 
    174 H174        1.0465  -11.4303  -43.8972 H         1 UNK         0.3000 
    175 H175       -0.2065   -9.4781  -42.3287 H         1 UNK         0.0600 
    176 H176       -0.5306   -9.6769  -39.8574 H         1 UNK         0.0600 
    177 H177       -1.9725  -10.1536  -40.7360 H         1 UNK         0.0600 
    178 H178       -0.9251  -11.3852  -40.0416 H         1 UNK         0.0600 
    179 H179        1.8668   -9.8031  -41.5960 H         1 UNK         0.3000 
    180 H180        3.8064  -10.7734  -41.1217 H         1 UNK         0.0600 
    181 H181        3.0575  -12.4809  -38.6980 H         1 UNK         0.0600 
    182 H182        2.9530  -10.7277  -38.7997 H         1 UNK         0.0600 
    183 H183        4.5224  -11.5139  -38.8680 H         1 UNK         0.0600 
    184 H184        4.1272  -13.6310  -40.5166 H         1 UNK         0.3000 
    185 H185        3.6800  -11.3882  -43.3431 H         1 UNK         0.0600 
    186 H186        5.7151  -10.0957  -43.8482 H         1 UNK         0.0600 
    187 H187        5.8242  -10.6051  -42.1734 H         1 UNK         0.0600 
    188 H188        6.7481  -11.4518  -43.3991 H         1 UNK         0.0600 
    189 H189        5.3714  -11.9085  -45.3886 H         1 UNK         0.3000 
    190 H190       -1.9025  -20.9700  -48.2356 H         1 UNK         0.3000 
    191 H191       -3.5011  -22.4248  -50.0477 H         1 UNK         0.0600 
    192 H192       -3.8036  -20.0059  -49.4548 H         1 UNK         0.0600 
    193 H193       -5.3041  -20.9138  -49.3115 H         1 UNK         0.0600 
    194 H194       -4.4017  -20.4675  -47.8670 H         1 UNK         0.0600 
    195 H195       -3.4936  -22.4579  -46.4482 H         1 UNK         0.3000 
    196 H196       -5.6026  -24.3148  -46.1003 H         1 UNK         0.0600 
    197 H197       -4.6698  -24.5351  -43.7889 H         1 UNK         0.0600 
    198 H198       -4.7899  -22.8534  -44.2829 H         1 UNK         0.0600 
    199 H199       -3.2242  -23.6616  -44.2827 H         1 UNK         0.0600 
    200 H200       -2.0434  -24.8540  -46.3210 H         1 UNK         0.3000 
    201 H201       -2.0831  -27.6644  -45.9623 H         1 UNK         0.0600 
    202 H202       -0.0289  -26.3012  -45.7553 H         1 UNK         0.0600 
    203 H203       -0.0900  -25.8868  -47.4671 H         1 UNK         0.0600 
    204 H204        0.2074  -27.5488  -46.9697 H         1 UNK         0.0600 
    205 H205       -2.4739  -25.6810  -48.8858 H         1 UNK         0.3000 
    206 H206       -2.7117  -27.9503  -50.7085 H         1 UNK         0.0600 
    207 H207       -1.7206  -25.8066  -51.4452 H         1 UNK         0.0600 
    208 H208       -3.1968  -26.1111  -52.3481 H         1 UNK         0.0600 
    209 H209       -3.1986  -24.9494  -51.0237 H         1 UNK         0.0600 
    210 H210       -4.7966  -26.8730  -48.3637 H         1 UNK         0.3000 
    211 H211       -6.9424  -26.9883  -47.8838 H         1 UNK         0.0600 
    212 H212       -7.1181  -29.1025  -50.0963 H         1 UNK         0.0600 
    213 H213       -8.2279  -28.9111  -48.7452 H         1 UNK         0.0600 
    214 H214       -6.5690  -29.4016  -48.4476 H         1 UNK         0.0600 
    215 H215       -6.2037  -24.9363  -49.6922 H         1 UNK         0.3000 
    216 H216       -6.8975  -23.3147  -50.9681 H         1 UNK         0.0600 
    217 H217       -8.7624  -23.1710  -49.3052 H         1 UNK         0.0600 
    218 H218       -9.7672  -24.1828  -50.3432 H         1 UNK         0.0600 
    219 H219       -9.2493  -22.5948  -50.8896 H         1 UNK         0.0600 
    220 H220       -6.8459  -26.2536  -52.1696 H         1 UNK         0.3000 
    221 H221       -8.3431  -25.9148  -54.6601 H         1 UNK         0.0600 
    222 H222       -6.2316  -27.9866  -53.8578 H         1 UNK         0.0600 
    223 H223       -7.9688  -28.1630  -53.6102 H         1 UNK         0.0600 
    224 H224       -7.3142  -28.0803  -55.2393 H         1 UNK         0.0600 
    225 H225       -5.2898  -24.9141  -53.4258 H         1 UNK         0.3000 
    226 H226       -4.5540  -23.5410  -55.8285 H         1 UNK         0.0600 
    227 H227       -3.4441  -25.7766  -56.2567 H         1 UNK         0.0600 
    228 H228       -2.2483  -24.5300  -55.9535 H         1 UNK         0.0600 
    229 H229       -2.6495  -25.6832  -54.6875 H         1 UNK         0.0600 
    230 H230       -2.4664  -22.2816  -55.2362 H         1 UNK         0.3000 
    231 H231       -1.3672  -20.7929  -54.0468 H         1 UNK         0.0600 
    232 H232       -0.4841  -21.4745  -51.8396 H         1 UNK         0.0600 
    233 H233       -0.4360  -22.8238  -52.9607 H         1 UNK         0.0600 
    234 H234       -1.6814  -22.7539  -51.7165 H         1 UNK         0.0600 
    235 H235       -4.5027  -20.8204  -53.7360 H         1 UNK         0.3000 
    236 H236       -4.9661  -19.1931  -51.3669 H         1 UNK         0.0600 
    237 H237       -7.3037  -19.2026  -52.2013 H         1 UNK         0.0600 
    238 H238       -6.7894  -19.9631  -53.7035 H         1 UNK         0.0600 
    239 H239       -6.6449  -20.8303  -52.1755 H         1 UNK         0.0600 
    240 H240       -3.0509  -17.8343  -52.3758 H         1 UNK         0.3000 
    241 H241       -3.8051  -15.8676  -54.3617 H         1 UNK         0.0600 
    242 H242       -4.5955  -15.8967  -51.0234 H         1 UNK         0.3800 
    243 H243       -4.8278  -14.1744  -50.8718 H         1 UNK         0.3800 
    244 H244       -1.5419  -16.6447  -54.3751 H         1 UNK         0.0800 
    245 H245       -1.5241  -14.9484  -54.0074 H         1 UNK         0.0800 
    246 H246        0.8443  -17.0709  -53.6383 H         1 UNK         0.0800 
    247 H247       -0.1209  -18.3744  -52.9765 H         1 UNK         0.0800 
@<TRIPOS>BOND
     1    1    2 1    
     2    1  127 1    
     3    1  128 1    
     4    1  129 1    
     5    2    3 2    
     6    2    4 am   BACKBONE|DICT|INTERRES
     7    4    5 1    
     8    4  130 1    
     9    5    6 1    
    10    5   65 1    
    11    5  131 1    
    12    6    7 1    
    13    6  132 1    
    14    6  133 1    
    15    7    8 1    
    16    8    9 1    
    17    8  134 1    
    18    8  135 1    
    19    9   10 ar   
    20    9   14 ar   
    21   10   11 ar   
    22   10  136 1    
    23   11   12 ar   
    24   11  126 1    
    25   12   13 ar   
    26   12  137 1    
    27   13   14 ar   
    28   13   15 1    
    29   14  138 1    
    30   15   16 1    
    31   15  139 1    
    32   15  140 1    
    33   16   17 1    
    34   17   18 1    
    35   17  141 1    
    36   17  142 1    
    37   18   19 1    
    38   18   67 1    
    39   18  143 1    
    40   19   20 am   BACKBONE|DICT|INTERRES
    41   19  144 1    
    42   20   21 2    
    43   20   22 1    
    44   22   23 1    
    45   22   24 1    
    46   22  145 1    
    47   23  146 1    
    48   23  147 1    
    49   23  148 1    
    50   24   25 am   BACKBONE|DICT|INTERRES
    51   24  149 1    
    52   25   26 2    
    53   25   27 1    
    54   27   28 1    
    55   27   29 1    
    56   27  150 1    
    57   28  151 1    
    58   28  152 1    
    59   28  153 1    
    60   29   30 am   BACKBONE|DICT|INTERRES
    61   29  154 1    
    62   30   31 2    
    63   30   32 1    
    64   32   33 1    
    65   32   34 1    
    66   32  155 1    
    67   33  156 1    
    68   33  157 1    
    69   33  158 1    
    70   34   35 am   BACKBONE|DICT|INTERRES
    71   34  159 1    
    72   35   36 2    
    73   35   37 1    
    74   37   38 1    
    75   37   39 1    
    76   37  160 1    
    77   38  161 1    
    78   38  162 1    
    79   38  163 1    
    80   39   40 am   BACKBONE|DICT|INTERRES
    81   39  164 1    
    82   40   41 2    
    83   40   42 1    
    84   42   43 1    
    85   42   44 1    
    86   42  165 1    
    87   43  166 1    
    88   43  167 1    
    89   43  168 1    
    90   44   45 am   BACKBONE|DICT|INTERRES
    91   44  169 1    
    92   45   46 2    
    93   45   47 1    
    94   47   48 1    
    95   47   49 1    
    96   47  170 1    
    97   48  171 1    
    98   48  172 1    
    99   48  173 1    
   100   49   50 am   BACKBONE|DICT|INTERRES
   101   49  174 1    
   102   50   51 2    
   103   50   52 1    
   104   52   53 1    
   105   52   54 1    
   106   52  175 1    
   107   53  176 1    
   108   53  177 1    
   109   53  178 1    
   110   54   55 am   BACKBONE|DICT|INTERRES
   111   54  179 1    
   112   55   56 2    
   113   55   57 1    
   114   57   58 1    
   115   57   59 1    
   116   57  180 1    
   117   58  181 1    
   118   58  182 1    
   119   58  183 1    
   120   59   60 am   BACKBONE|DICT|INTERRES
   121   59  184 1    
   122   60   61 2    
   123   60   62 1    
   124   62   63 1    
   125   62   64 1    
   126   62  185 1    
   127   63  186 1    
   128   63  187 1    
   129   63  188 1    
   130   64   65 am   BACKBONE|DICT|INTERRES
   131   64  189 1    
   132   65   66 2    
   133   67   68 2    
   134   67   69 am   BACKBONE|DICT|INTERRES
   135   69   70 1    
   136   69  190 1    
   137   70   71 1    
   138   70   72 1    
   139   70  191 1    
   140   71  192 1    
   141   71  193 1    
   142   71  194 1    
   143   72   73 2    
   144   72   74 am   BACKBONE|DICT|INTERRES
   145   74   75 1    
   146   74  195 1    
   147   75   76 1    
   148   75   77 1    
   149   75  196 1    
   150   76  197 1    
   151   76  198 1    
   152   76  199 1    
   153   77   78 2    
   154   77   79 am   BACKBONE|DICT|INTERRES
   155   79   80 1    
   156   79  200 1    
   157   80   81 1    
   158   80   82 1    
   159   80  201 1    
   160   81  202 1    
   161   81  203 1    
   162   81  204 1    
   163   82   83 2    
   164   82   84 am   BACKBONE|DICT|INTERRES
   165   84   85 1    
   166   84  205 1    
   167   85   86 1    
   168   85   87 1    
   169   85  206 1    
   170   86  207 1    
   171   86  208 1    
   172   86  209 1    
   173   87   88 2    
   174   87   89 am   BACKBONE|DICT|INTERRES
   175   89   90 1    
   176   89  210 1    
   177   90   91 1    
   178   90   92 1    
   179   90  211 1    
   180   91  212 1    
   181   91  213 1    
   182   91  214 1    
   183   92   93 2    
   184   92   94 am   BACKBONE|DICT|INTERRES
   185   94   95 1    
   186   94  215 1    
   187   95   96 1    
   188   95   97 1    
   189   95  216 1    
   190   96  217 1    
   191   96  218 1    
   192   96  219 1    
   193   97   98 2    
   194   97   99 am   BACKBONE|DICT|INTERRES
   195   99  100 1    
   196   99  220 1    
   197  100  101 1    
   198  100  102 1    
   199  100  221 1    
   200  101  222 1    
   201  101  223 1    
   202  101  224 1    
   203  102  103 2    
   204  102  104 am   BACKBONE|DICT|INTERRES
   205  104  105 1    
   206  104  225 1    
   207  105  106 1    
   208  105  107 1    
   209  105  226 1    
   210  106  227 1    
   211  106  228 1    
   212  106  229 1    
   213  107  108 2    
   214  107  109 am   BACKBONE|DICT|INTERRES
   215  109  110 1    
   216  109  230 1    
   217  110  111 1    
   218  110  112 1    
   219  110  231 1    
   220  111  232 1    
   221  111  233 1    
   222  111  234 1    
   223  112  113 2    
   224  112  114 am   BACKBONE|DICT|INTERRES
   225  114  115 1    
   226  114  235 1    
   227  115  116 1    
   228  115  117 1    
   229  115  236 1    
   230  116  237 1    
   231  116  238 1    
   232  116  239 1    
   233  117  118 2    
   234  117  119 am   BACKBONE|DICT|INTERRES
   235  119  120 1    
   236  119  240 1    
   237  120  121 1    
   238  120  124 1    
   239  120  241 1    
   240  121  122 am   BACKBONE|DICT|INTERRES
   241  121  123 2    
   242  122  242 1    
   243  122  243 1    
   244  124  125 1    
   245  124  244 1    
   246  124  245 1    
   247  125  126 1    
   248  126  246 1    
   249  126  247 1    
@<TRIPOS>SUBSTRUCTURE
     1 UNK         1 GROUP             0       ****    0 ROOT    
