@<TRIPOS>MOLECULE
3R540
247   249    1
SMALL
USER_CHARGES


@<TRIPOS>ATOM
      1 CA         -1.2707  -10.6961  -51.5084 C.3       0 UNK        -0.1800 
      2 C          -0.8264  -11.1170  -50.1158 C.2       0 UNK         0.5000 
      3 O          -1.4240  -10.6934  -49.1268 O.2       0 UNK        -0.5000 
      4 N           0.2074  -11.9639  -50.0276 N.am      1 UNK        -0.5000 
      5 CA          0.7686  -12.4740  -48.7697 C.3       1 UNK         0.1400 
      6 C6          2.1267  -13.1858  -48.9812 C.3       23 UNK        -0.0398 
      7 S7          2.0591  -14.6092  -50.1243 S.3       23 UNK        -0.2404 
      8 C8          3.0224  -15.8338  -49.1872 C.3       23 UNK        -0.0205 
      9 C9          3.0311  -17.1768  -49.8962 C.ar      23 UNK        -0.0193 
     10 C10         3.8451  -17.3743  -51.0127 C.ar      23 UNK        -0.1150 
     11 C11         3.8091  -18.5834  -51.7129 C.ar      23 UNK        -0.0193 
     12 C12         2.9808  -19.6177  -51.2646 C.ar      23 UNK        -0.1150 
     13 C13         2.1720  -19.4348  -50.1390 C.ar      23 UNK        -0.0193 
     14 C14         2.2023  -18.2127  -49.4615 C.ar      23 UNK        -0.1150 
     15 C15         1.2024  -20.5161  -49.6915 C.3       23 UNK        -0.0205 
     16 S16         1.7017  -21.2686  -48.1084 S.3       23 UNK        -0.2404 
     17 C17         0.0763  -21.6416  -47.3662 C.3       23 UNK        -0.0398 
     18 CA         -0.1557  -23.1388  -47.0416 C.3       11 UNK         0.1400 
     19 N           0.8803  -23.7139  -46.1809 N.am      11 UNK        -0.5000 
     20 C           1.0726  -25.0294  -46.0032 C.2       10 UNK         0.5000 
     21 O           0.4559  -25.8987  -46.6179 O.2       10 UNK        -0.5000 
     22 CA          2.1059  -25.4511  -44.9399 C.3       10 UNK         0.1400 
     23 CB          3.4983  -25.5946  -45.5723 C.3       10 UNK        -0.1800 
     24 N           2.1870  -24.5209  -43.8129 N.am      10 UNK        -0.5000 
     25 C           1.1959  -24.2772  -42.9427 C.2       9 UNK         0.5000 
     26 O           0.1143  -24.8610  -42.9588 O.2       9 UNK        -0.5000 
     27 CA          1.4314  -23.1416  -41.9270 C.3       9 UNK         0.1400 
     28 CB          2.0631  -23.6910  -40.6398 C.3       9 UNK        -0.1800 
     29 N           2.2703  -22.0634  -42.4605 N.am      9 UNK        -0.5000 
     30 C           1.9587  -21.3189  -43.5298 C.2       8 UNK         0.5000 
     31 O           0.9009  -21.4355  -44.1545 O.2       8 UNK        -0.5000 
     32 CA          3.0600  -20.3673  -44.0288 C.3       8 UNK         0.1400 
     33 CB          4.1309  -21.1606  -44.7963 C.3       8 UNK        -0.1800 
     34 N           2.5485  -19.3202  -44.9101 N.am      8 UNK        -0.5000 
     35 C           1.8216  -18.2710  -44.5112 C.2       7 UNK         0.5000 
     36 O           1.4657  -18.0802  -43.3452 O.2       7 UNK        -0.5000 
     37 CA          1.4371  -17.2659  -45.6142 C.3       7 UNK         0.1400 
     38 CB          0.1009  -17.6501  -46.2676 C.3       7 UNK        -0.1800 
     39 N           1.3418  -15.8936  -45.1170 N.am      7 UNK        -0.5000 
     40 C           2.3548  -15.1743  -44.6116 C.2       6 UNK         0.5000 
     41 O           3.5236  -15.5633  -44.6005 O.2       6 UNK        -0.5000 
     42 CA          2.0164  -13.7873  -44.0266 C.3       6 UNK         0.1400 
     43 CB          2.7264  -12.6683  -44.8067 C.3       6 UNK        -0.1800 
     44 N           0.5791  -13.5177  -44.0435 N.am      6 UNK        -0.5000 
     45 C          -0.2651  -13.7009  -43.0212 C.2       5 UNK         0.5000 
     46 O           0.0861  -14.0948  -41.9079 O.2       5 UNK        -0.5000 
     47 CA         -1.7528  -13.4048  -43.3116 C.3       5 UNK         0.1400 
     48 CB         -2.5903  -13.1747  -42.0364 C.3       5 UNK        -0.1800 
     49 N          -1.9387  -12.3129  -44.2739 N.am      5 UNK        -0.5000 
     50 C          -1.5991  -11.0220  -44.1279 C.2       4 UNK         0.5000 
     51 O          -1.1135  -10.5525  -43.0981 O.2       4 UNK        -0.5000 
     52 CA         -1.8132  -10.0925  -45.3426 C.3       4 UNK         0.1400 
     53 CB         -0.4580   -9.6552  -45.9207 C.3       4 UNK        -0.1800 
     54 N          -2.6043  -10.6993  -46.4154 N.am      4 UNK        -0.5000 
     55 C          -3.9266  -10.9126  -46.3758 C.2       3 UNK         0.5000 
     56 O          -4.6520  -10.5501  -45.4494 O.2       3 UNK        -0.5000 
     57 CA         -4.5276  -11.7072  -47.5498 C.3       3 UNK         0.1400 
     58 CB         -4.9351  -10.7696  -48.6966 C.3       3 UNK        -0.1800 
     59 N          -3.6091  -12.7307  -48.0565 N.am      3 UNK        -0.5000 
     60 C          -3.2907  -13.8569  -47.4017 C.2       2 UNK         0.5000 
     61 O          -3.7516  -14.1612  -46.3018 O.2       2 UNK        -0.5000 
     62 CA         -2.2484  -14.7744  -48.0658 C.3       2 UNK         0.1400 
     63 CB         -2.9024  -15.6527  -49.1405 C.3       2 UNK        -0.1800 
     64 N          -1.1418  -14.0258  -48.6593 N.am      2 UNK        -0.5000 
     65 C          -0.2320  -13.3314  -47.9620 C.2       1 UNK         0.5000 
     66 O          -0.1951  -13.3071  -46.7317 O.2       1 UNK        -0.5000 
     67 C          -1.5358  -23.3177  -46.3816 C.2       11 UNK         0.5000 
     68 O          -2.4676  -23.7883  -47.0299 O.2       11 UNK        -0.5000 
     69 N          -1.6308  -22.9505  -45.0948 N.am      12 UNK        -0.5000 
     70 CA         -2.8608  -22.9912  -44.3004 C.3       12 UNK         0.1400 
     71 CB         -2.6053  -22.3093  -42.9482 C.3       12 UNK        -0.1800 
     72 C          -3.4271  -24.4102  -44.0951 C.2       12 UNK         0.5000 
     73 O          -4.6465  -24.5745  -44.0530 O.2       12 UNK        -0.5000 
     74 N          -2.5383  -25.4050  -43.9761 N.am      13 UNK        -0.5000 
     75 CA         -2.8804  -26.8217  -43.8380 C.3       13 UNK         0.1400 
     76 CB         -1.6587  -27.5727  -43.2850 C.3       13 UNK        -0.1800 
     77 C          -3.3584  -27.4767  -45.1500 C.2       13 UNK         0.5000 
     78 O          -3.9749  -28.5425  -45.0962 O.2       13 UNK        -0.5000 
     79 N          -3.0532  -26.8568  -46.2964 N.am      14 UNK        -0.5000 
     80 CA         -3.4368  -27.3212  -47.6276 C.3       14 UNK         0.1400 
     81 CB         -2.3556  -26.8698  -48.6248 C.3       14 UNK        -0.1800 
     82 C          -4.8422  -26.8221  -48.0265 C.2       14 UNK         0.5000 
     83 O          -5.5330  -26.1795  -47.2311 O.2       14 UNK        -0.5000 
     84 N          -5.2504  -27.1493  -49.2604 N.am      15 UNK        -0.5000 
     85 CA         -6.5030  -26.7130  -49.8836 C.3       15 UNK         0.1400 
     86 CB         -6.6532  -27.4379  -51.2307 C.3       15 UNK        -0.1800 
     87 C          -6.5612  -25.1870  -50.0937 C.2       15 UNK         0.5000 
     88 O          -5.5191  -24.5308  -50.1259 O.2       15 UNK        -0.5000 
     89 N          -7.7756  -24.6529  -50.2832 N.am      16 UNK        -0.5000 
     90 CA         -8.0619  -23.2194  -50.4263 C.3       16 UNK         0.1400 
     91 CB         -9.5685  -23.0239  -50.6524 C.3       16 UNK        -0.1800 
     92 C          -7.2560  -22.5057  -51.5303 C.2       16 UNK         0.5000 
     93 O          -6.8291  -21.3693  -51.3301 O.2       16 UNK        -0.5000 
     94 N          -7.0206  -23.1992  -52.6524 N.am      17 UNK        -0.5000 
     95 CA         -6.2093  -22.7120  -53.7702 C.3       17 UNK         0.1400 
     96 CB         -6.3932  -23.6516  -54.9713 C.3       17 UNK        -0.1800 
     97 C          -4.7145  -22.5681  -53.4216 C.2       17 UNK         0.5000 
     98 O          -4.0582  -21.6649  -53.9392 O.2       17 UNK        -0.5000 
     99 N          -4.2102  -23.4468  -52.5450 N.am      18 UNK        -0.5000 
    100 CA        -2.8417  -23.4143  -52.0315 C.3       18 UNK         0.1400 
    101 CB        -2.4196  -24.8301  -51.6166 C.3       18 UNK        -0.1800 
    102 C         -2.7003  -22.4263  -50.8617 C.2       18 UNK         0.5000 
    103 O         -1.6647  -21.7754  -50.7438 O.2       18 UNK        -0.5000 
    104 N         -3.7515  -22.2909  -50.0428 N.am      19 UNK        -0.5000 
    105 CA        -3.8388  -21.3085  -48.9616 C.3       19 UNK         0.1400 
    106 CB        -5.0796  -21.5949  -48.1040 C.3       19 UNK        -0.1800 
    107 C         -3.8449  -19.8571  -49.4782 C.2       19 UNK         0.5000 
    108 O         -3.2514  -18.9867  -48.8439 O.2       19 UNK        -0.5000 
    109 N         -4.4939  -19.6361  -50.6292 N.am      20 UNK        -0.5000 
    110 CA        -4.5815  -18.3506  -51.3229 C.3       20 UNK         0.1400 
    111 CB        -5.8601  -18.3500  -52.1769 C.3       20 UNK        -0.1800 
    112 C         -3.3523  -18.0201  -52.1972 C.2       20 UNK         0.5000 
    113 O         -3.3001  -16.9224  -52.7551 O.2       20 UNK        -0.5000 
    114 N         -2.4075  -18.9600  -52.3408 N.am      21 UNK        -0.5000 
    115 CA        -1.1921  -18.8075  -53.1458 C.3       21 UNK         0.1400 
    116 CB        -0.5931  -20.2078  -53.3718 C.3       21 UNK        -0.1800 
    117 C         -0.1629  -17.8582  -52.4807 C.2       21 UNK         0.5000 
    118 O         -0.3187  -17.5394  -51.3027 O.2       21 UNK        -0.5000 
    119 N          0.8961  -17.4112  -53.1726 N.am      22 UNK        -0.5000 
    120 CA         1.2138  -17.5882  -54.6025 C.3       22 UNK         0.1400 
    121 C          1.2312  -16.2512  -55.4016 C.2       22 UNK         0.5000 
    122 N          0.8853  -15.1160  -54.8057 N.am      22 UNK        -0.7600 
    123 O          1.5316  -16.2458  -56.5923 O.2       22 UNK        -0.5000 
    124 C124        2.4945  -18.4454  -54.8156 C.3       23 UNK        -0.0398 
    125 S125        4.0657  -17.6549  -54.3100 S.3       23 UNK        -0.2404 
    126 C126        4.6450  -18.7482  -52.9710 C.3       23 UNK        -0.0205 
    127 H127       -2.3126  -10.9731  -51.6684 H         1 UNK         0.0600 
    128 H128       -0.6688  -11.1674  -52.2857 H         1 UNK         0.0600 
    129 H129       -1.1836   -9.6152  -51.6175 H         1 UNK         0.0600 
    130 H130        0.6571  -12.2944  -50.8699 H         1 UNK         0.3000 
    131 H131        0.9747  -11.5979  -48.1522 H         1 UNK         0.0600 
    132 H132        2.8489  -12.4741  -49.3832 H         1 UNK         0.0800 
    133 H133        2.5375  -13.5022  -48.0216 H         1 UNK         0.0800 
    134 H134        4.0455  -15.4765  -49.0609 H         1 UNK         0.0800 
    135 H135        2.5995  -15.9321  -48.1877 H         1 UNK         0.0800 
    136 H136        4.4771  -16.5702  -51.3632 H         1 UNK         0.1150 
    137 H137        2.9420  -20.5513  -51.8077 H         1 UNK         0.1150 
    138 H138        1.5485  -18.0601  -48.6173 H         1 UNK         0.1150 
    139 H139        0.2159  -20.0569  -49.6106 H         1 UNK         0.0800 
    140 H140        1.1128  -21.3010  -50.4436 H         1 UNK         0.0800 
    141 H141       -0.7090  -21.2943  -48.0365 H         1 UNK         0.0800 
    142 H142       -0.0186  -21.0289  -46.4704 H         1 UNK         0.0800 
    143 H143       -0.1618  -23.6884  -47.9857 H         1 UNK         0.0600 
    144 H144        1.3924  -23.0585  -45.6075 H         1 UNK         0.3000 
    145 H145        1.8016  -26.4252  -44.5510 H         1 UNK         0.0600 
    146 H146        4.2241  -25.9670  -44.8492 H         1 UNK         0.0600 
    147 H147        3.4782  -26.3004  -46.4038 H         1 UNK         0.0600 
    148 H148        3.8654  -24.6427  -45.9585 H         1 UNK         0.0600 
    149 H149        3.0443  -23.9978  -43.7186 H         1 UNK         0.3000 
    150 H150        0.4589  -22.7143  -41.6759 H         1 UNK         0.0600 
    151 H151        3.0535  -24.1096  -40.8228 H         1 UNK         0.0600 
    152 H152        1.4465  -24.4817  -40.2100 H         1 UNK         0.0600 
    153 H153        2.1614  -22.9111  -39.8845 H         1 UNK         0.0600 
    154 H154        3.1589  -21.9183  -42.0029 H         1 UNK         0.3000 
    155 H155        3.5253  -19.8920  -43.1626 H         1 UNK         0.0600 
    156 H156        3.7115  -21.6679  -45.6663 H         1 UNK         0.0600 
    157 H157        4.5920  -21.9204  -44.1643 H         1 UNK         0.0600 
    158 H158        4.9308  -20.5070  -45.1451 H         1 UNK         0.0600 
    159 H159        2.7533  -19.4312  -45.8923 H         1 UNK         0.3000 
    160 H160        2.2183  -17.2905  -46.3749 H         1 UNK         0.0600 
    161 H161       -0.7281  -17.5852  -45.5618 H         1 UNK         0.0600 
    162 H162        0.1284  -18.6708  -46.6480 H         1 UNK         0.0600 
    163 H163       -0.1215  -17.0011  -47.1143 H         1 UNK         0.0600 
    164 H164        0.4185  -15.4905  -45.0766 H         1 UNK         0.3000 
    165 H165        2.3866  -13.7711  -42.9997 H         1 UNK         0.0600 
    166 H166        3.8061  -12.8214  -44.8237 H         1 UNK         0.0600 
    167 H167        2.3832  -12.6165  -45.8391 H         1 UNK         0.0600 
    168 H168        2.5441  -11.6963  -44.3480 H         1 UNK         0.0600 
    169 H169        0.1967  -13.2386  -44.9453 H         1 UNK         0.3000 
    170 H170       -2.1442  -14.2988  -43.7991 H         1 UNK         0.0600 
    171 H171       -2.5774  -14.0579  -41.3967 H         1 UNK         0.0600 
    172 H172       -2.2125  -12.3400  -41.4457 H         1 UNK         0.0600 
    173 H173       -3.6322  -12.9687  -42.2818 H         1 UNK         0.0600 
    174 H174       -2.3181  -12.5907  -45.1689 H         1 UNK         0.3000 
    175 H175       -2.3387   -9.2033  -44.9888 H         1 UNK         0.0600 
    176 H176       -0.5859   -9.0039  -46.7857 H         1 UNK         0.0600 
    177 H177        0.1230   -9.1034  -45.1808 H         1 UNK         0.0600 
    178 H178        0.1391  -10.5128  -46.2296 H         1 UNK         0.0600 
    179 H179       -2.1026  -10.9588  -47.2590 H         1 UNK         0.3000 
    180 H180       -5.4278  -12.2071  -47.1858 H         1 UNK         0.0600 
    181 H181       -4.0786  -10.2357  -49.1089 H         1 UNK         0.0600 
    182 H182       -5.6507  -10.0221  -48.3517 H         1 UNK         0.0600 
    183 H183       -5.4088  -11.3219  -49.5083 H         1 UNK         0.0600 
    184 H184       -3.1417  -12.5257  -48.9274 H         1 UNK         0.3000 
    185 H185       -1.8447  -15.4273  -47.2903 H         1 UNK         0.0600 
    186 H186       -3.7352  -16.2193  -48.7225 H         1 UNK         0.0600 
    187 H187       -3.2887  -15.0622  -49.9720 H         1 UNK         0.0600 
    188 H188       -2.1913  -16.3746  -49.5437 H         1 UNK         0.0600 
    189 H189       -1.0886  -14.0071  -49.6672 H         1 UNK         0.3000 
    190 H190       -0.8094  -22.5666  -44.6402 H         1 UNK         0.3000 
    191 H191       -3.6154  -22.4120  -44.8368 H         1 UNK         0.0600 
    192 H192       -2.2432  -21.2894  -43.0802 H         1 UNK         0.0600 
    193 H193       -3.5217  -22.2566  -42.3590 H         1 UNK         0.0600 
    194 H194       -1.8680  -22.8541  -42.3584 H         1 UNK         0.0600 
    195 H195       -1.5510  -25.1712  -43.9240 H         1 UNK         0.3000 
    196 H196       -3.6918  -26.9121  -43.1129 H         1 UNK         0.0600 
    197 H197       -1.8750  -28.6334  -43.1519 H         1 UNK         0.0600 
    198 H198       -1.3609  -27.1787  -42.3132 H         1 UNK         0.0600 
    199 H199       -0.8023  -27.4920  -43.9560 H         1 UNK         0.0600 
    200 H200       -2.6147  -25.9460  -46.2542 H         1 UNK         0.3000 
    201 H201       -3.4629  -28.4128  -47.6324 H         1 UNK         0.0600 
    202 H202       -2.5265  -27.2848  -49.6181 H         1 UNK         0.0600 
    203 H203       -2.3237  -25.7846  -48.7177 H         1 UNK         0.0600 
    204 H204       -1.3670  -27.2032  -48.3089 H         1 UNK         0.0600 
    205 H205       -4.6208  -27.6678  -49.8540 H         1 UNK         0.3000 
    206 H206       -7.3273  -27.0023  -49.2288 H         1 UNK         0.0600 
    207 H207       -6.6470  -28.5202  -51.0993 H         1 UNK         0.0600 
    208 H208       -7.5947  -27.1793  -51.7167 H         1 UNK         0.0600 
    209 H209       -5.8471  -27.1788  -51.9187 H         1 UNK         0.0600 
    210 H210       -8.5793  -25.2641  -50.2677 H         1 UNK         0.3000 
    211 H211       -7.8015  -22.7462  -49.4783 H         1 UNK         0.0600 
    212 H212       -9.9064  -23.5185  -51.5638 H         1 UNK         0.0600 
    213 H213       -9.8162  -21.9652  -50.7420 H         1 UNK         0.0600 
    214 H214      -10.1481  -23.4213  -49.8191 H         1 UNK         0.0600 
    215 H215       -7.4021  -24.1301  -52.7330 H         1 UNK         0.3000 
    216 H216       -6.5786  -21.7231  -54.0506 H         1 UNK         0.0600 
    217 H217       -5.8178  -23.3039  -55.8304 H         1 UNK         0.0600 
    218 H218       -7.4379  -23.6989  -55.2791 H         1 UNK         0.0600 
    219 H219       -6.0629  -24.6660  -54.7437 H         1 UNK         0.0600 
    220 H220       -4.8374  -24.1032  -52.0981 H         1 UNK         0.3000 
    221 H221       -2.1676  -23.0863  -52.8253 H         1 UNK         0.0600 
    222 H222       -3.1092  -25.2531  -50.8881 H         1 UNK         0.0600 
    223 H223       -2.3931  -25.4994  -52.4764 H         1 UNK         0.0600 
    224 H224       -1.4240  -24.8301  -51.1709 H         1 UNK         0.0600 
    225 H225       -4.5320  -22.9335  -50.1477 H         1 UNK         0.3000 
    226 H226       -2.9612  -21.4299  -48.3281 H         1 UNK         0.0600 
    227 H227       -5.1112  -20.9361  -47.2356 H         1 UNK         0.0600 
    228 H228       -6.0001  -21.4411  -48.6658 H         1 UNK         0.0600 
    229 H229       -5.0757  -22.6214  -47.7349 H         1 UNK         0.0600 
    230 H230       -5.0152  -20.4025  -51.0411 H         1 UNK         0.3000 
    231 H231       -4.6737  -17.5569  -50.5799 H         1 UNK         0.0600 
    232 H232       -5.8302  -19.1276  -52.9415 H         1 UNK         0.0600 
    233 H233       -5.9974  -17.3940  -52.6837 H         1 UNK         0.0600 
    234 H234       -6.7446  -18.5193  -51.5624 H         1 UNK         0.0600 
    235 H235       -2.4892  -19.8139  -51.8069 H         1 UNK         0.3000 
    236 H236       -1.5028  -18.3897  -54.1043 H         1 UNK         0.0600 
    237 H237        0.1683  -20.2057  -54.1487 H         1 UNK         0.0600 
    238 H238       -0.1250  -20.5928  -52.4665 H         1 UNK         0.0600 
    239 H239       -1.3563  -20.9195  -53.6856 H         1 UNK         0.0600 
    240 H240        1.5732  -16.8561  -52.6699 H         1 UNK         0.3000 
    241 H241        0.4107  -18.1361  -55.0888 H         1 UNK         0.0600 
    242 H242        0.6068  -15.1065  -53.8375 H         1 UNK         0.3800 
    243 H243        0.8903  -14.2581  -55.3347 H         1 UNK         0.3800 
    244 H244        2.5873  -18.7096  -55.8702 H         1 UNK         0.0800 
    245 H245        2.3892  -19.3959  -54.2926 H         1 UNK         0.0800 
    246 H246        4.6432  -19.7837  -53.3148 H         1 UNK         0.0800 
    247 H247        5.6828  -18.5038  -52.7407 H         1 UNK         0.0800 
@<TRIPOS>BOND
     1    1    2 1    
     2    1  127 1    
     3    1  128 1    
     4    1  129 1    
     5    2    3 2    
     6    2    4 am   BACKBONE|DICT|INTERRES
     7    4    5 1    
     8    4  130 1    
     9    5    6 1    
    10    5   65 1    
    11    5  131 1    
    12    6    7 1    
    13    6  132 1    
    14    6  133 1    
    15    7    8 1    
    16    8    9 1    
    17    8  134 1    
    18    8  135 1    
    19    9   10 ar   
    20    9   14 ar   
    21   10   11 ar   
    22   10  136 1    
    23   11   12 ar   
    24   11  126 1    
    25   12   13 ar   
    26   12  137 1    
    27   13   14 ar   
    28   13   15 1    
    29   14  138 1    
    30   15   16 1    
    31   15  139 1    
    32   15  140 1    
    33   16   17 1    
    34   17   18 1    
    35   17  141 1    
    36   17  142 1    
    37   18   19 1    
    38   18   67 1    
    39   18  143 1    
    40   19   20 am   BACKBONE|DICT|INTERRES
    41   19  144 1    
    42   20   21 2    
    43   20   22 1    
    44   22   23 1    
    45   22   24 1    
    46   22  145 1    
    47   23  146 1    
    48   23  147 1    
    49   23  148 1    
    50   24   25 am   BACKBONE|DICT|INTERRES
    51   24  149 1    
    52   25   26 2    
    53   25   27 1    
    54   27   28 1    
    55   27   29 1    
    56   27  150 1    
    57   28  151 1    
    58   28  152 1    
    59   28  153 1    
    60   29   30 am   BACKBONE|DICT|INTERRES
    61   29  154 1    
    62   30   31 2    
    63   30   32 1    
    64   32   33 1    
    65   32   34 1    
    66   32  155 1    
    67   33  156 1    
    68   33  157 1    
    69   33  158 1    
    70   34   35 am   BACKBONE|DICT|INTERRES
    71   34  159 1    
    72   35   36 2    
    73   35   37 1    
    74   37   38 1    
    75   37   39 1    
    76   37  160 1    
    77   38  161 1    
    78   38  162 1    
    79   38  163 1    
    80   39   40 am   BACKBONE|DICT|INTERRES
    81   39  164 1    
    82   40   41 2    
    83   40   42 1    
    84   42   43 1    
    85   42   44 1    
    86   42  165 1    
    87   43  166 1    
    88   43  167 1    
    89   43  168 1    
    90   44   45 am   BACKBONE|DICT|INTERRES
    91   44  169 1    
    92   45   46 2    
    93   45   47 1    
    94   47   48 1    
    95   47   49 1    
    96   47  170 1    
    97   48  171 1    
    98   48  172 1    
    99   48  173 1    
   100   49   50 am   BACKBONE|DICT|INTERRES
   101   49  174 1    
   102   50   51 2    
   103   50   52 1    
   104   52   53 1    
   105   52   54 1    
   106   52  175 1    
   107   53  176 1    
   108   53  177 1    
   109   53  178 1    
   110   54   55 am   BACKBONE|DICT|INTERRES
   111   54  179 1    
   112   55   56 2    
   113   55   57 1    
   114   57   58 1    
   115   57   59 1    
   116   57  180 1    
   117   58  181 1    
   118   58  182 1    
   119   58  183 1    
   120   59   60 am   BACKBONE|DICT|INTERRES
   121   59  184 1    
   122   60   61 2    
   123   60   62 1    
   124   62   63 1    
   125   62   64 1    
   126   62  185 1    
   127   63  186 1    
   128   63  187 1    
   129   63  188 1    
   130   64   65 am   BACKBONE|DICT|INTERRES
   131   64  189 1    
   132   65   66 2    
   133   67   68 2    
   134   67   69 am   BACKBONE|DICT|INTERRES
   135   69   70 1    
   136   69  190 1    
   137   70   71 1    
   138   70   72 1    
   139   70  191 1    
   140   71  192 1    
   141   71  193 1    
   142   71  194 1    
   143   72   73 2    
   144   72   74 am   BACKBONE|DICT|INTERRES
   145   74   75 1    
   146   74  195 1    
   147   75   76 1    
   148   75   77 1    
   149   75  196 1    
   150   76  197 1    
   151   76  198 1    
   152   76  199 1    
   153   77   78 2    
   154   77   79 am   BACKBONE|DICT|INTERRES
   155   79   80 1    
   156   79  200 1    
   157   80   81 1    
   158   80   82 1    
   159   80  201 1    
   160   81  202 1    
   161   81  203 1    
   162   81  204 1    
   163   82   83 2    
   164   82   84 am   BACKBONE|DICT|INTERRES
   165   84   85 1    
   166   84  205 1    
   167   85   86 1    
   168   85   87 1    
   169   85  206 1    
   170   86  207 1    
   171   86  208 1    
   172   86  209 1    
   173   87   88 2    
   174   87   89 am   BACKBONE|DICT|INTERRES
   175   89   90 1    
   176   89  210 1    
   177   90   91 1    
   178   90   92 1    
   179   90  211 1    
   180   91  212 1    
   181   91  213 1    
   182   91  214 1    
   183   92   93 2    
   184   92   94 am   BACKBONE|DICT|INTERRES
   185   94   95 1    
   186   94  215 1    
   187   95   96 1    
   188   95   97 1    
   189   95  216 1    
   190   96  217 1    
   191   96  218 1    
   192   96  219 1    
   193   97   98 2    
   194   97   99 am   BACKBONE|DICT|INTERRES
   195   99  100 1    
   196   99  220 1    
   197  100  101 1    
   198  100  102 1    
   199  100  221 1    
   200  101  222 1    
   201  101  223 1    
   202  101  224 1    
   203  102  103 2    
   204  102  104 am   BACKBONE|DICT|INTERRES
   205  104  105 1    
   206  104  225 1    
   207  105  106 1    
   208  105  107 1    
   209  105  226 1    
   210  106  227 1    
   211  106  228 1    
   212  106  229 1    
   213  107  108 2    
   214  107  109 am   BACKBONE|DICT|INTERRES
   215  109  110 1    
   216  109  230 1    
   217  110  111 1    
   218  110  112 1    
   219  110  231 1    
   220  111  232 1    
   221  111  233 1    
   222  111  234 1    
   223  112  113 2    
   224  112  114 am   BACKBONE|DICT|INTERRES
   225  114  115 1    
   226  114  235 1    
   227  115  116 1    
   228  115  117 1    
   229  115  236 1    
   230  116  237 1    
   231  116  238 1    
   232  116  239 1    
   233  117  118 2    
   234  117  119 am   BACKBONE|DICT|INTERRES
   235  119  120 1    
   236  119  240 1    
   237  120  121 1    
   238  120  124 1    
   239  120  241 1    
   240  121  122 am   BACKBONE|DICT|INTERRES
   241  121  123 2    
   242  122  242 1    
   243  122  243 1    
   244  124  125 1    
   245  124  244 1    
   246  124  245 1    
   247  125  126 1    
   248  126  246 1    
   249  126  247 1    
@<TRIPOS>SUBSTRUCTURE
     1 UNK         1 GROUP             0       ****    0 ROOT    
