@<TRIPOS>MOLECULE
3R540
247   249    1
SMALL
USER_CHARGES


@<TRIPOS>ATOM
      1 CA          0.0952  -11.4397  -51.2003 C.3       0 UNK        -0.1800 
      2 C           1.2256  -12.2835  -50.6285 C.2       0 UNK         0.5000 
      3 O           1.9360  -12.9442  -51.3851 O.2       0 UNK        -0.5000 
      4 N           1.3889  -12.2634  -49.3005 N.am      1 UNK        -0.5000 
      5 CA          2.3868  -13.0417  -48.5573 C.3       1 UNK         0.1400 
      6 C6          1.7494  -14.2912  -47.8807 C.3       23 UNK        -0.0398 
      7 S7          2.8183  -15.7705  -47.9268 S.3       23 UNK        -0.2404 
      8 C8          2.7109  -16.2730  -49.6782 C.3       23 UNK        -0.0205 
      9 C9          1.3960  -16.9581  -50.0236 C.ar      23 UNK        -0.0193 
     10 C10         0.3033  -16.2064  -50.4632 C.ar      23 UNK        -0.1150 
     11 C11        -0.8961  -16.8319  -50.8057 C.ar      23 UNK        -0.0193 
     12 C12        -0.9916  -18.2224  -50.7206 C.ar      23 UNK        -0.1150 
     13 C13         0.0999  -18.9988  -50.3228 C.ar      23 UNK        -0.0193 
     14 C14         1.2902  -18.3511  -49.9594 C.ar      23 UNK        -0.1150 
     15 C15        -0.0573  -20.5220  -50.3556 C.3       23 UNK        -0.0205 
     16 S16         1.3330  -21.4921  -49.6741 S.3       23 UNK        -0.2404 
     17 C17         1.0867  -21.2096  -47.8886 C.3       23 UNK        -0.0398 
     18 CA          0.5777  -22.4458  -47.1087 C.3       11 UNK         0.1400 
     19 N           0.4838  -22.1593  -45.6780 N.am      11 UNK        -0.5000 
     20 C           0.2062  -23.0536  -44.7200 C.2       10 UNK         0.5000 
     21 O           0.0636  -24.2590  -44.9241 O.2       10 UNK        -0.5000 
     22 CA         -0.0043  -22.4919  -43.3029 C.3       10 UNK         0.1400 
     23 CB          1.3423  -22.2291  -42.6132 C.3       10 UNK        -0.1800 
     24 N          -0.8101  -21.2684  -43.3038 N.am      10 UNK        -0.5000 
     25 C          -2.0872  -21.2081  -43.7092 C.2       9 UNK         0.5000 
     26 O          -2.7329  -22.1911  -44.0726 O.2       9 UNK        -0.5000 
     27 CA         -2.7446  -19.8176  -43.7556 C.3       9 UNK         0.1400 
     28 CB         -3.1939  -19.3808  -42.3535 C.3       9 UNK        -0.1800 
     29 N          -1.8752  -18.7952  -44.3395 N.am      9 UNK        -0.5000 
     30 C          -1.4467  -18.7913  -45.6106 C.2       8 UNK         0.5000 
     31 O          -1.7669  -19.6406  -46.4405 O.2       8 UNK        -0.5000 
     32 CA         -0.4513  -17.6847  -46.0085 C.3       8 UNK         0.1400 
     33 CB         -1.1808  -16.3588  -46.2679 C.3       8 UNK        -0.1800 
     34 N           0.5916  -17.4899  -45.0005 N.am      8 UNK        -0.5000 
     35 C           1.4760  -18.4303  -44.6373 C.2       7 UNK         0.5000 
     36 O           1.5436  -19.5458  -45.1521 O.2       7 UNK        -0.5000 
     37 CA          2.3972  -18.0925  -43.4553 C.3       7 UNK         0.1400 
     38 CB          3.5999  -17.2559  -43.9164 C.3       7 UNK        -0.1800 
     39 N           1.6718  -17.3963  -42.3919 N.am      7 UNK        -0.5000 
     40 C           0.7574  -17.9795  -41.6025 C.2       6 UNK         0.5000 
     41 O           0.4615  -19.1723  -41.6678 O.2       6 UNK        -0.5000 
     42 CA          0.0216  -17.0733  -40.5978 C.3       6 UNK         0.1400 
     43 CB          0.8474  -16.9074  -39.3136 C.3       6 UNK        -0.1800 
     44 N          -0.2889  -15.7540  -41.1484 N.am      6 UNK        -0.5000 
     45 C          -1.1433  -15.5348  -42.1580 C.2       5 UNK         0.5000 
     46 O          -1.8021  -16.4214  -42.6986 O.2       5 UNK        -0.5000 
     47 CA         -1.2365  -14.0915  -42.6886 C.3       5 UNK         0.1400 
     48 CB         -2.3124  -13.3036  -41.9276 C.3       5 UNK        -0.1800 
     49 N           0.0334  -13.3626  -42.6253 N.am      5 UNK        -0.5000 
     50 C           1.1646  -13.7342  -43.2380 C.2       4 UNK         0.5000 
     51 O           1.2557  -14.7426  -43.9407 O.2       4 UNK        -0.5000 
     52 CA          2.3760  -12.8082  -43.0329 C.3       4 UNK         0.1400 
     53 CB          3.7139  -13.5093  -43.3253 C.3       4 UNK        -0.1800 
     54 N           2.2414  -11.6259  -43.8814 N.am      4 UNK        -0.5000 
     55 C           1.5172  -10.5419  -43.5633 C.2       3 UNK         0.5000 
     56 O           0.9321  -10.4277  -42.4841 O.2       3 UNK        -0.5000 
     57 CA          1.3692   -9.4190  -44.6155 C.3       3 UNK         0.1400 
     58 CB          1.5289   -8.0143  -43.9969 C.3       3 UNK        -0.1800 
     59 N           2.2115   -9.5764  -45.8076 N.am      3 UNK        -0.5000 
     60 C           3.5481   -9.5000  -45.8955 C.2       2 UNK         0.5000 
     61 O           4.2865   -9.2234  -44.9490 O.2       2 UNK        -0.5000 
     62 CA          4.1457   -9.8250  -47.2843 C.3       2 UNK         0.1400 
     63 CB          5.6466  -10.1777  -47.2184 C.3       2 UNK        -0.1800 
     64 N           3.4076  -10.8722  -48.0104 N.am      2 UNK        -0.5000 
     65 C           3.1613  -12.1243  -47.5888 C.2       1 UNK         0.5000 
     66 O           3.4940  -12.5361  -46.4792 O.2       1 UNK        -0.5000 
     67 C          -0.7543  -23.0001  -47.6583 C.2       11 UNK         0.5000 
     68 O          -0.7458  -24.0446  -48.3071 O.2       11 UNK        -0.5000 
     69 N          -1.8744  -22.3286  -47.3531 N.am      12 UNK        -0.5000 
     70 CA         -3.2243  -22.7456  -47.7363 C.3       12 UNK         0.1400 
     71 CB         -4.2401  -21.6813  -47.2960 C.3       12 UNK        -0.1800 
     72 C          -3.6133  -24.1261  -47.1795 C.2       12 UNK         0.5000 
     73 O          -4.1928  -24.9294  -47.9108 O.2       12 UNK        -0.5000 
     74 N          -3.2598  -24.3891  -45.9141 N.am      13 UNK        -0.5000 
     75 CA         -3.4487  -25.6793  -45.2533 C.3       13 UNK         0.1400 
     76 CB         -3.1292  -25.5483  -43.7565 C.3       13 UNK        -0.1800 
     77 C          -2.6154  -26.7980  -45.9038 C.2       13 UNK         0.5000 
     78 O          -3.1611  -27.8607  -46.2023 O.2       13 UNK        -0.5000 
     79 N          -1.3258  -26.5268  -46.1535 N.am      14 UNK        -0.5000 
     80 CA         -0.3923  -27.4429  -46.8153 C.3       14 UNK         0.1400 
     81 CB          1.0282  -26.8619  -46.7488 C.3       14 UNK        -0.1800 
     82 C          -0.7822  -27.7592  -48.2719 C.2       14 UNK         0.5000 
     83 O          -0.6400  -28.9023  -48.7069 O.2       14 UNK        -0.5000 
     84 N          -1.2966  -26.7500  -48.9856 N.am      15 UNK        -0.5000 
     85 CA         -1.8021  -26.8529  -50.3545 C.3       15 UNK         0.1400 
     86 CB         -1.8178  -25.4498  -50.9807 C.3       15 UNK        -0.1800 
     87 C          -3.1993  -27.4980  -50.4559 C.2       15 UNK         0.5000 
     88 O          -3.6690  -27.7164  -51.5721 O.2       15 UNK        -0.5000 
     89 N          -3.8515  -27.7675  -49.3145 N.am      16 UNK        -0.5000 
     90 CA         -5.2045  -28.3169  -49.1790 C.3       16 UNK         0.1400 
     91 CB         -5.2581  -29.7766  -49.6762 C.3       16 UNK        -0.1800 
     92 C          -6.2681  -27.4077  -49.8303 C.2       16 UNK         0.5000 
     93 O          -7.0896  -27.8707  -50.6229 O.2       16 UNK        -0.5000 
     94 N          -6.1981  -26.1146  -49.4866 N.am      17 UNK        -0.5000 
     95 CA         -7.0492  -24.9994  -49.9140 C.3       17 UNK         0.1400 
     96 CB         -8.5469  -25.2881  -49.6842 C.3       17 UNK        -0.1800 
     97 C          -6.7674  -24.4743  -51.3357 C.2       17 UNK         0.5000 
     98 O          -7.3573  -23.4628  -51.7191 O.2       17 UNK        -0.5000 
     99 N          -5.8348  -25.0889  -52.0784 N.am      18 UNK        -0.5000 
    100 CA        -5.3433  -24.6047  -53.3743 C.3       18 UNK         0.1400 
    101 CB        -4.8197  -25.7954  -54.1959 C.3       18 UNK        -0.1800 
    102 C         -4.2799  -23.5024  -53.1764 C.2       18 UNK         0.5000 
    103 O         -3.1413  -23.6361  -53.6283 O.2       18 UNK        -0.5000 
    104 N         -4.6639  -22.4446  -52.4533 N.am      19 UNK        -0.5000 
    105 CA        -3.8096  -21.3818  -51.9266 C.3       19 UNK         0.1400 
    106 CB        -4.5600  -20.7033  -50.7671 C.3       19 UNK        -0.1800 
    107 C         -3.3452  -20.3713  -52.9953 C.2       19 UNK         0.5000 
    108 O         -3.6109  -19.1779  -52.8647 O.2       19 UNK        -0.5000 
    109 N         -2.6648  -20.8662  -54.0380 N.am      20 UNK        -0.5000 
    110 CA        -1.9442  -20.1156  -55.0787 C.3       20 UNK         0.1400 
    111 CB        -0.6636  -19.5021  -54.4749 C.3       20 UNK        -0.1800 
    112 C         -2.7874  -19.0706  -55.8497 C.2       20 UNK         0.5000 
    113 O         -2.2279  -18.1235  -56.4049 O.2       20 UNK        -0.5000 
    114 N         -4.1144  -19.2681  -55.8736 N.am      21 UNK        -0.5000 
    115 CA        -5.1395  -18.3707  -56.4185 C.3       21 UNK         0.1400 
    116 CB        -5.0096  -18.2446  -57.9517 C.3       21 UNK        -0.1800 
    117 C         -5.2101  -17.0029  -55.6985 C.2       21 UNK         0.5000 
    118 O         -5.5427  -15.9949  -56.3259 O.2       21 UNK        -0.5000 
    119 N         -4.9242  -16.9916  -54.3919 N.am      22 UNK        -0.5000 
    120 CA        -5.0009  -15.8222  -53.5056 C.3       22 UNK         0.1400 
    121 C         -5.6083  -16.1800  -52.1184 C.2       22 UNK         0.5000 
    122 N         -5.7041  -15.2245  -51.2023 N.am      22 UNK        -0.7600 
    123 O         -6.0366  -17.3034  -51.8640 O.2       22 UNK        -0.5000 
    124 C124       -3.6607  -15.0307  -53.4371 C.3       23 UNK        -0.0398 
    125 S125       -2.1703  -16.0359  -53.1109 S.3       23 UNK        -0.2404 
    126 C126       -2.0808  -16.0147  -51.2945 C.3       23 UNK        -0.0205 
    127 H127       -0.4467  -10.9035  -50.4210 H         1 UNK         0.0600 
    128 H128        0.4918  -10.7080  -51.9041 H         1 UNK         0.0600 
    129 H129       -0.6136  -12.0755  -51.7311 H         1 UNK         0.0600 
    130 H130        0.7734  -11.6936  -48.7367 H         1 UNK         0.3000 
    131 H131        3.1526  -13.3791  -49.2572 H         1 UNK         0.0600 
    132 H132        1.4785  -14.0933  -46.8418 H         1 UNK         0.0800 
    133 H133        0.8076  -14.5504  -48.3608 H         1 UNK         0.0800 
    134 H134        3.5396  -16.9500  -49.8905 H         1 UNK         0.0800 
    135 H135        2.8626  -15.4111  -50.3285 H         1 UNK         0.0800 
    136 H136        0.3893  -15.1337  -50.5527 H         1 UNK         0.1150 
    137 H137       -1.9164  -18.7027  -51.0011 H         1 UNK         0.1150 
    138 H138        2.1538  -18.9193  -49.6482 H         1 UNK         0.1150 
    139 H139       -0.9737  -20.8013  -49.8333 H         1 UNK         0.0800 
    140 H140       -0.1948  -20.8237  -51.3948 H         1 UNK         0.0800 
    141 H141        0.4176  -20.3619  -47.7414 H         1 UNK         0.0800 
    142 H142        2.0479  -20.8958  -47.4795 H         1 UNK         0.0800 
    143 H143        1.3229  -23.2358  -47.2228 H         1 UNK         0.0600 
    144 H144        0.6350  -21.1909  -45.4074 H         1 UNK         0.3000 
    145 H145       -0.5415  -23.2456  -42.7235 H         1 UNK         0.0600 
    146 H146        1.1996  -21.9104  -41.5805 H         1 UNK         0.0600 
    147 H147        1.9541  -23.1318  -42.5936 H         1 UNK         0.0600 
    148 H148        1.9138  -21.4549  -43.1256 H         1 UNK         0.0600 
    149 H149       -0.3575  -20.4242  -42.9664 H         1 UNK         0.3000 
    150 H150       -3.6335  -19.8937  -44.3850 H         1 UNK         0.0600 
    151 H151       -3.8525  -20.1252  -41.9044 H         1 UNK         0.0600 
    152 H152       -3.7446  -18.4409  -42.3919 H         1 UNK         0.0600 
    153 H153       -2.3457  -19.2440  -41.6826 H         1 UNK         0.0600 
    154 H154       -1.6132  -18.0239  -43.7319 H         1 UNK         0.3000 
    155 H155        0.0390  -17.9873  -46.9364 H         1 UNK         0.0600 
    156 H156       -1.8868  -16.4612  -47.0929 H         1 UNK         0.0600 
    157 H157       -0.4812  -15.5685  -46.5339 H         1 UNK         0.0600 
    158 H158       -1.7414  -16.0265  -45.3945 H         1 UNK         0.0600 
    159 H159        0.6386  -16.5820  -44.5494 H         1 UNK         0.3000 
    160 H160        2.7789  -19.0308  -43.0471 H         1 UNK         0.0600 
    161 H161        3.2903  -16.3329  -44.4060 H         1 UNK         0.0600 
    162 H162        4.2034  -17.8126  -44.6342 H         1 UNK         0.0600 
    163 H163        4.2474  -16.9948  -43.0794 H         1 UNK         0.0600 
    164 H164        1.8043  -16.3973  -42.3333 H         1 UNK         0.3000 
    165 H165       -0.9199  -17.5614  -40.3373 H         1 UNK         0.0600 
    166 H166        0.3018  -16.3318  -38.5656 H         1 UNK         0.0600 
    167 H167        1.0782  -17.8773  -38.8708 H         1 UNK         0.0600 
    168 H168        1.7939  -16.3998  -39.5041 H         1 UNK         0.0600 
    169 H169        0.2085  -14.9663  -40.7605 H         1 UNK         0.3000 
    170 H170       -1.5317  -14.1467  -43.7382 H         1 UNK         0.0600 
    171 H171       -3.2767  -13.8114  -41.9774 H         1 UNK         0.0600 
    172 H172       -2.0563  -13.1865  -40.8739 H         1 UNK         0.0600 
    173 H173       -2.4477  -12.3090  -42.3530 H         1 UNK         0.0600 
    174 H174        0.0340  -12.4876  -42.1158 H         1 UNK         0.3000 
    175 H175        2.3960  -12.5030  -41.9845 H         1 UNK         0.0600 
    176 H176        3.7562  -13.9097  -44.3377 H         1 UNK         0.0600 
    177 H177        4.5531  -12.8247  -43.2023 H         1 UNK         0.0600 
    178 H178        3.8706  -14.3433  -42.6406 H         1 UNK         0.0600 
    179 H179        2.6747  -11.6882  -44.7966 H         1 UNK         0.3000 
    180 H180        0.3421   -9.4950  -44.9749 H         1 UNK         0.0600 
    181 H181        2.5043   -7.8835  -43.5281 H         1 UNK         0.0600 
    182 H182        0.7753   -7.8376  -43.2286 H         1 UNK         0.0600 
    183 H183        1.4097   -7.2350  -44.7496 H         1 UNK         0.0600 
    184 H184        1.7137   -9.8173  -46.6524 H         1 UNK         0.3000 
    185 H185        4.0479   -8.9129  -47.8746 H         1 UNK         0.0600 
    186 H186        6.2260   -9.3533  -46.8012 H         1 UNK         0.0600 
    187 H187        5.8288  -11.0542  -46.5955 H         1 UNK         0.0600 
    188 H188        6.0471  -10.3831  -48.2111 H         1 UNK         0.0600 
    189 H189        3.0794  -10.6171  -48.9319 H         1 UNK         0.3000 
    190 H190       -1.8012  -21.4498  -46.8449 H         1 UNK         0.3000 
    191 H191       -3.2471  -22.8131  -48.8255 H         1 UNK         0.0600 
    192 H192       -4.2512  -21.5573  -46.2134 H         1 UNK         0.0600 
    193 H193       -5.2505  -21.9534  -47.6038 H         1 UNK         0.0600 
    194 H194       -4.0134  -20.7111  -47.7380 H         1 UNK         0.0600 
    195 H195       -2.8367  -23.6489  -45.3611 H         1 UNK         0.3000 
    196 H196       -4.5020  -25.9511  -45.3501 H         1 UNK         0.0600 
    197 H197       -3.2825  -26.4965  -43.2398 H         1 UNK         0.0600 
    198 H198       -3.7744  -24.8097  -43.2804 H         1 UNK         0.0600 
    199 H199       -2.0960  -25.2449  -43.5875 H         1 UNK         0.0600 
    200 H200       -0.9458  -25.6318  -45.8564 H         1 UNK         0.3000 
    201 H201       -0.4009  -28.3831  -46.2602 H         1 UNK         0.0600 
    202 H202        1.3459  -26.7161  -45.7162 H         1 UNK         0.0600 
    203 H203        1.0927  -25.8990  -47.2567 H         1 UNK         0.0600 
    204 H204        1.7483  -27.5321  -47.2197 H         1 UNK         0.0600 
    205 H205       -1.3040  -25.8190  -48.5744 H         1 UNK         0.3000 
    206 H206       -1.1144  -27.4742  -50.9315 H         1 UNK         0.0600 
    207 H207       -0.8338  -24.9829  -50.9349 H         1 UNK         0.0600 
    208 H208       -2.1001  -25.4991  -52.0320 H         1 UNK         0.0600 
    209 H209       -2.5265  -24.7909  -50.4771 H         1 UNK         0.0600 
    210 H210       -3.3913  -27.5327  -48.4439 H         1 UNK         0.3000 
    211 H211       -5.4236  -28.3270  -48.1102 H         1 UNK         0.0600 
    212 H212       -5.0883  -29.8489  -50.7508 H         1 UNK         0.0600 
    213 H213       -6.2316  -30.2224  -49.4693 H         1 UNK         0.0600 
    214 H214       -4.5079  -30.3894  -49.1764 H         1 UNK         0.0600 
    215 H215       -5.4389  -25.8357  -48.8650 H         1 UNK         0.3000 
    216 H216       -6.7809  -24.1774  -49.2485 H         1 UNK         0.0600 
    217 H217       -9.1422  -24.3852  -49.8250 H         1 UNK         0.0600 
    218 H218       -8.7309  -25.6412  -48.6696 H         1 UNK         0.0600 
    219 H219       -8.9308  -26.0362  -50.3779 H         1 UNK         0.0600 
    220 H220       -5.3755  -25.9063  -51.6996 H         1 UNK         0.3000 
    221 H221       -6.1722  -24.1629  -53.9311 H         1 UNK         0.0600 
    222 H222       -3.9433  -26.2514  -53.7358 H         1 UNK         0.0600 
    223 H223       -5.5817  -26.5674  -54.3037 H         1 UNK         0.0600 
    224 H224       -4.5328  -25.4788  -55.1993 H         1 UNK         0.0600 
    225 H225       -5.6336  -22.4226  -52.1572 H         1 UNK         0.3000 
    226 H226       -2.9113  -21.8450  -51.5129 H         1 UNK         0.0600 
    227 H227       -4.9060  -21.4355  -50.0394 H         1 UNK         0.0600 
    228 H228       -3.9174  -19.9950  -50.2429 H         1 UNK         0.0600 
    229 H229       -5.4344  -20.1547  -51.1205 H         1 UNK         0.0600 
    230 H230       -2.5709  -21.8786  -54.0763 H         1 UNK         0.3000 
    231 H231       -1.6364  -20.8522  -55.8219 H         1 UNK         0.0600 
    232 H232       -0.0549  -20.2619  -53.9849 H         1 UNK         0.0600 
    233 H233       -0.8963  -18.7347  -53.7363 H         1 UNK         0.0600 
    234 H234       -0.0431  -19.0399  -55.2433 H         1 UNK         0.0600 
    235 H235       -4.4628  -20.0730  -55.3731 H         1 UNK         0.3000 
    236 H236       -6.0949  -18.8564  -56.2162 H         1 UNK         0.0600 
    237 H237       -5.8651  -17.7164  -58.3739 H         1 UNK         0.0600 
    238 H238       -4.1136  -17.6946  -58.2403 H         1 UNK         0.0600 
    239 H239       -4.9697  -19.2249  -58.4264 H         1 UNK         0.0600 
    240 H240       -4.6315  -17.8477  -53.9272 H         1 UNK         0.3000 
    241 H241       -5.7449  -15.1453  -53.9295 H         1 UNK         0.0600 
    242 H242       -6.1153  -15.4516  -50.3104 H         1 UNK         0.3800 
    243 H243       -5.4101  -14.2776  -51.3813 H         1 UNK         0.3800 
    244 H244       -3.7100  -14.2100  -52.7210 H         1 UNK         0.0800 
    245 H245       -3.5006  -14.5496  -54.4027 H         1 UNK         0.0800 
    246 H246       -2.9989  -16.4274  -50.8754 H         1 UNK         0.0800 
    247 H247       -2.0083  -14.9848  -50.9418 H         1 UNK         0.0800 
@<TRIPOS>BOND
     1    1    2 1    
     2    1  127 1    
     3    1  128 1    
     4    1  129 1    
     5    2    3 2    
     6    2    4 am   BACKBONE|DICT|INTERRES
     7    4    5 1    
     8    4  130 1    
     9    5    6 1    
    10    5   65 1    
    11    5  131 1    
    12    6    7 1    
    13    6  132 1    
    14    6  133 1    
    15    7    8 1    
    16    8    9 1    
    17    8  134 1    
    18    8  135 1    
    19    9   10 ar   
    20    9   14 ar   
    21   10   11 ar   
    22   10  136 1    
    23   11   12 ar   
    24   11  126 1    
    25   12   13 ar   
    26   12  137 1    
    27   13   14 ar   
    28   13   15 1    
    29   14  138 1    
    30   15   16 1    
    31   15  139 1    
    32   15  140 1    
    33   16   17 1    
    34   17   18 1    
    35   17  141 1    
    36   17  142 1    
    37   18   19 1    
    38   18   67 1    
    39   18  143 1    
    40   19   20 am   BACKBONE|DICT|INTERRES
    41   19  144 1    
    42   20   21 2    
    43   20   22 1    
    44   22   23 1    
    45   22   24 1    
    46   22  145 1    
    47   23  146 1    
    48   23  147 1    
    49   23  148 1    
    50   24   25 am   BACKBONE|DICT|INTERRES
    51   24  149 1    
    52   25   26 2    
    53   25   27 1    
    54   27   28 1    
    55   27   29 1    
    56   27  150 1    
    57   28  151 1    
    58   28  152 1    
    59   28  153 1    
    60   29   30 am   BACKBONE|DICT|INTERRES
    61   29  154 1    
    62   30   31 2    
    63   30   32 1    
    64   32   33 1    
    65   32   34 1    
    66   32  155 1    
    67   33  156 1    
    68   33  157 1    
    69   33  158 1    
    70   34   35 am   BACKBONE|DICT|INTERRES
    71   34  159 1    
    72   35   36 2    
    73   35   37 1    
    74   37   38 1    
    75   37   39 1    
    76   37  160 1    
    77   38  161 1    
    78   38  162 1    
    79   38  163 1    
    80   39   40 am   BACKBONE|DICT|INTERRES
    81   39  164 1    
    82   40   41 2    
    83   40   42 1    
    84   42   43 1    
    85   42   44 1    
    86   42  165 1    
    87   43  166 1    
    88   43  167 1    
    89   43  168 1    
    90   44   45 am   BACKBONE|DICT|INTERRES
    91   44  169 1    
    92   45   46 2    
    93   45   47 1    
    94   47   48 1    
    95   47   49 1    
    96   47  170 1    
    97   48  171 1    
    98   48  172 1    
    99   48  173 1    
   100   49   50 am   BACKBONE|DICT|INTERRES
   101   49  174 1    
   102   50   51 2    
   103   50   52 1    
   104   52   53 1    
   105   52   54 1    
   106   52  175 1    
   107   53  176 1    
   108   53  177 1    
   109   53  178 1    
   110   54   55 am   BACKBONE|DICT|INTERRES
   111   54  179 1    
   112   55   56 2    
   113   55   57 1    
   114   57   58 1    
   115   57   59 1    
   116   57  180 1    
   117   58  181 1    
   118   58  182 1    
   119   58  183 1    
   120   59   60 am   BACKBONE|DICT|INTERRES
   121   59  184 1    
   122   60   61 2    
   123   60   62 1    
   124   62   63 1    
   125   62   64 1    
   126   62  185 1    
   127   63  186 1    
   128   63  187 1    
   129   63  188 1    
   130   64   65 am   BACKBONE|DICT|INTERRES
   131   64  189 1    
   132   65   66 2    
   133   67   68 2    
   134   67   69 am   BACKBONE|DICT|INTERRES
   135   69   70 1    
   136   69  190 1    
   137   70   71 1    
   138   70   72 1    
   139   70  191 1    
   140   71  192 1    
   141   71  193 1    
   142   71  194 1    
   143   72   73 2    
   144   72   74 am   BACKBONE|DICT|INTERRES
   145   74   75 1    
   146   74  195 1    
   147   75   76 1    
   148   75   77 1    
   149   75  196 1    
   150   76  197 1    
   151   76  198 1    
   152   76  199 1    
   153   77   78 2    
   154   77   79 am   BACKBONE|DICT|INTERRES
   155   79   80 1    
   156   79  200 1    
   157   80   81 1    
   158   80   82 1    
   159   80  201 1    
   160   81  202 1    
   161   81  203 1    
   162   81  204 1    
   163   82   83 2    
   164   82   84 am   BACKBONE|DICT|INTERRES
   165   84   85 1    
   166   84  205 1    
   167   85   86 1    
   168   85   87 1    
   169   85  206 1    
   170   86  207 1    
   171   86  208 1    
   172   86  209 1    
   173   87   88 2    
   174   87   89 am   BACKBONE|DICT|INTERRES
   175   89   90 1    
   176   89  210 1    
   177   90   91 1    
   178   90   92 1    
   179   90  211 1    
   180   91  212 1    
   181   91  213 1    
   182   91  214 1    
   183   92   93 2    
   184   92   94 am   BACKBONE|DICT|INTERRES
   185   94   95 1    
   186   94  215 1    
   187   95   96 1    
   188   95   97 1    
   189   95  216 1    
   190   96  217 1    
   191   96  218 1    
   192   96  219 1    
   193   97   98 2    
   194   97   99 am   BACKBONE|DICT|INTERRES
   195   99  100 1    
   196   99  220 1    
   197  100  101 1    
   198  100  102 1    
   199  100  221 1    
   200  101  222 1    
   201  101  223 1    
   202  101  224 1    
   203  102  103 2    
   204  102  104 am   BACKBONE|DICT|INTERRES
   205  104  105 1    
   206  104  225 1    
   207  105  106 1    
   208  105  107 1    
   209  105  226 1    
   210  106  227 1    
   211  106  228 1    
   212  106  229 1    
   213  107  108 2    
   214  107  109 am   BACKBONE|DICT|INTERRES
   215  109  110 1    
   216  109  230 1    
   217  110  111 1    
   218  110  112 1    
   219  110  231 1    
   220  111  232 1    
   221  111  233 1    
   222  111  234 1    
   223  112  113 2    
   224  112  114 am   BACKBONE|DICT|INTERRES
   225  114  115 1    
   226  114  235 1    
   227  115  116 1    
   228  115  117 1    
   229  115  236 1    
   230  116  237 1    
   231  116  238 1    
   232  116  239 1    
   233  117  118 2    
   234  117  119 am   BACKBONE|DICT|INTERRES
   235  119  120 1    
   236  119  240 1    
   237  120  121 1    
   238  120  124 1    
   239  120  241 1    
   240  121  122 am   BACKBONE|DICT|INTERRES
   241  121  123 2    
   242  122  242 1    
   243  122  243 1    
   244  124  125 1    
   245  124  244 1    
   246  124  245 1    
   247  125  126 1    
   248  126  246 1    
   249  126  247 1    
@<TRIPOS>SUBSTRUCTURE
     1 UNK         1 GROUP             0       ****    0 ROOT    
