@<TRIPOS>MOLECULE
3R540
247   249    1
SMALL
USER_CHARGES


@<TRIPOS>ATOM
      1 CA          1.9582   -9.3702  -48.2703 C.3       0 UNK        -0.1800 
      2 C           2.1579  -10.4928  -47.2636 C.2       0 UNK         0.5000 
      3 O           2.5333  -10.2319  -46.1212 O.2       0 UNK        -0.5000 
      4 N           1.8922  -11.7410  -47.6708 N.am      1 UNK        -0.5000 
      5 CA          2.0696  -12.9511  -46.8548 C.3       1 UNK         0.1400 
      6 C6          1.8887  -14.2460  -47.6814 C.3       23 UNK        -0.0398 
      7 S7          3.1841  -14.3941  -48.9562 S.3       23 UNK        -0.2404 
      8 C8          2.2896  -15.2230  -50.3152 C.3       23 UNK        -0.0205 
      9 C9          2.1638  -16.7466  -50.2202 C.ar      23 UNK        -0.0193 
     10 C10         1.4936  -17.4059  -51.2539 C.ar      23 UNK        -0.1150 
     11 C11         1.3869  -18.7978  -51.2708 C.ar      23 UNK        -0.0193 
     12 C12         1.9561  -19.5420  -50.2351 C.ar      23 UNK        -0.1150 
     13 C13         2.6248  -18.9064  -49.1810 C.ar      23 UNK        -0.0193 
     14 C14         2.7204  -17.5099  -49.1828 C.ar      23 UNK        -0.1150 
     15 C15         3.3067  -19.6915  -48.0568 C.3       23 UNK        -0.0205 
     16 S16         2.5883  -21.3320  -47.6925 S.3       23 UNK        -0.2404 
     17 C17         0.9506  -20.8290  -47.0826 C.3       23 UNK        -0.0398 
     18 CA          0.0560  -22.0041  -46.6251 C.3       11 UNK         0.1400 
     19 N          -1.0694  -21.4999  -45.8406 N.am      11 UNK        -0.5000 
     20 C          -2.0013  -22.2346  -45.2227 C.2       10 UNK         0.5000 
     21 O          -1.9908  -23.4641  -45.1724 O.2       10 UNK        -0.5000 
     22 CA         -3.1728  -21.4512  -44.6077 C.3       10 UNK         0.1400 
     23 CB         -2.7967  -20.8987  -43.2251 C.3       10 UNK        -0.1800 
     24 N          -3.5992  -20.3529  -45.4781 N.am      10 UNK        -0.5000 
     25 C          -4.2608  -20.5226  -46.6311 C.2       9 UNK         0.5000 
     26 O          -4.6124  -21.6211  -47.0597 O.2       9 UNK        -0.5000 
     27 CA         -4.5567  -19.2588  -47.4587 C.3       9 UNK         0.1400 
     28 CB         -5.8163  -18.5519  -46.9386 C.3       9 UNK        -0.1800 
     29 N          -3.4407  -18.3111  -47.4953 N.am      9 UNK        -0.5000 
     30 C          -2.2717  -18.5610  -48.1025 C.2       8 UNK         0.5000 
     31 O          -2.0126  -19.6187  -48.6685 O.2       8 UNK        -0.5000 
     32 CA         -1.1869  -17.4712  -48.0206 C.3       8 UNK         0.1400 
     33 CB         -1.4479  -16.3942  -49.0845 C.3       8 UNK        -0.1800 
     34 N          -1.0410  -16.8386  -46.7023 N.am      8 UNK        -0.5000 
     35 C          -0.9233  -17.4803  -45.5299 C.2       7 UNK         0.5000 
     36 O          -1.0116  -18.7019  -45.4042 O.2       7 UNK        -0.5000 
     37 CA         -0.6700  -16.5987  -44.2939 C.3       7 UNK         0.1400 
     38 CB         -1.2732  -17.2056  -43.0117 C.3       7 UNK        -0.1800 
     39 N           0.7503  -16.2977  -44.0917 N.am      7 UNK        -0.5000 
     40 C           1.7756  -17.1521  -43.9232 C.2       6 UNK         0.5000 
     41 O           1.6918  -18.3768  -44.0025 O.2       6 UNK        -0.5000 
     42 CA          3.1319  -16.5213  -43.5508 C.3       6 UNK         0.1400 
     43 CB          3.9731  -16.2293  -44.8031 C.3       6 UNK        -0.1800 
     44 N           2.9516  -15.2850  -42.7905 N.am      6 UNK        -0.5000 
     45 C           2.6585  -15.2246  -41.4848 C.2       5 UNK         0.5000 
     46 O           2.6695  -16.2063  -40.7403 O.2       5 UNK        -0.5000 
     47 CA          2.2403  -13.8437  -40.9347 C.3       5 UNK         0.1400 
     48 CB          2.5759  -13.6600  -39.4399 C.3       5 UNK        -0.1800 
     49 N           2.7324  -12.7189  -41.7379 N.am      5 UNK        -0.5000 
     50 C           4.0014  -12.3139  -41.9000 C.2       4 UNK         0.5000 
     51 O           4.9671  -12.8430  -41.3488 O.2       4 UNK        -0.5000 
     52 CA          4.2438  -11.1296  -42.8604 C.3       4 UNK         0.1400 
     53 CB          4.9726  -11.6131  -44.1238 C.3       4 UNK        -0.1800 
     54 N           3.0168  -10.4380  -43.2645 N.am      4 UNK        -0.5000 
     55 C           2.2890   -9.6305  -42.4808 C.2       3 UNK         0.5000 
     56 O           2.6022   -9.3283  -41.3291 O.2       3 UNK        -0.5000 
     57 CA          0.9679   -9.1086  -43.0739 C.3       3 UNK         0.1400 
     58 CB          1.2007   -7.8221  -43.8811 C.3       3 UNK        -0.1800 
     59 N           0.3107  -10.1055  -43.9229 N.am      3 UNK        -0.5000 
     60 C          -0.3282  -11.1922  -43.4659 C.2       2 UNK         0.5000 
     61 O          -0.4432  -11.4662  -42.2716 O.2       2 UNK        -0.5000 
     62 CA         -0.9008  -12.1557  -44.5233 C.3       2 UNK         0.1400 
     63 CB         -2.2691  -11.6699  -45.0231 C.3       2 UNK        -0.1800 
     64 N          -0.0006  -12.3310  -45.6642 N.am      2 UNK        -0.5000 
     65 C           1.1732  -12.9738  -45.6000 C.2       1 UNK         0.5000 
     66 O           1.5700  -13.5542  -44.5894 O.2       1 UNK        -0.5000 
     67 C          -0.4311  -22.8739  -47.8053 C.2       11 UNK         0.5000 
     68 O           0.0304  -24.0043  -47.9663 O.2       11 UNK        -0.5000 
     69 N          -1.4075  -22.3600  -48.5659 N.am      12 UNK        -0.5000 
     70 CA         -2.0659  -23.0639  -49.6610 C.3       12 UNK         0.1400 
     71 CB         -2.9929  -22.1051  -50.4086 C.3       12 UNK        -0.1800 
     72 C          -2.8627  -24.2905  -49.1995 C.2       12 UNK         0.5000 
     73 O          -2.8589  -25.2974  -49.9050 O.2       12 UNK        -0.5000 
     74 N          -3.5400  -24.2003  -48.0470 N.am      13 UNK        -0.5000 
     75 CA         -4.2737  -25.3136  -47.4424 C.3       13 UNK         0.1400 
     76 CB         -5.1271  -24.8114  -46.2693 C.3       13 UNK        -0.1800 
     77 C          -3.3398  -26.4548  -47.0032 C.2       13 UNK         0.5000 
     78 O          -3.6434  -27.6173  -47.2697 O.2       13 UNK        -0.5000 
     79 N          -2.1947  -26.1036  -46.4003 N.am      14 UNK        -0.5000 
     80 CA         -1.1265  -27.0363  -46.0310 C.3       14 UNK         0.1400 
     81 CB         -0.0804  -26.3043  -45.1770 C.3       14 UNK        -0.1800 
     82 C          -0.4675  -27.7065  -47.2534 C.2       14 UNK         0.5000 
     83 O          -0.1326  -28.8898  -47.1918 O.2       14 UNK        -0.5000 
     84 N          -0.3331  -26.9520  -48.3526 N.am      15 UNK        -0.5000 
     85 CA          0.1475  -27.4302  -49.6516 C.3       15 UNK         0.1400 
     86 CB          0.6151  -26.2204  -50.4770 C.3       15 UNK        -0.1800 
     87 C          -0.8992  -28.2469  -50.4422 C.2       15 UNK         0.5000 
     88 O          -0.5491  -28.8247  -51.4718 O.2       15 UNK        -0.5000 
     89 N          -2.1553  -28.2627  -49.9694 N.am      16 UNK        -0.5000 
     90 CA         -3.3427  -28.8819  -50.5716 C.3       16 UNK         0.1400 
     91 CB         -3.1809  -30.4124  -50.6822 C.3       16 UNK        -0.1800 
     92 C          -3.7859  -28.2237  -51.8983 C.2       16 UNK         0.5000 
     93 O          -4.4866  -28.8533  -52.6926 O.2       16 UNK        -0.5000 
     94 N          -3.3938  -26.9606  -52.1034 N.am      17 UNK        -0.5000 
     95 CA         -3.8118  -26.1150  -53.2205 C.3       17 UNK         0.1400 
     96 CB         -2.6787  -25.1290  -53.5487 C.3       17 UNK        -0.1800 
     97 C          -5.1106  -25.3579  -52.8872 C.2       17 UNK         0.5000 
     98 O          -5.9726  -25.2267  -53.7566 O.2       17 UNK        -0.5000 
     99 N          -5.2177  -24.9127  -51.6247 N.am      18 UNK        -0.5000 
    100 CA        -6.2996  -24.1430  -50.9978 C.3       18 UNK         0.1400 
    101 CB        -7.6235  -24.9317  -51.0391 C.3       18 UNK        -0.1800 
    102 C         -6.4796  -22.7089  -51.5465 C.2       18 UNK         0.5000 
    103 O         -6.0130  -22.3839  -52.6406 O.2       18 UNK        -0.5000 
    104 N         -7.1758  -21.8853  -50.7469 N.am      19 UNK        -0.5000 
    105 CA        -7.5293  -20.4739  -50.9585 C.3       19 UNK         0.1400 
    106 CB        -8.3528  -20.2973  -52.2506 C.3       19 UNK        -0.1800 
    107 C         -6.3277  -19.5078  -50.9399 C.2       19 UNK         0.5000 
    108 O         -5.1897  -19.9028  -51.1876 O.2       19 UNK        -0.5000 
    109 N         -6.6075  -18.2227  -50.6801 N.am      20 UNK        -0.5000 
    110 CA        -5.6148  -17.1381  -50.6663 C.3       20 UNK         0.1400 
    111 CB        -6.2780  -15.8579  -50.1353 C.3       20 UNK        -0.1800 
    112 C         -4.9606  -16.8734  -52.0390 C.2       20 UNK         0.5000 
    113 O         -3.8691  -16.3076  -52.0944 O.2       20 UNK        -0.5000 
    114 N         -5.6350  -17.3005  -53.1152 N.am      21 UNK        -0.5000 
    115 CA        -5.1330  -17.2931  -54.4883 C.3       21 UNK         0.1400 
    116 CB        -6.3297  -17.4332  -55.4430 C.3       21 UNK        -0.1800 
    117 C         -4.0891  -18.3959  -54.7679 C.2       21 UNK         0.5000 
    118 O         -3.4202  -18.3245  -55.7996 O.2       21 UNK        -0.5000 
    119 N         -3.9712  -19.3826  -53.8667 N.am      22 UNK        -0.5000 
    120 CA        -3.0790  -20.5476  -53.9480 C.3       22 UNK         0.1400 
    121 C         -3.4465  -21.4840  -55.1326 C.2       22 UNK         0.5000 
    122 N         -4.5778  -22.1709  -55.0543 N.am      22 UNK        -0.7600 
    123 O         -2.7207  -21.5983  -56.1173 O.2       22 UNK        -0.5000 
    124 C124       -1.5696  -20.1788  -53.9066 C.3       23 UNK        -0.0398 
    125 S125       -1.1008  -19.2575  -52.4021 S.3       23 UNK        -0.2404 
    126 C126        0.7006  -19.4951  -52.4354 C.3       23 UNK        -0.0205 
    127 H127        2.8986   -8.8443  -48.4343 H         1 UNK         0.0600 
    128 H128        1.6047   -9.7450  -49.2310 H         1 UNK         0.0600 
    129 H129        1.2277   -8.6547  -47.8929 H         1 UNK         0.0600 
    130 H130        1.6035  -11.8961  -48.6262 H         1 UNK         0.3000 
    131 H131        3.0977  -12.9368  -46.4894 H         1 UNK         0.0600 
    132 H132        0.9046  -14.2535  -48.1497 H         1 UNK         0.0800 
    133 H133        1.9348  -15.1364  -47.0527 H         1 UNK         0.0800 
    134 H134        1.2993  -14.7795  -50.4243 H         1 UNK         0.0800 
    135 H135        2.8232  -14.9926  -51.2384 H         1 UNK         0.0800 
    136 H136        1.0645  -16.8337  -52.0649 H         1 UNK         0.1150 
    137 H137        1.8896  -20.6198  -50.2652 H         1 UNK         0.1150 
    138 H138        3.2575  -17.0297  -48.3786 H         1 UNK         0.1150 
    139 H139        4.3546  -19.8285  -48.3258 H         1 UNK         0.0800 
    140 H140        3.2998  -19.1045  -47.1367 H         1 UNK         0.0800 
    141 H141        0.4494  -20.2378  -47.8485 H         1 UNK         0.0800 
    142 H142        1.1211  -20.1515  -46.2442 H         1 UNK         0.0800 
    143 H143        0.6409  -22.6442  -45.9615 H         1 UNK         0.0600 
    144 H144       -1.1480  -20.4865  -45.7791 H         1 UNK         0.3000 
    145 H145       -4.0115  -22.1389  -44.4818 H         1 UNK         0.0600 
    146 H146       -3.6305  -20.3609  -42.7737 H         1 UNK         0.0600 
    147 H147       -2.5237  -21.7069  -42.5454 H         1 UNK         0.0600 
    148 H148       -1.9474  -20.2176  -43.2802 H         1 UNK         0.0600 
    149 H149       -3.2734  -19.4285  -45.2351 H         1 UNK         0.3000 
    150 H150       -4.7480  -19.5843  -48.4820 H         1 UNK         0.0600 
    151 H151       -6.6698  -19.2312  -46.9329 H         1 UNK         0.0600 
    152 H152       -6.0824  -17.7048  -47.5690 H         1 UNK         0.0600 
    153 H153       -5.6819  -18.1837  -45.9208 H         1 UNK         0.0600 
    154 H154       -3.5682  -17.4265  -47.0268 H         1 UNK         0.3000 
    155 H155       -0.2321  -17.9461  -48.2537 H         1 UNK         0.0600 
    156 H156       -0.6226  -15.6880  -49.1455 H         1 UNK         0.0600 
    157 H157       -2.3597  -15.8324  -48.8787 H         1 UNK         0.0600 
    158 H158       -1.5561  -16.8426  -50.0739 H         1 UNK         0.0600 
    159 H159       -0.9797  -15.8321  -46.7042 H         1 UNK         0.3000 
    160 H160       -1.1709  -15.6451  -44.4662 H         1 UNK         0.0600 
    161 H161       -1.1798  -16.5176  -42.1714 H         1 UNK         0.0600 
    162 H162       -0.7818  -18.1380  -42.7322 H         1 UNK         0.0600 
    163 H163       -2.3346  -17.4206  -43.1409 H         1 UNK         0.0600 
    164 H164        0.9787  -15.3094  -44.0535 H         1 UNK         0.3000 
    165 H165        3.6769  -17.2423  -42.9378 H         1 UNK         0.0600 
    166 H166        4.9792  -15.9105  -44.5304 H         1 UNK         0.0600 
    167 H167        4.0715  -17.1181  -45.4278 H         1 UNK         0.0600 
    168 H168        3.5329  -15.4424  -45.4130 H         1 UNK         0.0600 
    169 H169        2.8462  -14.4358  -43.3342 H         1 UNK         0.3000 
    170 H170        1.1537  -13.8110  -41.0264 H         1 UNK         0.0600 
    171 H171        2.0548  -14.3982  -38.8293 H         1 UNK         0.0600 
    172 H172        3.6425  -13.7729  -39.2447 H         1 UNK         0.0600 
    173 H173        2.2711  -12.6752  -39.0858 H         1 UNK         0.0600 
    174 H174        2.0229  -12.2207  -42.2575 H         1 UNK         0.3000 
    175 H175        4.8873  -10.4138  -42.3450 H         1 UNK         0.0600 
    176 H176        4.3982  -12.3766  -44.6473 H         1 UNK         0.0600 
    177 H177        5.1529  -10.7917  -44.8178 H         1 UNK         0.0600 
    178 H178        5.9417  -12.0471  -43.8749 H         1 UNK         0.0600 
    179 H179        2.7241  -10.5597  -44.2302 H         1 UNK         0.3000 
    180 H180        0.3008   -8.8698  -42.2428 H         1 UNK         0.0600 
    181 H181        1.8596   -7.9911  -44.7333 H         1 UNK         0.0600 
    182 H182        1.6596   -7.0513  -43.2606 H         1 UNK         0.0600 
    183 H183        0.2612   -7.4182  -44.2584 H         1 UNK         0.0600 
    184 H184        0.4157   -9.9857  -44.9199 H         1 UNK         0.3000 
    185 H185       -1.0418  -13.1266  -44.0437 H         1 UNK         0.0600 
    186 H186       -2.9662  -11.5469  -44.1931 H         1 UNK         0.0600 
    187 H187       -2.1952  -10.7096  -45.5349 H         1 UNK         0.0600 
    188 H188       -2.7126  -12.3860  -45.7151 H         1 UNK         0.0600 
    189 H189       -0.2559  -11.8727  -46.5269 H         1 UNK         0.3000 
    190 H190       -1.7052  -21.3979  -48.4137 H         1 UNK         0.3000 
    191 H191       -1.2933  -23.4015  -50.3540 H         1 UNK         0.0600 
    192 H192       -3.7914  -21.7334  -49.7659 H         1 UNK         0.0600 
    193 H193       -3.4578  -22.5966  -51.2624 H         1 UNK         0.0600 
    194 H194       -2.4461  -21.2433  -50.7855 H         1 UNK         0.0600 
    195 H195       -3.5675  -23.3128  -47.5564 H         1 UNK         0.3000 
    196 H196       -4.9511  -25.7161  -48.1986 H         1 UNK         0.0600 
    197 H197       -5.6973  -25.6280  -45.8249 H         1 UNK         0.0600 
    198 H198       -5.8425  -24.0573  -46.5973 H         1 UNK         0.0600 
    199 H199       -4.5152  -24.3730  -45.4816 H         1 UNK         0.0600 
    200 H200       -2.0407  -25.1238  -46.1764 H         1 UNK         0.3000 
    201 H201       -1.5700  -27.8258  -45.4209 H         1 UNK         0.0600 
    202 H202       -0.5296  -25.8904  -44.2741 H         1 UNK         0.0600 
    203 H203        0.3846  -25.4835  -45.7237 H         1 UNK         0.0600 
    204 H204        0.7139  -26.9833  -44.8645 H         1 UNK         0.0600 
    205 H205       -0.5616  -25.9654  -48.2903 H         1 UNK         0.3000 
    206 H206        1.0087  -28.0801  -49.4837 H         1 UNK         0.0600 
    207 H207        1.3749  -25.6478  -49.9446 H         1 UNK         0.0600 
    208 H208        1.0522  -26.5369  -51.4247 H         1 UNK         0.0600 
    209 H209       -0.2113  -25.5482  -50.7069 H         1 UNK         0.0600 
    210 H210       -2.3350  -27.7431  -49.1198 H         1 UNK         0.3000 
    211 H211       -4.1556  -28.6944  -49.8689 H         1 UNK         0.0600 
    212 H212       -2.4440  -30.6905  -51.4358 H         1 UNK         0.0600 
    213 H213       -4.1233  -30.8859  -50.9594 H         1 UNK         0.0600 
    214 H214       -2.8701  -30.8451  -49.7312 H         1 UNK         0.0600 
    215 H215       -2.8801  -26.5017  -51.3567 H         1 UNK         0.3000 
    216 H216       -3.9914  -26.7338  -54.1023 H         1 UNK         0.0600 
    217 H217       -2.9411  -24.5068  -54.4046 H         1 UNK         0.0600 
    218 H218       -1.7592  -25.6573  -53.8015 H         1 UNK         0.0600 
    219 H219       -2.4622  -24.4642  -52.7119 H         1 UNK         0.0600 
    220 H220       -4.4261  -25.0992  -51.0190 H         1 UNK         0.3000 
    221 H221       -6.0073  -24.0411  -49.9515 H         1 UNK         0.0600 
    222 H222       -8.0130  -25.0186  -52.0538 H         1 UNK         0.0600 
    223 H223       -7.4949  -25.9386  -50.6418 H         1 UNK         0.0600 
    224 H224       -8.3926  -24.4444  -50.4391 H         1 UNK         0.0600 
    225 H225       -7.4857  -22.2580  -49.8609 H         1 UNK         0.3000 
    226 H226       -8.1673  -20.2040  -50.1155 H         1 UNK         0.0600 
    227 H227       -9.1968  -20.9865  -52.2774 H         1 UNK         0.0600 
    228 H228       -8.7591  -19.2880  -52.3236 H         1 UNK         0.0600 
    229 H229       -7.7525  -20.4686  -53.1449 H         1 UNK         0.0600 
    230 H230       -7.5634  -17.9552  -50.4927 H         1 UNK         0.3000 
    231 H231       -4.8156  -17.4220  -49.9788 H         1 UNK         0.0600 
    232 H232       -7.0855  -15.5241  -50.7880 H         1 UNK         0.0600 
    233 H233       -6.6929  -16.0058  -49.1387 H         1 UNK         0.0600 
    234 H234       -5.5548  -15.0442  -50.0661 H         1 UNK         0.0600 
    235 H235       -6.5309  -17.7397  -52.9675 H         1 UNK         0.3000 
    236 H236       -4.6530  -16.3307  -54.6776 H         1 UNK         0.0600 
    237 H237       -6.0066  -17.3940  -56.4841 H         1 UNK         0.0600 
    238 H238       -6.8511  -18.3803  -55.2971 H         1 UNK         0.0600 
    239 H239       -7.0484  -16.6266  -55.2974 H         1 UNK         0.0600 
    240 H240       -4.5486  -19.3599  -53.0335 H         1 UNK         0.3000 
    241 H241       -3.2843  -21.1271  -53.0500 H         1 UNK         0.0600 
    242 H242       -4.8412  -22.7806  -55.8107 H         1 UNK         0.3800 
    243 H243       -5.1552  -22.1427  -54.2129 H         1 UNK         0.3800 
    244 H244       -0.9700  -21.0895  -53.9489 H         1 UNK         0.0800 
    245 H245       -1.2882  -19.5883  -54.7794 H         1 UNK         0.0800 
    246 H246        0.9217  -20.5635  -52.4240 H         1 UNK         0.0800 
    247 H247        1.0988  -19.1058  -53.3735 H         1 UNK         0.0800 
@<TRIPOS>BOND
     1    1    2 1    
     2    1  127 1    
     3    1  128 1    
     4    1  129 1    
     5    2    3 2    
     6    2    4 am   BACKBONE|DICT|INTERRES
     7    4    5 1    
     8    4  130 1    
     9    5    6 1    
    10    5   65 1    
    11    5  131 1    
    12    6    7 1    
    13    6  132 1    
    14    6  133 1    
    15    7    8 1    
    16    8    9 1    
    17    8  134 1    
    18    8  135 1    
    19    9   10 ar   
    20    9   14 ar   
    21   10   11 ar   
    22   10  136 1    
    23   11   12 ar   
    24   11  126 1    
    25   12   13 ar   
    26   12  137 1    
    27   13   14 ar   
    28   13   15 1    
    29   14  138 1    
    30   15   16 1    
    31   15  139 1    
    32   15  140 1    
    33   16   17 1    
    34   17   18 1    
    35   17  141 1    
    36   17  142 1    
    37   18   19 1    
    38   18   67 1    
    39   18  143 1    
    40   19   20 am   BACKBONE|DICT|INTERRES
    41   19  144 1    
    42   20   21 2    
    43   20   22 1    
    44   22   23 1    
    45   22   24 1    
    46   22  145 1    
    47   23  146 1    
    48   23  147 1    
    49   23  148 1    
    50   24   25 am   BACKBONE|DICT|INTERRES
    51   24  149 1    
    52   25   26 2    
    53   25   27 1    
    54   27   28 1    
    55   27   29 1    
    56   27  150 1    
    57   28  151 1    
    58   28  152 1    
    59   28  153 1    
    60   29   30 am   BACKBONE|DICT|INTERRES
    61   29  154 1    
    62   30   31 2    
    63   30   32 1    
    64   32   33 1    
    65   32   34 1    
    66   32  155 1    
    67   33  156 1    
    68   33  157 1    
    69   33  158 1    
    70   34   35 am   BACKBONE|DICT|INTERRES
    71   34  159 1    
    72   35   36 2    
    73   35   37 1    
    74   37   38 1    
    75   37   39 1    
    76   37  160 1    
    77   38  161 1    
    78   38  162 1    
    79   38  163 1    
    80   39   40 am   BACKBONE|DICT|INTERRES
    81   39  164 1    
    82   40   41 2    
    83   40   42 1    
    84   42   43 1    
    85   42   44 1    
    86   42  165 1    
    87   43  166 1    
    88   43  167 1    
    89   43  168 1    
    90   44   45 am   BACKBONE|DICT|INTERRES
    91   44  169 1    
    92   45   46 2    
    93   45   47 1    
    94   47   48 1    
    95   47   49 1    
    96   47  170 1    
    97   48  171 1    
    98   48  172 1    
    99   48  173 1    
   100   49   50 am   BACKBONE|DICT|INTERRES
   101   49  174 1    
   102   50   51 2    
   103   50   52 1    
   104   52   53 1    
   105   52   54 1    
   106   52  175 1    
   107   53  176 1    
   108   53  177 1    
   109   53  178 1    
   110   54   55 am   BACKBONE|DICT|INTERRES
   111   54  179 1    
   112   55   56 2    
   113   55   57 1    
   114   57   58 1    
   115   57   59 1    
   116   57  180 1    
   117   58  181 1    
   118   58  182 1    
   119   58  183 1    
   120   59   60 am   BACKBONE|DICT|INTERRES
   121   59  184 1    
   122   60   61 2    
   123   60   62 1    
   124   62   63 1    
   125   62   64 1    
   126   62  185 1    
   127   63  186 1    
   128   63  187 1    
   129   63  188 1    
   130   64   65 am   BACKBONE|DICT|INTERRES
   131   64  189 1    
   132   65   66 2    
   133   67   68 2    
   134   67   69 am   BACKBONE|DICT|INTERRES
   135   69   70 1    
   136   69  190 1    
   137   70   71 1    
   138   70   72 1    
   139   70  191 1    
   140   71  192 1    
   141   71  193 1    
   142   71  194 1    
   143   72   73 2    
   144   72   74 am   BACKBONE|DICT|INTERRES
   145   74   75 1    
   146   74  195 1    
   147   75   76 1    
   148   75   77 1    
   149   75  196 1    
   150   76  197 1    
   151   76  198 1    
   152   76  199 1    
   153   77   78 2    
   154   77   79 am   BACKBONE|DICT|INTERRES
   155   79   80 1    
   156   79  200 1    
   157   80   81 1    
   158   80   82 1    
   159   80  201 1    
   160   81  202 1    
   161   81  203 1    
   162   81  204 1    
   163   82   83 2    
   164   82   84 am   BACKBONE|DICT|INTERRES
   165   84   85 1    
   166   84  205 1    
   167   85   86 1    
   168   85   87 1    
   169   85  206 1    
   170   86  207 1    
   171   86  208 1    
   172   86  209 1    
   173   87   88 2    
   174   87   89 am   BACKBONE|DICT|INTERRES
   175   89   90 1    
   176   89  210 1    
   177   90   91 1    
   178   90   92 1    
   179   90  211 1    
   180   91  212 1    
   181   91  213 1    
   182   91  214 1    
   183   92   93 2    
   184   92   94 am   BACKBONE|DICT|INTERRES
   185   94   95 1    
   186   94  215 1    
   187   95   96 1    
   188   95   97 1    
   189   95  216 1    
   190   96  217 1    
   191   96  218 1    
   192   96  219 1    
   193   97   98 2    
   194   97   99 am   BACKBONE|DICT|INTERRES
   195   99  100 1    
   196   99  220 1    
   197  100  101 1    
   198  100  102 1    
   199  100  221 1    
   200  101  222 1    
   201  101  223 1    
   202  101  224 1    
   203  102  103 2    
   204  102  104 am   BACKBONE|DICT|INTERRES
   205  104  105 1    
   206  104  225 1    
   207  105  106 1    
   208  105  107 1    
   209  105  226 1    
   210  106  227 1    
   211  106  228 1    
   212  106  229 1    
   213  107  108 2    
   214  107  109 am   BACKBONE|DICT|INTERRES
   215  109  110 1    
   216  109  230 1    
   217  110  111 1    
   218  110  112 1    
   219  110  231 1    
   220  111  232 1    
   221  111  233 1    
   222  111  234 1    
   223  112  113 2    
   224  112  114 am   BACKBONE|DICT|INTERRES
   225  114  115 1    
   226  114  235 1    
   227  115  116 1    
   228  115  117 1    
   229  115  236 1    
   230  116  237 1    
   231  116  238 1    
   232  116  239 1    
   233  117  118 2    
   234  117  119 am   BACKBONE|DICT|INTERRES
   235  119  120 1    
   236  119  240 1    
   237  120  121 1    
   238  120  124 1    
   239  120  241 1    
   240  121  122 am   BACKBONE|DICT|INTERRES
   241  121  123 2    
   242  122  242 1    
   243  122  243 1    
   244  124  125 1    
   245  124  244 1    
   246  124  245 1    
   247  125  126 1    
   248  126  246 1    
   249  126  247 1    
@<TRIPOS>SUBSTRUCTURE
     1 UNK         1 GROUP             0       ****    0 ROOT    
