@<TRIPOS>MOLECULE
3R540
247   249    1
SMALL
USER_CHARGES


@<TRIPOS>ATOM
      1 CA         -3.3943  -13.5665  -42.5532 C.3       0 UNK        -0.1800 
      2 C          -2.5448  -12.6688  -43.4427 C.2       0 UNK         0.5000 
      3 O          -1.9180  -11.7319  -42.9482 O.2       0 UNK        -0.5000 
      4 N          -2.5301  -12.9457  -44.7525 N.am      1 UNK        -0.5000 
      5 CA         -1.7824  -12.1902  -45.7645 C.3       1 UNK         0.1400 
      6 C6         -2.3772  -12.3813  -47.1823 C.3       23 UNK        -0.0398 
      7 S7         -2.4819  -14.1209  -47.7311 S.3       23 UNK        -0.2404 
      8 C8         -3.2795  -13.8851  -49.3469 C.3       23 UNK        -0.0205 
      9 C9         -3.5598  -15.2107  -50.0367 C.ar      23 UNK        -0.0193 
     10 C10        -2.5866  -15.8003  -50.8479 C.ar      23 UNK        -0.1150 
     11 C11        -2.8492  -17.0014  -51.5111 C.ar      23 UNK        -0.0193 
     12 C12        -4.1010  -17.6029  -51.3751 C.ar      23 UNK        -0.1150 
     13 C13        -5.0798  -17.0313  -50.5600 C.ar      23 UNK        -0.0193 
     14 C14        -4.8025  -15.8353  -49.8895 C.ar      23 UNK        -0.1150 
     15 C15        -6.4388  -17.7022  -50.4151 C.3       23 UNK        -0.0205 
     16 S16        -6.3209  -19.3965  -49.7532 S.3       23 UNK        -0.2404 
     17 C17        -5.4989  -19.1216  -48.1471 C.3       23 UNK        -0.0398 
     18 CA         -4.1587  -19.8957  -48.0427 C.3       11 UNK         0.1400 
     19 N          -3.1543  -19.1460  -47.2854 N.am      11 UNK        -0.5000 
     20 C          -1.8656  -19.4971  -47.1846 C.2       10 UNK         0.5000 
     21 O          -1.3832  -20.5054  -47.6929 O.2       10 UNK        -0.5000 
     22 CA         -0.9711  -18.5931  -46.3273 C.3       10 UNK         0.1400 
     23 CB         -0.5005  -17.3875  -47.1470 C.3       10 UNK        -0.1800 
     24 N          -1.6037  -18.1156  -45.0996 N.am      10 UNK        -0.5000 
     25 C          -2.1422  -18.8753  -44.1387 C.2       9 UNK         0.5000 
     26 O          -2.2581  -20.1001  -44.2166 O.2       9 UNK        -0.5000 
     27 CA         -2.5916  -18.1222  -42.8711 C.3       9 UNK         0.1400 
     28 CB         -3.3112  -19.0372  -41.8647 C.3       9 UNK        -0.1800 
     29 N          -1.4514  -17.4912  -42.2053 N.am      9 UNK        -0.5000 
     30 C          -0.8363  -16.3669  -42.5976 C.2       8 UNK         0.5000 
     31 O          -1.1809  -15.7013  -43.5762 O.2       8 UNK        -0.5000 
     32 CA          0.4068  -15.9573  -41.7898 C.3       8 UNK         0.1400 
     33 CB          0.0054  -15.2847  -40.4690 C.3       8 UNK        -0.1800 
     34 N           1.2819  -17.0992  -41.5186 N.am      8 UNK        -0.5000 
     35 C           1.9941  -17.7463  -42.4509 C.2       7 UNK         0.5000 
     36 O           2.0384  -17.4235  -43.6418 O.2       7 UNK        -0.5000 
     37 CA          2.7632  -18.9828  -41.9742 C.3       7 UNK         0.1400 
     38 CB          1.8580  -20.2255  -42.0050 C.3       7 UNK        -0.1800 
     39 N           3.9082  -19.1874  -42.8517 N.am      7 UNK        -0.5000 
     40 C           5.0535  -19.7870  -42.5099 C.2       6 UNK         0.5000 
     41 O           5.2614  -20.2757  -41.3983 O.2       6 UNK        -0.5000 
     42 CA          6.1569  -19.8623  -43.5836 C.3       6 UNK         0.1400 
     43 CB          6.1663  -21.2511  -44.2408 C.3       6 UNK        -0.1800 
     44 N           6.0333  -18.8508  -44.6345 N.am      6 UNK        -0.5000 
     45 C           6.2392  -17.5368  -44.4904 C.2       5 UNK         0.5000 
     46 O           6.5563  -17.0145  -43.4214 O.2       5 UNK        -0.5000 
     47 CA          6.0528  -16.6478  -45.7381 C.3       5 UNK         0.1400 
     48 CB          7.3656  -16.5302  -46.5349 C.3       5 UNK        -0.1800 
     49 N           4.9302  -17.0212  -46.6120 N.am      5 UNK        -0.5000 
     50 C           4.7575  -18.1237  -47.3598 C.2       4 UNK         0.5000 
     51 O           5.5707  -19.0470  -47.4086 O.2       4 UNK        -0.5000 
     52 CA          3.4398  -18.2529  -48.1501 C.3       4 UNK         0.1400 
     53 CB          2.5602  -19.3569  -47.5385 C.3       4 UNK        -0.1800 
     54 N           2.6701  -17.0090  -48.1935 N.am      4 UNK        -0.5000 
     55 C           2.9136  -15.9815  -49.0181 C.2       3 UNK         0.5000 
     56 O           3.7939  -15.9857  -49.8775 O.2       3 UNK        -0.5000 
     57 CA          2.0325  -14.7280  -48.8402 C.3       3 UNK         0.1400 
     58 CB          0.8433  -14.7757  -49.8086 C.3       3 UNK        -0.1800 
     59 N           1.5178  -14.5359  -47.4804 N.am      3 UNK        -0.5000 
     60 C           2.2640  -14.3493  -46.3822 C.2       2 UNK         0.5000 
     61 O           3.4946  -14.3932  -46.3887 O.2       2 UNK        -0.5000 
     62 CA          1.5150  -14.1213  -45.0526 C.3       2 UNK         0.1400 
     63 CB          2.3095  -13.2344  -44.0719 C.3       2 UNK        -0.1800 
     64 N           0.1374  -13.6343  -45.1971 N.am      2 UNK        -0.5000 
     65 C          -0.2641  -12.4752  -45.7437 C.2       1 UNK         0.5000 
     66 O           0.5047  -11.6457  -46.2314 O.2       1 UNK        -0.5000 
     67 C          -4.3746  -21.3147  -47.4736 C.2       11 UNK         0.5000 
     68 O          -4.4864  -22.2787  -48.2345 O.2       11 UNK        -0.5000 
     69 N          -4.4188  -21.4141  -46.1373 N.am      12 UNK        -0.5000 
     70 CA         -4.5520  -22.6693  -45.4019 C.3       12 UNK         0.1400 
     71 CB         -4.9483  -22.3800  -43.9465 C.3       12 UNK        -0.1800 
     72 C          -3.2670  -23.5065  -45.4727 C.2       12 UNK         0.5000 
     73 O          -3.3398  -24.7087  -45.7306 O.2       12 UNK        -0.5000 
     74 N          -2.1210  -22.8440  -45.2675 N.am      13 UNK        -0.5000 
     75 CA         -0.7911  -23.4484  -45.2907 C.3       13 UNK         0.1400 
     76 CB          0.2386  -22.4174  -44.8059 C.3       13 UNK        -0.1800 
     77 C          -0.3985  -24.0082  -46.6695 C.2       13 UNK         0.5000 
     78 O           0.1815  -25.0929  -46.7348 O.2       13 UNK        -0.5000 
     79 N          -0.7165  -23.2658  -47.7386 N.am      14 UNK        -0.5000 
     80 CA         -0.4083  -23.6391  -49.1154 C.3       14 UNK         0.1400 
     81 CB         -0.5104  -22.4088  -50.0289 C.3       14 UNK        -0.1800 
     82 C          -1.2827  -24.7940  -49.6306 C.2       14 UNK         0.5000 
     83 O          -0.7302  -25.7790  -50.1234 O.2       14 UNK        -0.5000 
     84 N          -2.6143  -24.6672  -49.5191 N.am      15 UNK        -0.5000 
     85 CA         -3.5602  -25.6453  -50.0619 C.3       15 UNK         0.1400 
     86 CB         -3.5662  -25.6163  -51.6069 C.3       15 UNK        -0.1800 
     87 C          -4.9680  -25.4742  -49.4693 C.2       15 UNK         0.5000 
     88 O          -5.9320  -25.3025  -50.2173 O.2       15 UNK        -0.5000 
     89 N          -5.0670  -25.5513  -48.1344 N.am      16 UNK        -0.5000 
     90 CA         -6.2993  -25.7713  -47.3615 C.3       16 UNK         0.1400 
     91 CB         -6.7447  -27.2405  -47.5156 C.3       16 UNK        -0.1800 
     92 C          -7.4489  -24.7769  -47.6463 C.2       16 UNK         0.5000 
     93 O          -8.6159  -25.1718  -47.6646 O.2       16 UNK        -0.5000 
     94 N          -7.0897  -23.5043  -47.8581 N.am      17 UNK        -0.5000 
     95 CA         -7.9688  -22.3652  -48.1397 C.3       17 UNK         0.1400 
     96 CB         -9.0201  -22.1535  -47.0299 C.3       17 UNK        -0.1800 
     97 C          -8.5665  -22.3734  -49.5627 C.2       17 UNK         0.5000 
     98 O          -9.5683  -21.6989  -49.8063 O.2       17 UNK        -0.5000 
     99 N          -7.9232  -23.0983  -50.4859 N.am      18 UNK        -0.5000 
    100 CA        -8.2467  -23.1441  -51.9125 C.3       18 UNK         0.1400 
    101 CB        -8.9341  -24.4861  -52.2230 C.3       18 UNK        -0.1800 
    102 C         -6.9812  -22.9184  -52.7656 C.2       18 UNK         0.5000 
    103 O         -6.9133  -23.3892  -53.9027 O.2       18 UNK        -0.5000 
    104 N         -5.9863  -22.2270  -52.1956 N.am      19 UNK        -0.5000 
    105 CA        -4.6803  -21.9876  -52.8024 C.3       19 UNK         0.1400 
    106 CB        -3.6752  -21.6903  -51.6816 C.3       19 UNK        -0.1800 
    107 C         -4.6815  -20.8416  -53.8271 C.2       19 UNK         0.5000 
    108 O         -5.5710  -19.9878  -53.8247 O.2       19 UNK        -0.5000 
    109 N         -3.6294  -20.8313  -54.6480 N.am      20 UNK        -0.5000 
    110 CA        -3.2591  -19.7885  -55.5936 C.3       20 UNK         0.1400 
    111 CB        -4.0349  -19.9655  -56.9098 C.3       20 UNK        -0.1800 
    112 C         -1.7433  -19.9091  -55.8159 C.2       20 UNK         0.5000 
    113 O         -1.2067  -21.0140  -55.6901 O.2       20 UNK        -0.5000 
    114 N         -1.0892  -18.7856  -56.1467 N.am      21 UNK        -0.5000 
    115 CA         0.3504  -18.6594  -56.4242 C.3       21 UNK         0.1400 
    116 CB         0.7045  -19.3513  -57.7577 C.3       21 UNK        -0.1800 
    117 C          1.2361  -19.1270  -55.2461 C.2       21 UNK         0.5000 
    118 O          2.1260  -19.9614  -55.4227 O.2       21 UNK        -0.5000 
    119 N          0.9465  -18.5877  -54.0550 N.am      22 UNK        -0.5000 
    120 CA         1.5966  -18.9383  -52.7774 C.3       22 UNK         0.1400 
    121 C          3.0966  -18.5358  -52.6641 C.2       22 UNK         0.5000 
    122 N          3.6021  -17.6161  -53.4771 N.am      22 UNK        -0.7600 
    123 O          3.8146  -19.0789  -51.8301 O.2       22 UNK        -0.5000 
    124 C124        0.8053  -18.3938  -51.5583 C.3       23 UNK        -0.0398 
    125 S125       -0.9225  -18.9799  -51.5110 S.3       23 UNK        -0.2404 
    126 C126       -1.7951  -17.6456  -52.3909 C.3       23 UNK        -0.0205 
    127 H127       -4.2315  -13.0033  -42.1413 H         1 UNK         0.0600 
    128 H128       -2.7989  -13.9487  -41.7247 H         1 UNK         0.0600 
    129 H129       -3.7926  -14.4196  -43.1033 H         1 UNK         0.0600 
    130 H130       -3.0488  -13.7395  -45.1013 H         1 UNK         0.3000 
    131 H131       -1.8893  -11.1306  -45.5218 H         1 UNK         0.0600 
    132 H132       -1.8063  -11.8117  -47.9182 H         1 UNK         0.0800 
    133 H133       -3.3838  -11.9614  -47.2032 H         1 UNK         0.0800 
    134 H134       -4.2101  -13.3307  -49.2148 H         1 UNK         0.0800 
    135 H135       -2.6399  -13.2667  -49.9787 H         1 UNK         0.0800 
    136 H136       -1.6296  -15.3173  -50.9725 H         1 UNK         0.1150 
    137 H137       -4.3134  -18.5238  -51.8976 H         1 UNK         0.1150 
    138 H138       -5.5566  -15.3821  -49.2615 H         1 UNK         0.1150 
    139 H139       -7.0970  -17.1160  -49.7720 H         1 UNK         0.0800 
    140 H140       -6.9183  -17.7413  -51.3941 H         1 UNK         0.0800 
    141 H141       -5.3259  -18.0518  -48.0290 H         1 UNK         0.0800 
    142 H142       -6.1895  -19.3815  -47.3426 H         1 UNK         0.0800 
    143 H143       -3.7395  -20.0100  -49.0436 H         1 UNK         0.0600 
    144 H144       -3.4575  -18.3007  -46.8253 H         1 UNK         0.3000 
    145 H145       -0.0971  -19.1764  -46.0340 H         1 UNK         0.0600 
    146 H146        0.2197  -16.7976  -46.5829 H         1 UNK         0.0600 
    147 H147       -0.0311  -17.7047  -48.0787 H         1 UNK         0.0600 
    148 H148       -1.3345  -16.7404  -47.4147 H         1 UNK         0.0600 
    149 H149       -1.5143  -17.1251  -44.8987 H         1 UNK         0.3000 
    150 H150       -3.2946  -17.3459  -43.1806 H         1 UNK         0.0600 
    151 H151       -4.1917  -19.4968  -42.3152 H         1 UNK         0.0600 
    152 H152       -3.6501  -18.4755  -40.9941 H         1 UNK         0.0600 
    153 H153       -2.6630  -19.8414  -41.5139 H         1 UNK         0.0600 
    154 H154       -1.0673  -17.9917  -41.4180 H         1 UNK         0.3000 
    155 H155        0.9679  -15.2288  -42.3735 H         1 UNK         0.0600 
    156 H156        0.8831  -14.9497  -39.9159 H         1 UNK         0.0600 
    157 H157       -0.5607  -15.9579  -39.8241 H         1 UNK         0.0600 
    158 H158       -0.6137  -14.4058  -40.6525 H         1 UNK         0.0600 
    159 H159        1.3114  -17.4274  -40.5639 H         1 UNK         0.3000 
    160 H160        3.1111  -18.8039  -40.9546 H         1 UNK         0.0600 
    161 H161        1.4936  -20.4199  -43.0137 H         1 UNK         0.0600 
    162 H162        0.9885  -20.0981  -41.3594 H         1 UNK         0.0600 
    163 H163        2.3895  -21.1138  -41.6634 H         1 UNK         0.0600 
    164 H164        3.8204  -18.7607  -43.7648 H         1 UNK         0.3000 
    165 H165        7.1146  -19.7132  -43.0808 H         1 UNK         0.0600 
    166 H166        5.2377  -21.4465  -44.7788 H         1 UNK         0.0600 
    167 H167        6.9902  -21.3472  -44.9482 H         1 UNK         0.0600 
    168 H168        6.2862  -22.0376  -43.4945 H         1 UNK         0.0600 
    169 H169        5.8193  -19.1824  -45.5715 H         1 UNK         0.3000 
    170 H170        5.8090  -15.6506  -45.3683 H         1 UNK         0.0600 
    171 H171        8.1678  -16.1425  -45.9059 H         1 UNK         0.0600 
    172 H172        7.6958  -17.4935  -46.9244 H         1 UNK         0.0600 
    173 H173        7.2544  -15.8473  -47.3773 H         1 UNK         0.0600 
    174 H174        4.2015  -16.3172  -46.6509 H         1 UNK         0.3000 
    175 H175        3.6975  -18.5465  -49.1692 H         1 UNK         0.0600 
    176 H176        3.0866  -20.3121  -47.5204 H         1 UNK         0.0600 
    177 H177        2.2772  -19.1217  -46.5117 H         1 UNK         0.0600 
    178 H178        1.6490  -19.5076  -48.1177 H         1 UNK         0.0600 
    179 H179        1.9359  -16.9066  -47.5103 H         1 UNK         0.3000 
    180 H180        2.6447  -13.8584  -49.0873 H         1 UNK         0.0600 
    181 H181        0.1946  -15.6254  -49.5939 H         1 UNK         0.0600 
    182 H182        1.1810  -14.8689  -50.8416 H         1 UNK         0.0600 
    183 H183        0.2422  -13.8684  -49.7442 H         1 UNK         0.0600 
    184 H184        0.5147  -14.4721  -47.3843 H         1 UNK         0.3000 
    185 H185        1.4280  -15.1108  -44.6094 H         1 UNK         0.0600 
    186 H186        1.7567  -13.0695  -43.1472 H         1 UNK         0.0600 
    187 H187        3.2583  -13.7007  -43.8036 H         1 UNK         0.0600 
    188 H188        2.5351  -12.2588  -44.5032 H         1 UNK         0.0600 
    189 H189       -0.5741  -14.2403  -44.7985 H         1 UNK         0.3000 
    190 H190       -4.2443  -20.5874  -45.5840 H         1 UNK         0.3000 
    191 H191       -5.3552  -23.2523  -45.8492 H         1 UNK         0.0600 
    192 H192       -5.0948  -23.3080  -43.3926 H         1 UNK         0.0600 
    193 H193       -5.8829  -21.8211  -43.8964 H         1 UNK         0.0600 
    194 H194       -4.1847  -21.8049  -43.4226 H         1 UNK         0.0600 
    195 H195       -2.1663  -21.8552  -45.0368 H         1 UNK         0.3000 
    196 H196       -0.7947  -24.2812  -44.5845 H         1 UNK         0.0600 
    197 H197        1.2403  -22.8474  -44.7722 H         1 UNK         0.0600 
    198 H198       -0.0039  -22.0725  -43.8010 H         1 UNK         0.0600 
    199 H199        0.2752  -21.5460  -45.4601 H         1 UNK         0.0600 
    200 H200       -1.1397  -22.3505  -47.6028 H         1 UNK         0.3000 
    201 H201        0.6295  -23.9781  -49.1470 H         1 UNK         0.0600 
    202 H202        0.2373  -21.6607  -49.7644 H         1 UNK         0.0600 
    203 H203       -1.4878  -21.9344  -49.9526 H         1 UNK         0.0600 
    204 H204       -0.3496  -22.6742  -51.0745 H         1 UNK         0.0600 
    205 H205       -3.0132  -23.8470  -49.0762 H         1 UNK         0.3000 
    206 H206       -3.2318  -26.6399  -49.7529 H         1 UNK         0.0600 
    207 H207       -2.5871  -25.8449  -52.0264 H         1 UNK         0.0600 
    208 H208       -4.2613  -26.3540  -52.0099 H         1 UNK         0.0600 
    209 H209       -3.8714  -24.6433  -51.9825 H         1 UNK         0.0600 
    210 H210       -4.2126  -25.5932  -47.5909 H         1 UNK         0.3000 
    211 H211       -6.0308  -25.6229  -46.3149 H         1 UNK         0.0600 
    212 H212       -7.0666  -27.4576  -48.5349 H         1 UNK         0.0600 
    213 H213       -7.5776  -27.4731  -46.8510 H         1 UNK         0.0600 
    214 H214       -5.9350  -27.9264  -47.2665 H         1 UNK         0.0600 
    215 H215       -6.0960  -23.2958  -47.9077 H         1 UNK         0.3000 
    216 H216       -7.3164  -21.4963  -48.1062 H         1 UNK         0.0600 
    217 H217       -8.5588  -22.1600  -46.0423 H         1 UNK         0.0600 
    218 H218       -9.5190  -21.1908  -47.1465 H         1 UNK         0.0600 
    219 H219       -9.7937  -22.9211  -47.0475 H         1 UNK         0.0600 
    220 H220       -7.1365  -23.6768  -50.2039 H         1 UNK         0.3000 
    221 H221       -8.9344  -22.3371  -52.1719 H         1 UNK         0.0600 
    222 H222       -9.2422  -24.5410  -53.2677 H         1 UNK         0.0600 
    223 H223       -8.2686  -25.3282  -52.0282 H         1 UNK         0.0600 
    224 H224       -9.8288  -24.6194  -51.6146 H         1 UNK         0.0600 
    225 H225       -6.1431  -21.8183  -51.2862 H         1 UNK         0.3000 
    226 H226       -4.3683  -22.8959  -53.3209 H         1 UNK         0.0600 
    227 H227       -3.8850  -20.7365  -51.2006 H         1 UNK         0.0600 
    228 H228       -3.6959  -22.4615  -50.9133 H         1 UNK         0.0600 
    229 H229       -2.6579  -21.6418  -52.0709 H         1 UNK         0.0600 
    230 H230       -2.9196  -21.5499  -54.5651 H         1 UNK         0.3000 
    231 H231       -3.4843  -18.8106  -55.1641 H         1 UNK         0.0600 
    232 H232       -3.7562  -19.1991  -57.6339 H         1 UNK         0.0600 
    233 H233       -5.1101  -19.8849  -56.7492 H         1 UNK         0.0600 
    234 H234       -3.8363  -20.9368  -57.3648 H         1 UNK         0.0600 
    235 H235       -1.6207  -17.9302  -56.2321 H         1 UNK         0.3000 
    236 H236        0.5495  -17.5940  -56.5493 H         1 UNK         0.0600 
    237 H237        0.0934  -18.9678  -58.5747 H         1 UNK         0.0600 
    238 H238        1.7475  -19.1757  -58.0238 H         1 UNK         0.0600 
    239 H239        0.5573  -20.4306  -57.7080 H         1 UNK         0.0600 
    240 H240        0.1927  -17.9218  -54.0007 H         1 UNK         0.3000 
    241 H241        1.5789  -20.0282  -52.7116 H         1 UNK         0.0600 
    242 H242        3.0276  -17.1698  -54.1733 H         1 UNK         0.3800 
    243 H243        4.5747  -17.3655  -53.3940 H         1 UNK         0.3800 
    244 H244        0.8284  -17.3038  -51.5342 H         1 UNK         0.0800 
    245 H245        1.2753  -18.7205  -50.6288 H         1 UNK         0.0800 
    246 H246       -1.0992  -16.8881  -52.7525 H         1 UNK         0.0800 
    247 H247       -2.2710  -18.0664  -53.2755 H         1 UNK         0.0800 
@<TRIPOS>BOND
     1    1    2 1    
     2    1  127 1    
     3    1  128 1    
     4    1  129 1    
     5    2    3 2    
     6    2    4 am   BACKBONE|DICT|INTERRES
     7    4    5 1    
     8    4  130 1    
     9    5    6 1    
    10    5   65 1    
    11    5  131 1    
    12    6    7 1    
    13    6  132 1    
    14    6  133 1    
    15    7    8 1    
    16    8    9 1    
    17    8  134 1    
    18    8  135 1    
    19    9   10 ar   
    20    9   14 ar   
    21   10   11 ar   
    22   10  136 1    
    23   11   12 ar   
    24   11  126 1    
    25   12   13 ar   
    26   12  137 1    
    27   13   14 ar   
    28   13   15 1    
    29   14  138 1    
    30   15   16 1    
    31   15  139 1    
    32   15  140 1    
    33   16   17 1    
    34   17   18 1    
    35   17  141 1    
    36   17  142 1    
    37   18   19 1    
    38   18   67 1    
    39   18  143 1    
    40   19   20 am   BACKBONE|DICT|INTERRES
    41   19  144 1    
    42   20   21 2    
    43   20   22 1    
    44   22   23 1    
    45   22   24 1    
    46   22  145 1    
    47   23  146 1    
    48   23  147 1    
    49   23  148 1    
    50   24   25 am   BACKBONE|DICT|INTERRES
    51   24  149 1    
    52   25   26 2    
    53   25   27 1    
    54   27   28 1    
    55   27   29 1    
    56   27  150 1    
    57   28  151 1    
    58   28  152 1    
    59   28  153 1    
    60   29   30 am   BACKBONE|DICT|INTERRES
    61   29  154 1    
    62   30   31 2    
    63   30   32 1    
    64   32   33 1    
    65   32   34 1    
    66   32  155 1    
    67   33  156 1    
    68   33  157 1    
    69   33  158 1    
    70   34   35 am   BACKBONE|DICT|INTERRES
    71   34  159 1    
    72   35   36 2    
    73   35   37 1    
    74   37   38 1    
    75   37   39 1    
    76   37  160 1    
    77   38  161 1    
    78   38  162 1    
    79   38  163 1    
    80   39   40 am   BACKBONE|DICT|INTERRES
    81   39  164 1    
    82   40   41 2    
    83   40   42 1    
    84   42   43 1    
    85   42   44 1    
    86   42  165 1    
    87   43  166 1    
    88   43  167 1    
    89   43  168 1    
    90   44   45 am   BACKBONE|DICT|INTERRES
    91   44  169 1    
    92   45   46 2    
    93   45   47 1    
    94   47   48 1    
    95   47   49 1    
    96   47  170 1    
    97   48  171 1    
    98   48  172 1    
    99   48  173 1    
   100   49   50 am   BACKBONE|DICT|INTERRES
   101   49  174 1    
   102   50   51 2    
   103   50   52 1    
   104   52   53 1    
   105   52   54 1    
   106   52  175 1    
   107   53  176 1    
   108   53  177 1    
   109   53  178 1    
   110   54   55 am   BACKBONE|DICT|INTERRES
   111   54  179 1    
   112   55   56 2    
   113   55   57 1    
   114   57   58 1    
   115   57   59 1    
   116   57  180 1    
   117   58  181 1    
   118   58  182 1    
   119   58  183 1    
   120   59   60 am   BACKBONE|DICT|INTERRES
   121   59  184 1    
   122   60   61 2    
   123   60   62 1    
   124   62   63 1    
   125   62   64 1    
   126   62  185 1    
   127   63  186 1    
   128   63  187 1    
   129   63  188 1    
   130   64   65 am   BACKBONE|DICT|INTERRES
   131   64  189 1    
   132   65   66 2    
   133   67   68 2    
   134   67   69 am   BACKBONE|DICT|INTERRES
   135   69   70 1    
   136   69  190 1    
   137   70   71 1    
   138   70   72 1    
   139   70  191 1    
   140   71  192 1    
   141   71  193 1    
   142   71  194 1    
   143   72   73 2    
   144   72   74 am   BACKBONE|DICT|INTERRES
   145   74   75 1    
   146   74  195 1    
   147   75   76 1    
   148   75   77 1    
   149   75  196 1    
   150   76  197 1    
   151   76  198 1    
   152   76  199 1    
   153   77   78 2    
   154   77   79 am   BACKBONE|DICT|INTERRES
   155   79   80 1    
   156   79  200 1    
   157   80   81 1    
   158   80   82 1    
   159   80  201 1    
   160   81  202 1    
   161   81  203 1    
   162   81  204 1    
   163   82   83 2    
   164   82   84 am   BACKBONE|DICT|INTERRES
   165   84   85 1    
   166   84  205 1    
   167   85   86 1    
   168   85   87 1    
   169   85  206 1    
   170   86  207 1    
   171   86  208 1    
   172   86  209 1    
   173   87   88 2    
   174   87   89 am   BACKBONE|DICT|INTERRES
   175   89   90 1    
   176   89  210 1    
   177   90   91 1    
   178   90   92 1    
   179   90  211 1    
   180   91  212 1    
   181   91  213 1    
   182   91  214 1    
   183   92   93 2    
   184   92   94 am   BACKBONE|DICT|INTERRES
   185   94   95 1    
   186   94  215 1    
   187   95   96 1    
   188   95   97 1    
   189   95  216 1    
   190   96  217 1    
   191   96  218 1    
   192   96  219 1    
   193   97   98 2    
   194   97   99 am   BACKBONE|DICT|INTERRES
   195   99  100 1    
   196   99  220 1    
   197  100  101 1    
   198  100  102 1    
   199  100  221 1    
   200  101  222 1    
   201  101  223 1    
   202  101  224 1    
   203  102  103 2    
   204  102  104 am   BACKBONE|DICT|INTERRES
   205  104  105 1    
   206  104  225 1    
   207  105  106 1    
   208  105  107 1    
   209  105  226 1    
   210  106  227 1    
   211  106  228 1    
   212  106  229 1    
   213  107  108 2    
   214  107  109 am   BACKBONE|DICT|INTERRES
   215  109  110 1    
   216  109  230 1    
   217  110  111 1    
   218  110  112 1    
   219  110  231 1    
   220  111  232 1    
   221  111  233 1    
   222  111  234 1    
   223  112  113 2    
   224  112  114 am   BACKBONE|DICT|INTERRES
   225  114  115 1    
   226  114  235 1    
   227  115  116 1    
   228  115  117 1    
   229  115  236 1    
   230  116  237 1    
   231  116  238 1    
   232  116  239 1    
   233  117  118 2    
   234  117  119 am   BACKBONE|DICT|INTERRES
   235  119  120 1    
   236  119  240 1    
   237  120  121 1    
   238  120  124 1    
   239  120  241 1    
   240  121  122 am   BACKBONE|DICT|INTERRES
   241  121  123 2    
   242  122  242 1    
   243  122  243 1    
   244  124  125 1    
   245  124  244 1    
   246  124  245 1    
   247  125  126 1    
   248  126  246 1    
   249  126  247 1    
@<TRIPOS>SUBSTRUCTURE
     1 UNK         1 GROUP             0       ****    0 ROOT    
