@<TRIPOS>MOLECULE
3R540
247   249    1
SMALL
USER_CHARGES


@<TRIPOS>ATOM
      1 CA          1.8517  -13.2184  -51.0003 C.3       0 UNK        -0.1800 
      2 C           2.5818  -14.5434  -50.8303 C.2       0 UNK         0.5000 
      3 O           3.4497  -14.8740  -51.6389 O.2       0 UNK        -0.5000 
      4 N           2.2275  -15.3035  -49.7877 N.am      1 UNK        -0.5000 
      5 CA          2.8435  -16.5853  -49.4323 C.3       1 UNK         0.1400 
      6 C6          2.0083  -17.3617  -48.3873 C.3       23 UNK        -0.0398 
      7 S7          0.3018  -17.7120  -48.9258 S.3       23 UNK        -0.2404 
      8 C8         -0.6249  -16.5498  -47.8803 C.3       23 UNK        -0.0205 
      9 C9         -2.1240  -16.7157  -48.0596 C.ar      23 UNK        -0.0193 
     10 C10        -2.7659  -16.1504  -49.1650 C.ar      23 UNK        -0.1150 
     11 C11        -4.1468  -16.2895  -49.3285 C.ar      23 UNK        -0.0193 
     12 C12        -4.8822  -17.0065  -48.3814 C.ar      23 UNK        -0.1150 
     13 C13        -4.2532  -17.5809  -47.2740 C.ar      23 UNK        -0.0193 
     14 C14        -2.8725  -17.4226  -47.1144 C.ar      23 UNK        -0.1150 
     15 C15        -5.0816  -18.3412  -46.2474 C.3       23 UNK        -0.0205 
     16 S16        -4.7204  -20.1259  -46.2353 S.3       23 UNK        -0.2404 
     17 C17        -3.3257  -20.2244  -45.0610 C.3       23 UNK        -0.0398 
     18 CA         -2.0129  -20.6904  -45.7380 C.3       11 UNK         0.1400 
     19 N          -0.8272  -20.2033  -45.0308 N.am      11 UNK        -0.5000 
     20 C           0.4266  -20.3027  -45.4970 C.2       10 UNK         0.5000 
     21 O           0.7144  -20.7568  -46.6024 O.2       10 UNK        -0.5000 
     22 CA          1.5603  -19.8760  -44.5531 C.3       10 UNK         0.1400 
     23 CB          2.0039  -18.4436  -44.8609 C.3       10 UNK        -0.1800 
     24 N           1.2030  -20.0160  -43.1398 N.am      10 UNK        -0.5000 
     25 C           1.0965  -21.2106  -42.5385 C.2       9 UNK         0.5000 
     26 O           1.2750  -22.2783  -43.1264 O.2       9 UNK        -0.5000 
     27 CA          0.6942  -21.2387  -41.0527 C.3       9 UNK         0.1400 
     28 CB          1.9476  -21.2111  -40.1655 C.3       9 UNK        -0.1800 
     29 N          -0.2167  -20.1753  -40.6221 N.am      9 UNK        -0.5000 
     30 C          -1.4116  -19.8882  -41.1552 C.2       8 UNK         0.5000 
     31 O          -1.8441  -20.4164  -42.1830 O.2       8 UNK        -0.5000 
     32 CA         -2.2721  -18.8390  -40.4278 C.3       8 UNK         0.1400 
     33 CB         -1.5254  -18.0333  -39.3422 C.3       8 UNK        -0.1800 
     34 N          -2.8270  -17.9326  -41.4222 N.am      8 UNK        -0.5000 
     35 C          -3.9902  -17.2762  -41.3375 C.2       7 UNK         0.5000 
     36 O          -4.7596  -17.3784  -40.3805 O.2       7 UNK        -0.5000 
     37 CA         -4.3647  -16.3685  -42.5336 C.3       7 UNK         0.1400 
     38 CB         -5.1519  -15.1112  -42.1082 C.3       7 UNK        -0.1800 
     39 N          -3.2158  -16.0218  -43.3855 N.am      7 UNK        -0.5000 
     40 C          -2.1444  -15.2972  -43.0312 C.2       6 UNK         0.5000 
     41 O          -2.0384  -14.6828  -41.9671 O.2       6 UNK        -0.5000 
     42 CA         -0.9781  -15.2961  -44.0353 C.3       6 UNK         0.1400 
     43 CB         -1.0752  -14.1038  -44.9976 C.3       6 UNK        -0.1800 
     44 N           0.3170  -15.2672  -43.3583 N.am      6 UNK        -0.5000 
     45 C           0.8005  -16.2289  -42.5629 C.2       5 UNK         0.5000 
     46 O           0.2319  -17.3106  -42.3874 O.2       5 UNK        -0.5000 
     47 CA          2.1716  -15.9543  -41.9054 C.3       5 UNK         0.1400 
     48 CB          2.6035  -17.0918  -40.9614 C.3       5 UNK        -0.1800 
     49 N           3.2403  -15.7382  -42.8857 N.am      5 UNK        -0.5000 
     50 C           3.4139  -14.6652  -43.6654 C.2       4 UNK         0.5000 
     51 O           2.6663  -13.6861  -43.6366 O.2       4 UNK        -0.5000 
     52 CA          4.5998  -14.6654  -44.6540 C.3       4 UNK         0.1400 
     53 CB          5.7816  -13.8578  -44.0849 C.3       4 UNK        -0.1800 
     54 N           5.0547  -15.9759  -45.1483 N.am      4 UNK        -0.5000 
     55 C           5.6465  -16.9793  -44.4796 C.2       3 UNK         0.5000 
     56 O           5.7660  -16.9975  -43.2547 O.2       3 UNK        -0.5000 
     57 CA          6.1994  -18.1679  -45.2992 C.3       3 UNK         0.1400 
     58 CB          5.5093  -19.4913  -44.9292 C.3       3 UNK        -0.1800 
     59 N           6.1139  -17.9790  -46.7496 N.am      3 UNK        -0.5000 
     60 C           6.9645  -17.2427  -47.4777 C.2       2 UNK         0.5000 
     61 O           7.9498  -16.6729  -47.0080 O.2       2 UNK        -0.5000 
     62 CA          6.6496  -17.0995  -48.9810 C.3       2 UNK         0.1400 
     63 CB          7.4310  -18.1442  -49.7925 C.3       2 UNK        -0.1800 
     64 N           5.2238  -17.2000  -49.3204 N.am      2 UNK        -0.5000 
     65 C           4.2716  -16.3586  -48.8941 C.2       1 UNK         0.5000 
     66 O           4.4743  -15.4573  -48.0766 O.2       1 UNK        -0.5000 
     67 C          -1.9723  -22.2231  -45.8785 C.2       11 UNK         0.5000 
     68 O          -2.2255  -22.7420  -46.9639 O.2       11 UNK        -0.5000 
     69 N          -1.6030  -22.9090  -44.7874 N.am      12 UNK        -0.5000 
     70 CA         -1.4241  -24.3586  -44.7464 C.3       12 UNK         0.1400 
     71 CB         -1.3131  -24.8169  -43.2841 C.3       12 UNK        -0.1800 
     72 C          -0.2057  -24.8247  -45.5637 C.2       12 UNK         0.5000 
     73 O          -0.2949  -25.8428  -46.2502 O.2       12 UNK        -0.5000 
     74 N           0.9011  -24.0720  -45.4817 N.am      13 UNK        -0.5000 
     75 CA          2.1493  -24.3600  -46.1878 C.3       13 UNK         0.1400 
     76 CB          3.2769  -23.4770  -45.6309 C.3       13 UNK        -0.1800 
     77 C           2.0315  -24.1924  -47.7133 C.2       13 UNK         0.5000 
     78 O           2.4472  -25.0860  -48.4523 O.2       13 UNK        -0.5000 
     79 N           1.4801  -23.0548  -48.1590 N.am      14 UNK        -0.5000 
     80 CA          1.3408  -22.7237  -49.5779 C.3       14 UNK         0.1400 
     81 CB          1.2439  -21.1984  -49.7355 C.3       14 UNK        -0.1800 
     82 C           0.1261  -23.3968  -50.2385 C.2       14 UNK         0.5000 
     83 O           0.1534  -23.6160  -51.4498 O.2       14 UNK        -0.5000 
     84 N          -0.9231  -23.6722  -49.4462 N.am      15 UNK        -0.5000 
     85 CA         -2.2458  -24.1574  -49.8635 C.3       15 UNK         0.1400 
     86 CB         -2.1540  -25.5713  -50.4746 C.3       15 UNK        -0.1800 
     87 C          -2.9864  -23.1558  -50.7769 C.2       15 UNK         0.5000 
     88 O          -3.8111  -23.5676  -51.5922 O.2       15 UNK        -0.5000 
     89 N          -2.6741  -21.8584  -50.6316 N.am      16 UNK        -0.5000 
     90 CA         -3.0817  -20.7723  -51.5263 C.3       16 UNK         0.1400 
     91 CB         -2.4660  -19.4522  -51.0369 C.3       16 UNK        -0.1800 
     92 C          -4.6025  -20.6304  -51.6966 C.2       16 UNK         0.5000 
     93 O          -5.0767  -20.4853  -52.8245 O.2       16 UNK        -0.5000 
     94 N          -5.3357  -20.7133  -50.5794 N.am      17 UNK        -0.5000 
     95 CA         -6.7950  -20.6254  -50.5494 C.3       17 UNK         0.1400 
     96 CB         -7.2557  -20.3949  -49.1029 C.3       17 UNK        -0.1800 
     97 C          -7.4832  -21.8658  -51.1501 C.2       17 UNK         0.5000 
     98 O          -8.5420  -21.7312  -51.7633 O.2       17 UNK        -0.5000 
     99 N          -6.8672  -23.0442  -50.9795 N.am      18 UNK        -0.5000 
    100 CA        -7.3519  -24.3188  -51.5130 C.3       18 UNK         0.1400 
    101 CB        -6.7059  -25.4771  -50.7370 C.3       18 UNK        -0.1800 
    102 C         -7.0803  -24.4498  -53.0217 C.2       18 UNK         0.5000 
    103 O         -7.9416  -24.9297  -53.7593 O.2       18 UNK        -0.5000 
    104 N         -5.8973  -23.9934  -53.4532 N.am      19 UNK        -0.5000 
    105 CA        -5.4669  -23.9433  -54.8510 C.3       19 UNK         0.1400 
    106 CB        -3.9439  -23.7358  -54.8841 C.3       19 UNK        -0.1800 
    107 C         -6.1673  -22.8402  -55.6688 C.2       19 UNK         0.5000 
    108 O         -6.1166  -22.8840  -56.8986 O.2       19 UNK        -0.5000 
    109 N         -6.7772  -21.8672  -54.9744 N.am      20 UNK        -0.5000 
    110 CA        -7.3842  -20.6393  -55.4974 C.3       20 UNK         0.1400 
    111 CB        -8.5952  -20.9493  -56.4015 C.3       20 UNK        -0.1800 
    112 C         -6.3422  -19.7144  -56.1616 C.2       20 UNK         0.5000 
    113 O         -6.6375  -19.0442  -57.1528 O.2       20 UNK        -0.5000 
    114 N         -5.1352  -19.6831  -55.5801 N.am      21 UNK        -0.5000 
    115 CA        -4.0065  -18.8552  -56.0105 C.3       21 UNK         0.1400 
    116 CB        -2.7225  -19.4081  -55.3731 C.3       21 UNK        -0.1800 
    117 C         -4.1884  -17.3671  -55.6518 C.2       21 UNK         0.5000 
    118 O         -3.5011  -16.5152  -56.2158 O.2       21 UNK        -0.5000 
    119 N         -5.1079  -17.0895  -54.7206 N.am      22 UNK        -0.5000 
    120 CA        -5.4693  -15.7561  -54.2189 C.3       22 UNK         0.1400 
    121 C         -6.1942  -14.8387  -55.2487 C.2       22 UNK         0.5000 
    122 N         -6.6754  -15.3480  -56.3770 N.am      22 UNK        -0.7600 
    123 O         -6.3209  -13.6393  -55.0180 O.2       22 UNK        -0.5000 
    124 C124       -6.2994  -15.8576  -52.9133 C.3       23 UNK        -0.0398 
    125 S125       -5.5141  -16.9099  -51.6444 S.3       23 UNK        -0.2404 
    126 C126       -4.8546  -15.6516  -50.5125 C.3       23 UNK        -0.0205 
    127 H127        1.3507  -13.1875  -51.9679 H         1 UNK         0.0600 
    128 H128        2.5603  -12.3914  -50.9551 H         1 UNK         0.0600 
    129 H129        1.1011  -13.0662  -50.2242 H         1 UNK         0.0600 
    130 H130        1.5242  -14.9659  -49.1493 H         1 UNK         0.3000 
    131 H131        2.9032  -17.1909  -50.3394 H         1 UNK         0.0600 
    132 H132        1.9838  -16.8169  -47.4420 H         1 UNK         0.0800 
    133 H133        2.4760  -18.3249  -48.1767 H         1 UNK         0.0800 
    134 H134       -0.3390  -15.5257  -48.1224 H         1 UNK         0.0800 
    135 H135       -0.3497  -16.7125  -46.8382 H         1 UNK         0.0800 
    136 H136       -2.1878  -15.6018  -49.8953 H         1 UNK         0.1150 
    137 H137       -5.9500  -17.1126  -48.5118 H         1 UNK         0.1150 
    138 H138       -2.3728  -17.8526  -46.2607 H         1 UNK         0.1150 
    139 H139       -6.1448  -18.2192  -46.4599 H         1 UNK         0.0800 
    140 H140       -4.9313  -17.9137  -45.2581 H         1 UNK         0.0800 
    141 H141       -3.1825  -19.2489  -44.5974 H         1 UNK         0.0800 
    142 H142       -3.6094  -20.8828  -44.2376 H         1 UNK         0.0800 
    143 H143       -1.9697  -20.2681  -46.7449 H         1 UNK         0.0600 
    144 H144       -0.9633  -19.9093  -44.0711 H         1 UNK         0.3000 
    145 H145        2.4129  -20.5291  -44.7416 H         1 UNK         0.0600 
    146 H146        2.5101  -18.4044  -45.8224 H         1 UNK         0.0600 
    147 H147        2.7103  -18.0843  -44.1158 H         1 UNK         0.0600 
    148 H148        1.1611  -17.7554  -44.9105 H         1 UNK         0.0600 
    149 H149        0.9684  -19.1692  -42.6311 H         1 UNK         0.3000 
    150 H150        0.1798  -22.1866  -40.8822 H         1 UNK         0.0600 
    151 H151        2.4813  -20.2640  -40.2531 H         1 UNK         0.0600 
    152 H152        2.6418  -22.0059  -40.4426 H         1 UNK         0.0600 
    153 H153        1.6925  -21.3576  -39.1158 H         1 UNK         0.0600 
    154 H154        0.0640  -19.6615  -39.8002 H         1 UNK         0.3000 
    155 H155       -3.0869  -19.3893  -39.9532 H         1 UNK         0.0600 
    156 H156       -2.1883  -17.3089  -38.8689 H         1 UNK         0.0600 
    157 H157       -0.6823  -17.4808  -39.7583 H         1 UNK         0.0600 
    158 H158       -1.1503  -18.6807  -38.5489 H         1 UNK         0.0600 
    159 H159       -2.2493  -17.8020  -42.2404 H         1 UNK         0.3000 
    160 H160       -5.0331  -16.9665  -43.1525 H         1 UNK         0.0600 
    161 H161       -4.5973  -14.5043  -41.3925 H         1 UNK         0.0600 
    162 H162       -6.0966  -15.3839  -41.6364 H         1 UNK         0.0600 
    163 H163       -5.3898  -14.4849  -42.9680 H         1 UNK         0.0600 
    164 H164       -3.2210  -16.4433  -44.3023 H         1 UNK         0.3000 
    165 H165       -1.0219  -16.2183  -44.6170 H         1 UNK         0.0600 
    166 H166       -0.2630  -14.1162  -45.7247 H         1 UNK         0.0600 
    167 H167       -2.0118  -14.1270  -45.5564 H         1 UNK         0.0600 
    168 H168       -1.0325  -13.1535  -44.4638 H         1 UNK         0.0600 
    169 H169        0.8795  -14.4299  -43.4726 H         1 UNK         0.3000 
    170 H170        2.0634  -15.0472  -41.3076 H         1 UNK         0.0600 
    171 H171        3.5283  -16.8410  -40.4417 H         1 UNK         0.0600 
    172 H172        2.7690  -18.0237  -41.5029 H         1 UNK         0.0600 
    173 H173        1.8464  -17.2818  -40.1996 H         1 UNK         0.0600 
    174 H174        3.9566  -16.4551  -42.9411 H         1 UNK         0.3000 
    175 H175        4.2462  -14.1367  -45.5406 H         1 UNK         0.0600 
    176 H176        5.4729  -12.8441  -43.8263 H         1 UNK         0.0600 
    177 H177        6.1889  -14.3135  -43.1820 H         1 UNK         0.0600 
    178 H178        6.5886  -13.7750  -44.8131 H         1 UNK         0.0600 
    179 H179        4.9855  -16.0702  -46.1556 H         1 UNK         0.3000 
    180 H180        7.2515  -18.2621  -45.0219 H         1 UNK         0.0600 
    181 H181        6.0671  -20.3415  -45.3222 H         1 UNK         0.0600 
    182 H182        4.5021  -19.5489  -45.3343 H         1 UNK         0.0600 
    183 H183        5.4423  -19.6235  -43.8484 H         1 UNK         0.0600 
    184 H184        5.3423  -18.4238  -47.2234 H         1 UNK         0.3000 
    185 H185        6.9898  -16.1080  -49.2873 H         1 UNK         0.0600 
    186 H186        8.5003  -18.0806  -49.5860 H         1 UNK         0.0600 
    187 H187        7.1109  -19.1596  -49.5554 H         1 UNK         0.0600 
    188 H188        7.3001  -17.9912  -50.8640 H         1 UNK         0.0600 
    189 H189        4.9781  -17.9199  -49.9850 H         1 UNK         0.3000 
    190 H190       -1.3889  -22.3985  -43.9420 H         1 UNK         0.3000 
    191 H191       -2.3130  -24.8218  -45.1802 H         1 UNK         0.0600 
    192 H192       -2.2029  -24.5438  -42.7167 H         1 UNK         0.0600 
    193 H193       -1.2088  -25.9009  -43.2229 H         1 UNK         0.0600 
    194 H194       -0.4494  -24.3763  -42.7854 H         1 UNK         0.0600 
    195 H195        0.9110  -23.2883  -44.8373 H         1 UNK         0.3000 
    196 H196        2.4111  -25.4009  -45.9860 H         1 UNK         0.0600 
    197 H197        4.2344  -23.7399  -46.0821 H         1 UNK         0.0600 
    198 H198        3.3810  -23.5984  -44.5525 H         1 UNK         0.0600 
    199 H199        3.1005  -22.4219  -45.8359 H         1 UNK         0.0600 
    200 H200        1.1764  -22.3447  -47.4965 H         1 UNK         0.3000 
    201 H201        2.2357  -23.0577  -50.1076 H         1 UNK         0.0600 
    202 H202        1.2092  -20.9137  -50.7878 H         1 UNK         0.0600 
    203 H203        2.1043  -20.6985  -49.2908 H         1 UNK         0.0600 
    204 H204        0.3454  -20.8018  -49.2614 H         1 UNK         0.0600 
    205 H205       -0.8582  -23.4294  -48.4645 H         1 UNK         0.3000 
    206 H206       -2.8483  -24.2405  -48.9593 H         1 UNK         0.0600 
    207 H207       -1.6100  -26.2494  -49.8171 H         1 UNK         0.0600 
    208 H208       -3.1466  -25.9959  -50.6272 H         1 UNK         0.0600 
    209 H209       -1.6525  -25.5656  -51.4425 H         1 UNK         0.0600 
    210 H210       -2.0092  -21.6194  -49.9115 H         1 UNK         0.3000 
    211 H211       -2.6659  -20.9979  -52.5099 H         1 UNK         0.0600 
    212 H212       -2.7927  -19.2031  -50.0261 H         1 UNK         0.0600 
    213 H213       -2.7506  -18.6214  -51.6841 H         1 UNK         0.0600 
    214 H214       -1.3770  -19.5005  -51.0333 H         1 UNK         0.0600 
    215 H215       -4.8629  -20.8332  -49.6956 H         1 UNK         0.3000 
    216 H216       -7.0958  -19.7592  -51.1430 H         1 UNK         0.0600 
    217 H217       -8.3413  -20.3053  -49.0474 H         1 UNK         0.0600 
    218 H218       -6.9586  -21.2155  -48.4486 H         1 UNK         0.0600 
    219 H219       -6.8337  -19.4750  -48.6990 H         1 UNK         0.0600 
    220 H220       -5.9704  -23.0575  -50.5161 H         1 UNK         0.3000 
    221 H221       -8.4321  -24.3722  -51.3607 H         1 UNK         0.0600 
    222 H222       -5.6209  -25.4810  -50.8426 H         1 UNK         0.0600 
    223 H223       -6.9391  -25.4176  -49.6738 H         1 UNK         0.0600 
    224 H224       -7.0731  -26.4390  -51.0969 H         1 UNK         0.0600 
    225 H225       -5.2166  -23.6801  -52.7635 H         1 UNK         0.3000 
    226 H226       -5.6967  -24.9021  -55.3199 H         1 UNK         0.0600 
    227 H227       -3.5697  -23.7267  -55.9085 H         1 UNK         0.0600 
    228 H228       -3.6589  -22.7899  -54.4209 H         1 UNK         0.0600 
    229 H229       -3.4251  -24.5355  -54.3551 H         1 UNK         0.0600 
    230 H230       -6.7138  -21.9208  -53.9669 H         1 UNK         0.3000 
    231 H231       -7.7568  -20.0966  -54.6273 H         1 UNK         0.0600 
    232 H232       -8.2962  -21.4238  -57.3364 H         1 UNK         0.0600 
    233 H233       -9.1326  -20.0359  -56.6584 H         1 UNK         0.0600 
    234 H234       -9.3017  -21.6106  -55.8997 H         1 UNK         0.0600 
    235 H235       -5.0111  -20.2032  -54.7153 H         1 UNK         0.3000 
    236 H236       -3.9152  -18.9294  -57.0960 H         1 UNK         0.0600 
    237 H237       -2.7447  -19.3163  -54.2871 H         1 UNK         0.0600 
    238 H238       -2.5781  -20.4602  -55.6201 H         1 UNK         0.0600 
    239 H239       -1.8455  -18.8663  -55.7294 H         1 UNK         0.0600 
    240 H240       -5.5905  -17.8650  -54.2916 H         1 UNK         0.3000 
    241 H241       -4.5341  -15.2492  -53.9741 H         1 UNK         0.0600 
    242 H242       -6.5739  -16.3303  -56.5830 H         1 UNK         0.3800 
    243 H243       -7.1396  -14.7432  -57.0364 H         1 UNK         0.3800 
    244 H244       -7.2837  -16.2784  -53.1259 H         1 UNK         0.0800 
    245 H245       -6.4818  -14.8655  -52.4964 H         1 UNK         0.0800 
    246 H246       -4.1772  -14.9952  -51.0609 H         1 UNK         0.0800 
    247 H247       -5.6701  -15.0263  -50.1461 H         1 UNK         0.0800 
@<TRIPOS>BOND
     1    1    2 1    
     2    1  127 1    
     3    1  128 1    
     4    1  129 1    
     5    2    3 2    
     6    2    4 am   BACKBONE|DICT|INTERRES
     7    4    5 1    
     8    4  130 1    
     9    5    6 1    
    10    5   65 1    
    11    5  131 1    
    12    6    7 1    
    13    6  132 1    
    14    6  133 1    
    15    7    8 1    
    16    8    9 1    
    17    8  134 1    
    18    8  135 1    
    19    9   10 ar   
    20    9   14 ar   
    21   10   11 ar   
    22   10  136 1    
    23   11   12 ar   
    24   11  126 1    
    25   12   13 ar   
    26   12  137 1    
    27   13   14 ar   
    28   13   15 1    
    29   14  138 1    
    30   15   16 1    
    31   15  139 1    
    32   15  140 1    
    33   16   17 1    
    34   17   18 1    
    35   17  141 1    
    36   17  142 1    
    37   18   19 1    
    38   18   67 1    
    39   18  143 1    
    40   19   20 am   BACKBONE|DICT|INTERRES
    41   19  144 1    
    42   20   21 2    
    43   20   22 1    
    44   22   23 1    
    45   22   24 1    
    46   22  145 1    
    47   23  146 1    
    48   23  147 1    
    49   23  148 1    
    50   24   25 am   BACKBONE|DICT|INTERRES
    51   24  149 1    
    52   25   26 2    
    53   25   27 1    
    54   27   28 1    
    55   27   29 1    
    56   27  150 1    
    57   28  151 1    
    58   28  152 1    
    59   28  153 1    
    60   29   30 am   BACKBONE|DICT|INTERRES
    61   29  154 1    
    62   30   31 2    
    63   30   32 1    
    64   32   33 1    
    65   32   34 1    
    66   32  155 1    
    67   33  156 1    
    68   33  157 1    
    69   33  158 1    
    70   34   35 am   BACKBONE|DICT|INTERRES
    71   34  159 1    
    72   35   36 2    
    73   35   37 1    
    74   37   38 1    
    75   37   39 1    
    76   37  160 1    
    77   38  161 1    
    78   38  162 1    
    79   38  163 1    
    80   39   40 am   BACKBONE|DICT|INTERRES
    81   39  164 1    
    82   40   41 2    
    83   40   42 1    
    84   42   43 1    
    85   42   44 1    
    86   42  165 1    
    87   43  166 1    
    88   43  167 1    
    89   43  168 1    
    90   44   45 am   BACKBONE|DICT|INTERRES
    91   44  169 1    
    92   45   46 2    
    93   45   47 1    
    94   47   48 1    
    95   47   49 1    
    96   47  170 1    
    97   48  171 1    
    98   48  172 1    
    99   48  173 1    
   100   49   50 am   BACKBONE|DICT|INTERRES
   101   49  174 1    
   102   50   51 2    
   103   50   52 1    
   104   52   53 1    
   105   52   54 1    
   106   52  175 1    
   107   53  176 1    
   108   53  177 1    
   109   53  178 1    
   110   54   55 am   BACKBONE|DICT|INTERRES
   111   54  179 1    
   112   55   56 2    
   113   55   57 1    
   114   57   58 1    
   115   57   59 1    
   116   57  180 1    
   117   58  181 1    
   118   58  182 1    
   119   58  183 1    
   120   59   60 am   BACKBONE|DICT|INTERRES
   121   59  184 1    
   122   60   61 2    
   123   60   62 1    
   124   62   63 1    
   125   62   64 1    
   126   62  185 1    
   127   63  186 1    
   128   63  187 1    
   129   63  188 1    
   130   64   65 am   BACKBONE|DICT|INTERRES
   131   64  189 1    
   132   65   66 2    
   133   67   68 2    
   134   67   69 am   BACKBONE|DICT|INTERRES
   135   69   70 1    
   136   69  190 1    
   137   70   71 1    
   138   70   72 1    
   139   70  191 1    
   140   71  192 1    
   141   71  193 1    
   142   71  194 1    
   143   72   73 2    
   144   72   74 am   BACKBONE|DICT|INTERRES
   145   74   75 1    
   146   74  195 1    
   147   75   76 1    
   148   75   77 1    
   149   75  196 1    
   150   76  197 1    
   151   76  198 1    
   152   76  199 1    
   153   77   78 2    
   154   77   79 am   BACKBONE|DICT|INTERRES
   155   79   80 1    
   156   79  200 1    
   157   80   81 1    
   158   80   82 1    
   159   80  201 1    
   160   81  202 1    
   161   81  203 1    
   162   81  204 1    
   163   82   83 2    
   164   82   84 am   BACKBONE|DICT|INTERRES
   165   84   85 1    
   166   84  205 1    
   167   85   86 1    
   168   85   87 1    
   169   85  206 1    
   170   86  207 1    
   171   86  208 1    
   172   86  209 1    
   173   87   88 2    
   174   87   89 am   BACKBONE|DICT|INTERRES
   175   89   90 1    
   176   89  210 1    
   177   90   91 1    
   178   90   92 1    
   179   90  211 1    
   180   91  212 1    
   181   91  213 1    
   182   91  214 1    
   183   92   93 2    
   184   92   94 am   BACKBONE|DICT|INTERRES
   185   94   95 1    
   186   94  215 1    
   187   95   96 1    
   188   95   97 1    
   189   95  216 1    
   190   96  217 1    
   191   96  218 1    
   192   96  219 1    
   193   97   98 2    
   194   97   99 am   BACKBONE|DICT|INTERRES
   195   99  100 1    
   196   99  220 1    
   197  100  101 1    
   198  100  102 1    
   199  100  221 1    
   200  101  222 1    
   201  101  223 1    
   202  101  224 1    
   203  102  103 2    
   204  102  104 am   BACKBONE|DICT|INTERRES
   205  104  105 1    
   206  104  225 1    
   207  105  106 1    
   208  105  107 1    
   209  105  226 1    
   210  106  227 1    
   211  106  228 1    
   212  106  229 1    
   213  107  108 2    
   214  107  109 am   BACKBONE|DICT|INTERRES
   215  109  110 1    
   216  109  230 1    
   217  110  111 1    
   218  110  112 1    
   219  110  231 1    
   220  111  232 1    
   221  111  233 1    
   222  111  234 1    
   223  112  113 2    
   224  112  114 am   BACKBONE|DICT|INTERRES
   225  114  115 1    
   226  114  235 1    
   227  115  116 1    
   228  115  117 1    
   229  115  236 1    
   230  116  237 1    
   231  116  238 1    
   232  116  239 1    
   233  117  118 2    
   234  117  119 am   BACKBONE|DICT|INTERRES
   235  119  120 1    
   236  119  240 1    
   237  120  121 1    
   238  120  124 1    
   239  120  241 1    
   240  121  122 am   BACKBONE|DICT|INTERRES
   241  121  123 2    
   242  122  242 1    
   243  122  243 1    
   244  124  125 1    
   245  124  244 1    
   246  124  245 1    
   247  125  126 1    
   248  126  246 1    
   249  126  247 1    
@<TRIPOS>SUBSTRUCTURE
     1 UNK         1 GROUP             0       ****    0 ROOT    
