@<TRIPOS>MOLECULE
3R540
247   249    1
SMALL
USER_CHARGES


@<TRIPOS>ATOM
      1 CA         -1.0913  -10.5837  -46.5152 C.3       0 UNK        -0.1800 
      2 C           0.0948  -10.8696  -47.4243 C.2       0 UNK         0.5000 
      3 O           0.1836  -10.2993  -48.5117 O.2       0 UNK        -0.5000 
      4 N           1.0066  -11.7429  -46.9813 N.am      1 UNK        -0.5000 
      5 CA          2.2581  -12.0640  -47.6790 C.3       1 UNK         0.1400 
      6 C6          2.7882  -13.4693  -47.3106 C.3       23 UNK        -0.0398 
      7 S7          1.6208  -14.7893  -47.7728 S.3       23 UNK        -0.2404 
      8 C8          2.3814  -15.4133  -49.3063 C.3       23 UNK        -0.0205 
      9 C9          1.6224  -16.6046  -49.8755 C.ar      23 UNK        -0.0193 
     10 C10         0.3065  -16.4496  -50.3186 C.ar      23 UNK        -0.1150 
     11 C11        -0.4090  -17.5376  -50.8246 C.ar      23 UNK        -0.0193 
     12 C12         0.2170  -18.7837  -50.9319 C.ar      23 UNK        -0.1150 
     13 C13         1.5422  -18.9490  -50.5134 C.ar      23 UNK        -0.0193 
     14 C14         2.2343  -17.8585  -49.9753 C.ar      23 UNK        -0.1150 
     15 C15         2.2412  -20.2940  -50.6680 C.3       23 UNK        -0.0205 
     16 S16         2.2523  -21.2621  -49.1240 S.3       23 UNK        -0.2404 
     17 C17         0.5099  -21.7805  -49.0337 C.3       23 UNK        -0.0398 
     18 CA          0.2480  -22.8841  -47.9787 C.3       11 UNK         0.1400 
     19 N           0.3784  -22.3996  -46.5999 N.am      11 UNK        -0.5000 
     20 C           0.2650  -23.1623  -45.5017 C.2       10 UNK         0.5000 
     21 O           0.0905  -24.3807  -45.5290 O.2       10 UNK        -0.5000 
     22 CA          0.2989  -22.4433  -44.1407 C.3       10 UNK         0.1400 
     23 CB          1.7374  -22.0837  -43.7402 C.3       10 UNK        -0.1800 
     24 N          -0.5440  -21.2471  -44.1100 N.am      10 UNK        -0.5000 
     25 C          -1.8766  -21.2542  -44.2639 C.2       9 UNK         0.5000 
     26 O          -2.5432  -22.2773  -44.4126 O.2       9 UNK        -0.5000 
     27 CA         -2.5820  -19.8871  -44.3134 C.3       9 UNK         0.1400 
     28 CB         -2.7627  -19.3024  -42.9048 C.3       9 UNK        -0.1800 
     29 N          -1.8753  -18.9265  -45.1569 N.am      9 UNK        -0.5000 
     30 C          -1.6535  -19.0838  -46.4696 C.2       8 UNK         0.5000 
     31 O          -2.0682  -20.0336  -47.1337 O.2       8 UNK        -0.5000 
     32 CA         -0.7720  -18.0188  -47.1365 C.3       8 UNK         0.1400 
     33 CB         -1.6018  -16.7572  -47.4284 C.3       8 UNK        -0.1800 
     34 N           0.4023  -17.6914  -46.3219 N.am      8 UNK        -0.5000 
     35 C           1.3728  -18.5669  -46.0166 C.2       7 UNK         0.5000 
     36 O           1.3807  -19.7329  -46.4021 O.2       7 UNK        -0.5000 
     37 CA          2.4827  -18.0972  -45.0590 C.3       7 UNK         0.1400 
     38 CB          3.6037  -17.3568  -45.8022 C.3       7 UNK        -0.1800 
     39 N           1.9663  -17.2682  -43.9710 N.am      7 UNK        -0.5000 
     40 C           1.1770  -17.7329  -42.9920 C.2       6 UNK         0.5000 
     41 O           0.8513  -18.9147  -42.8789 O.2       6 UNK        -0.5000 
     42 CA          0.6181  -16.6936  -42.0030 C.3       6 UNK         0.1400 
     43 CB          1.6153  -16.4356  -40.8637 C.3       6 UNK        -0.1800 
     44 N           0.2669  -15.4188  -42.6349 N.am      6 UNK        -0.5000 
     45 C          -0.6488  -15.2649  -43.6028 C.2       5 UNK         0.5000 
     46 O          -1.2778  -16.2076  -44.0842 O.2       5 UNK        -0.5000 
     47 CA         -0.9089  -13.8295  -44.1070 C.3       5 UNK         0.1400 
     48 CB         -2.3911  -13.6175  -44.4630 C.3       5 UNK        -0.1800 
     49 N          -0.5176  -12.8336  -43.1051 N.am      5 UNK        -0.5000 
     50 C           0.5721  -12.0597  -43.1489 C.2       4 UNK         0.5000 
     51 O           1.3725  -12.0427  -44.0905 O.2       4 UNK        -0.5000 
     52 CA          0.8064  -11.1779  -41.9126 C.3       4 UNK         0.1400 
     53 CB          1.1999  -12.0277  -40.6904 C.3       4 UNK        -0.1800 
     54 N           1.8678  -10.2184  -42.1897 N.am      4 UNK        -0.5000 
     55 C           1.9403   -8.9691  -41.7146 C.2       3 UNK         0.5000 
     56 O           1.1128   -8.4858  -40.9407 O.2       3 UNK        -0.5000 
     57 CA          3.1396   -8.1094  -42.1702 C.3       3 UNK         0.1400 
     58 CB          4.1619   -7.9677  -41.0314 C.3       3 UNK        -0.1800 
     59 N           3.8242   -8.6415  -43.3521 N.am      3 UNK        -0.5000 
     60 C           3.3301   -8.6197  -44.5964 C.2       2 UNK         0.5000 
     61 O           2.2571   -8.0914  -44.8922 O.2       2 UNK        -0.5000 
     62 CA          4.1269   -9.3529  -45.6860 C.3       2 UNK         0.1400 
     63 CB          5.4864   -9.9226  -45.2239 C.3       2 UNK        -0.1800 
     64 N           3.2725  -10.4260  -46.1738 N.am      2 UNK        -0.5000 
     65 C           3.3313  -10.9986  -47.3804 C.2       1 UNK         0.5000 
     66 O           4.1705  -10.7162  -48.2367 O.2       1 UNK        -0.5000 
     67 C          -1.1296  -23.5306  -48.2225 C.2       11 UNK         0.5000 
     68 O          -1.1910  -24.6546  -48.7228 O.2       11 UNK        -0.5000 
     69 N          -2.2044  -22.8242  -47.8440 N.am      12 UNK        -0.5000 
     70 CA         -3.5833  -23.2858  -47.9915 C.3       12 UNK         0.1400 
     71 CB         -4.5537  -22.1487  -47.6428 C.3       12 UNK        -0.1800 
     72 C          -3.8890  -24.5465  -47.1653 C.2       12 UNK         0.5000 
     73 O          -4.5448  -25.4548  -47.6742 O.2       12 UNK        -0.5000 
     74 N          -3.3789  -24.6030  -45.9268 N.am      13 UNK        -0.5000 
     75 CA         -3.4897  -25.7608  -45.0390 C.3       13 UNK         0.1400 
     76 CB         -2.9977  -25.3858  -43.6331 C.3       13 UNK        -0.1800 
     77 C          -2.7346  -26.9939  -45.5664 C.2       13 UNK         0.5000 
     78 O          -3.2549  -28.1055  -45.4671 O.2       13 UNK        -0.5000 
     79 N          -1.5375  -26.7778  -46.1303 N.am      14 UNK        -0.5000 
     80 CA         -0.7124  -27.8200  -46.7415 C.3       14 UNK         0.1400 
     81 CB          0.6971  -27.2717  -47.0122 C.3       14 UNK        -0.1800 
     82 C          -1.3347  -28.3889  -48.0292 C.2       14 UNK         0.5000 
     83 O          -1.3247  -29.6058  -48.2207 O.2       14 UNK        -0.5000 
     84 N          -1.8714  -27.5049  -48.8811 N.am      15 UNK        -0.5000 
     85 CA         -2.5401  -27.8708  -50.1305 C.3       15 UNK         0.1400 
     86 CB         -2.6569  -26.6248  -51.0198 C.3       15 UNK        -0.1800 
     87 C          -3.9339  -28.4880  -49.9175 C.2       15 UNK         0.5000 
     88 O          -4.3570  -29.3081  -50.7330 O.2       15 UNK        -0.5000 
     89 N          -4.6264  -28.0512  -48.8541 N.am      16 UNK        -0.5000 
     90 CA         -6.0417  -28.2936  -48.5511 C.3       16 UNK         0.1400 
     91 CB         -6.3048  -29.7845  -48.2547 C.3       16 UNK        -0.1800 
     92 C          -6.9654  -27.7075  -49.6425 C.2       16 UNK         0.5000 
     93 O          -7.9734  -28.3176  -50.0045 O.2       16 UNK        -0.5000 
     94 N          -6.5792  -26.5371  -50.1636 N.am      17 UNK        -0.5000 
     95 CA         -7.1741  -25.8412  -51.2996 C.3       17 UNK         0.1400 
     96 CB         -6.8550  -26.6019  -52.6039 C.3       17 UNK        -0.1800 
     97 C          -6.6101  -24.4115  -51.3458 C.2       17 UNK         0.5000 
     98 O          -5.7417  -24.0674  -50.5394 O.2       17 UNK        -0.5000 
     99 N          -7.0911  -23.6050  -52.3005 N.am      18 UNK        -0.5000 
    100 CA        -6.6091  -22.2505  -52.5815 C.3       18 UNK         0.1400 
    101 CB        -7.6690  -21.5031  -53.4106 C.3       18 UNK        -0.1800 
    102 C         -5.2337  -22.2792  -53.2811 C.2       18 UNK         0.5000 
    103 O         -5.1472  -22.0843  -54.4965 O.2       18 UNK        -0.5000 
    104 N         -4.1883  -22.5708  -52.4978 N.am      19 UNK        -0.5000 
    105 CA        -2.7867  -22.6427  -52.9079 C.3       19 UNK         0.1400 
    106 CB        -1.9268  -22.9265  -51.6716 C.3       19 UNK        -0.1800 
    107 C         -2.3104  -21.3494  -53.5887 C.2       19 UNK         0.5000 
    108 O         -2.5546  -20.2648  -53.0615 O.2       19 UNK        -0.5000 
    109 N         -1.6686  -21.4926  -54.7568 N.am      20 UNK        -0.5000 
    110 CA        -1.1811  -20.4112  -55.6260 C.3       20 UNK         0.1400 
    111 CB        -0.0106  -19.6634  -54.9522 C.3       20 UNK        -0.1800 
    112 C         -2.2930  -19.4564  -56.1257 C.2       20 UNK         0.5000 
    113 O         -1.9976  -18.3234  -56.5085 O.2       20 UNK        -0.5000 
    114 N         -3.5467  -19.9394  -56.1206 N.am      21 UNK        -0.5000 
    115 CA        -4.7858  -19.2178  -56.4241 C.3       21 UNK         0.1400 
    116 CB        -4.8215  -18.7609  -57.8981 C.3       21 UNK        -0.1800 
    117 C         -5.0848  -18.0797  -55.4235 C.2       21 UNK         0.5000 
    118 O         -5.6818  -17.0698  -55.8024 O.2       21 UNK        -0.5000 
    119 N         -4.6850  -18.2654  -54.1608 N.am      22 UNK        -0.5000 
    120 CA        -4.9025  -17.3276  -53.0537 C.3       22 UNK         0.1400 
    121 C         -5.2147  -18.0584  -51.7172 C.2       22 UNK         0.5000 
    122 N         -5.4258  -17.3280  -50.6296 N.am      22 UNK        -0.7600 
    123 O         -5.3059  -19.2811  -51.6500 O.2       22 UNK        -0.5000 
    124 C124       -3.7848  -16.2474  -52.9557 C.3       23 UNK        -0.0398 
    125 S125       -2.0634  -16.8670  -52.9446 S.3       23 UNK        -0.2404 
    126 C126       -1.8696  -17.3667  -51.2083 C.3       23 UNK        -0.0205 
    127 H127       -0.9193  -10.9460  -45.5029 H         1 UNK         0.0600 
    128 H128       -1.9887  -11.0635  -46.9057 H         1 UNK         0.0600 
    129 H129       -1.2725   -9.5103  -46.4591 H         1 UNK         0.0600 
    130 H130        0.9120  -12.1378  -46.0525 H         1 UNK         0.3000 
    131 H131        2.0772  -12.0486  -48.7561 H         1 UNK         0.0600 
    132 H132        2.9686  -13.5403  -46.2363 H         1 UNK         0.0800 
    133 H133        3.7497  -13.6588  -47.7913 H         1 UNK         0.0800 
    134 H134        2.4043  -14.6148  -50.0492 H         1 UNK         0.0800 
    135 H135        3.4188  -15.6852  -49.1059 H         1 UNK         0.0800 
    136 H136       -0.1716  -15.4833  -50.2401 H         1 UNK         0.1150 
    137 H137       -0.3314  -19.6224  -51.3384 H         1 UNK         0.1150 
    138 H138        3.2547  -17.9877  -49.6430 H         1 UNK         0.1150 
    139 H139        1.7786  -20.8766  -51.4663 H         1 UNK         0.0800 
    140 H140        3.2733  -20.1273  -50.9798 H         1 UNK         0.0800 
    141 H141        0.2411  -22.1366  -50.0278 H         1 UNK         0.0800 
    142 H142       -0.1097  -20.9037  -48.8398 H         1 UNK         0.0800 
    143 H143        0.9943  -23.6696  -48.1157 H         1 UNK         0.0600 
    144 H144        0.5804  -21.4075  -46.4915 H         1 UNK         0.3000 
    145 H145       -0.0918  -23.1369  -43.3933 H         1 UNK         0.0600 
    146 H146        1.7697  -21.6353  -42.7471 H         1 UNK         0.0600 
    147 H147        2.3685  -22.9728  -43.7170 H         1 UNK         0.0600 
    148 H148        2.1888  -21.3804  -44.4393 H         1 UNK         0.0600 
    149 H149       -0.0727  -20.3617  -43.9562 H         1 UNK         0.3000 
    150 H150       -3.5723  -20.0403  -44.7471 H         1 UNK         0.0600 
    151 H151       -3.3254  -19.9867  -42.2686 H         1 UNK         0.0600 
    152 H152       -3.3109  -18.3606  -42.9367 H         1 UNK         0.0600 
    153 H153       -1.8057  -19.1142  -42.4184 H         1 UNK         0.0600 
    154 H154       -1.5207  -18.0885  -44.7057 H         1 UNK         0.3000 
    155 H155       -0.4132  -18.4248  -48.0832 H         1 UNK         0.0600 
    156 H156       -1.0056  -15.9791  -47.8990 H         1 UNK         0.0600 
    157 H157       -2.4239  -16.9887  -48.1061 H         1 UNK         0.0600 
    158 H158       -2.0413  -16.3361  -46.5259 H         1 UNK         0.0600 
    159 H159        0.4441  -16.7593  -45.9398 H         1 UNK         0.3000 
    160 H160        2.9237  -18.9932  -44.6169 H         1 UNK         0.0600 
    161 H161        3.2871  -16.3722  -46.1385 H         1 UNK         0.0600 
    162 H162        3.9305  -17.9167  -46.6797 H         1 UNK         0.0600 
    163 H163        4.4741  -17.2218  -45.1601 H         1 UNK         0.0600 
    164 H164        2.1828  -16.2831  -43.9960 H         1 UNK         0.3000 
    165 H165       -0.2939  -17.1106  -41.5707 H         1 UNK         0.0600 
    166 H166        1.1914  -15.7701  -40.1113 H         1 UNK         0.0600 
    167 H167        1.8812  -17.3660  -40.3599 H         1 UNK         0.0600 
    168 H168        2.5385  -15.9845  -41.2295 H         1 UNK         0.0600 
    169 H169        0.7421  -14.5980  -42.2928 H         1 UNK         0.3000 
    170 H170       -0.3216  -13.7041  -45.0185 H         1 UNK         0.0600 
    171 H171       -2.6987  -14.2739  -45.2777 H         1 UNK         0.0600 
    172 H172       -3.0416  -13.8228  -43.6120 H         1 UNK         0.0600 
    173 H173       -2.5807  -12.5947  -44.7868 H         1 UNK         0.0600 
    174 H174       -1.1117  -12.7843  -42.2887 H         1 UNK         0.3000 
    175 H175       -0.1250  -10.6472  -41.7043 H         1 UNK         0.0600 
    176 H176        0.4168  -12.7404  -40.4297 H         1 UNK         0.0600 
    177 H177        2.1146  -12.5934  -40.8723 H         1 UNK         0.0600 
    178 H178        1.3660  -11.4011  -39.8140 H         1 UNK         0.0600 
    179 H179        2.5542  -10.5306  -42.8622 H         1 UNK         0.3000 
    180 H180        2.7564   -7.1155  -42.4110 H         1 UNK         0.0600 
    181 H181        4.5860   -8.9322  -40.7492 H         1 UNK         0.0600 
    182 H182        3.6994   -7.5397  -40.1410 H         1 UNK         0.0600 
    183 H183        4.9825   -7.3094  -41.3170 H         1 UNK         0.0600 
    184 H184        4.7097   -9.0996  -43.1913 H         1 UNK         0.3000 
    185 H185        4.3001   -8.6352  -46.4904 H         1 UNK         0.0600 
    186 H186        6.1325   -9.1365  -44.8311 H         1 UNK         0.0600 
    187 H187        5.3692  -10.6846  -44.4524 H         1 UNK         0.0600 
    188 H188        6.0199  -10.3816  -46.0565 H         1 UNK         0.0600 
    189 H189        2.5201  -10.6997  -45.5532 H         1 UNK         0.3000 
    190 H190       -2.0781  -21.8927  -47.4538 H         1 UNK         0.3000 
    191 H191       -3.7237  -23.5413  -49.0421 H         1 UNK         0.0600 
    192 H192       -4.4300  -21.8162  -46.6115 H         1 UNK         0.0600 
    193 H193       -5.5890  -22.4688  -47.7678 H         1 UNK         0.0600 
    194 H194       -4.3994  -21.2879  -48.2939 H         1 UNK         0.0600 
    195 H195       -2.8896  -23.7925  -45.5564 H         1 UNK         0.3000 
    196 H196       -4.5466  -26.0259  -44.9677 H         1 UNK         0.0600 
    197 H197       -3.0722  -26.2346  -42.9522 H         1 UNK         0.0600 
    198 H198       -3.5941  -24.5772  -43.2103 H         1 UNK         0.0600 
    199 H199       -1.9562  -25.0626  -43.6446 H         1 UNK         0.0600 
    200 H200       -1.1542  -25.8373  -46.1285 H         1 UNK         0.3000 
    201 H201       -0.6221  -28.6402  -46.0262 H         1 UNK         0.0600 
    202 H202        1.1783  -26.9516  -46.0879 H         1 UNK         0.0600 
    203 H203        0.6750  -26.4173  -47.6894 H         1 UNK         0.0600 
    204 H204        1.3336  -28.0336  -47.4635 H         1 UNK         0.0600 
    205 H205       -1.7845  -26.5121  -48.6796 H         1 UNK         0.3000 
    206 H206       -1.9232  -28.6058  -50.6518 H         1 UNK         0.0600 
    207 H207       -1.6757  -26.1992  -51.2305 H         1 UNK         0.0600 
    208 H208       -3.1206  -26.8661  -51.9771 H         1 UNK         0.0600 
    209 H209       -3.2666  -25.8546  -50.5452 H         1 UNK         0.0600 
    210 H210       -4.2012  -27.3237  -48.2886 H         1 UNK         0.3000 
    211 H211       -6.2560  -27.7352  -47.6388 H         1 UNK         0.0600 
    212 H212       -6.1842  -30.4053  -49.1426 H         1 UNK         0.0600 
    213 H213       -7.3210  -29.9344  -47.8886 H         1 UNK         0.0600 
    214 H214       -5.6255  -30.1581  -47.4883 H         1 UNK         0.0600 
    215 H215       -5.7870  -26.0512  -49.7563 H         1 UNK         0.3000 
    216 H216       -8.2545  -25.7806  -51.1561 H         1 UNK         0.0600 
    217 H217       -5.7792  -26.6710  -52.7712 H         1 UNK         0.0600 
    218 H218       -7.2925  -26.1094  -53.4726 H         1 UNK         0.0600 
    219 H219       -7.2523  -27.6166  -52.5836 H         1 UNK         0.0600 
    220 H220       -7.7849  -23.9672  -52.9382 H         1 UNK         0.3000 
    221 H221       -6.4920  -21.7176  -51.6355 H         1 UNK         0.0600 
    222 H222       -8.6106  -21.4248  -52.8671 H         1 UNK         0.0600 
    223 H223       -7.8687  -22.0020  -54.3597 H         1 UNK         0.0600 
    224 H224       -7.3388  -20.4876  -53.6348 H         1 UNK         0.0600 
    225 H225       -4.3855  -22.7726  -51.5256 H         1 UNK         0.3000 
    226 H226       -2.6898  -23.4781  -53.6038 H         1 UNK         0.0600 
    227 H227       -2.2476  -23.8347  -51.1671 H         1 UNK         0.0600 
    228 H228       -0.8796  -23.0569  -51.9460 H         1 UNK         0.0600 
    229 H229       -1.9874  -22.1092  -50.9514 H         1 UNK         0.0600 
    230 H230       -1.5299  -22.4270  -55.1164 H         1 UNK         0.3000 
    231 H231       -0.7862  -20.8967  -56.5195 H         1 UNK         0.0600 
    232 H232       -0.3376  -19.1055  -54.0746 H         1 UNK         0.0600 
    233 H233        0.4486  -18.9507  -55.6379 H         1 UNK         0.0600 
    234 H234        0.7697  -20.3551  -54.6352 H         1 UNK         0.0600 
    235 H235       -3.6866  -20.8737  -55.7555 H         1 UNK         0.3000 
    236 H236       -5.5899  -19.9430  -56.2923 H         1 UNK         0.0600 
    237 H237       -5.8070  -18.3765  -58.1632 H         1 UNK         0.0600 
    238 H238       -4.1000  -17.9681  -58.0965 H         1 UNK         0.0600 
    239 H239       -4.6059  -19.5889  -58.5733 H         1 UNK         0.0600 
    240 H240       -4.1818  -19.1083  -53.9027 H         1 UNK         0.3000 
    241 H241       -5.8341  -16.7988  -53.2637 H         1 UNK         0.0600 
    242 H242       -5.6457  -17.8031  -49.7687 H         1 UNK         0.3800 
    243 H243       -5.4097  -16.3210  -50.6465 H         1 UNK         0.3800 
    244 H244       -3.9363  -15.5897  -52.0996 H         1 UNK         0.0800 
    245 H245       -3.8679  -15.5938  -53.8248 H         1 UNK         0.0800 
    246 H246       -2.4049  -18.3023  -51.0401 H         1 UNK         0.0800 
    247 H247       -2.3340  -16.6234  -50.5592 H         1 UNK         0.0800 
@<TRIPOS>BOND
     1    1    2 1    
     2    1  127 1    
     3    1  128 1    
     4    1  129 1    
     5    2    3 2    
     6    2    4 am   BACKBONE|DICT|INTERRES
     7    4    5 1    
     8    4  130 1    
     9    5    6 1    
    10    5   65 1    
    11    5  131 1    
    12    6    7 1    
    13    6  132 1    
    14    6  133 1    
    15    7    8 1    
    16    8    9 1    
    17    8  134 1    
    18    8  135 1    
    19    9   10 ar   
    20    9   14 ar   
    21   10   11 ar   
    22   10  136 1    
    23   11   12 ar   
    24   11  126 1    
    25   12   13 ar   
    26   12  137 1    
    27   13   14 ar   
    28   13   15 1    
    29   14  138 1    
    30   15   16 1    
    31   15  139 1    
    32   15  140 1    
    33   16   17 1    
    34   17   18 1    
    35   17  141 1    
    36   17  142 1    
    37   18   19 1    
    38   18   67 1    
    39   18  143 1    
    40   19   20 am   BACKBONE|DICT|INTERRES
    41   19  144 1    
    42   20   21 2    
    43   20   22 1    
    44   22   23 1    
    45   22   24 1    
    46   22  145 1    
    47   23  146 1    
    48   23  147 1    
    49   23  148 1    
    50   24   25 am   BACKBONE|DICT|INTERRES
    51   24  149 1    
    52   25   26 2    
    53   25   27 1    
    54   27   28 1    
    55   27   29 1    
    56   27  150 1    
    57   28  151 1    
    58   28  152 1    
    59   28  153 1    
    60   29   30 am   BACKBONE|DICT|INTERRES
    61   29  154 1    
    62   30   31 2    
    63   30   32 1    
    64   32   33 1    
    65   32   34 1    
    66   32  155 1    
    67   33  156 1    
    68   33  157 1    
    69   33  158 1    
    70   34   35 am   BACKBONE|DICT|INTERRES
    71   34  159 1    
    72   35   36 2    
    73   35   37 1    
    74   37   38 1    
    75   37   39 1    
    76   37  160 1    
    77   38  161 1    
    78   38  162 1    
    79   38  163 1    
    80   39   40 am   BACKBONE|DICT|INTERRES
    81   39  164 1    
    82   40   41 2    
    83   40   42 1    
    84   42   43 1    
    85   42   44 1    
    86   42  165 1    
    87   43  166 1    
    88   43  167 1    
    89   43  168 1    
    90   44   45 am   BACKBONE|DICT|INTERRES
    91   44  169 1    
    92   45   46 2    
    93   45   47 1    
    94   47   48 1    
    95   47   49 1    
    96   47  170 1    
    97   48  171 1    
    98   48  172 1    
    99   48  173 1    
   100   49   50 am   BACKBONE|DICT|INTERRES
   101   49  174 1    
   102   50   51 2    
   103   50   52 1    
   104   52   53 1    
   105   52   54 1    
   106   52  175 1    
   107   53  176 1    
   108   53  177 1    
   109   53  178 1    
   110   54   55 am   BACKBONE|DICT|INTERRES
   111   54  179 1    
   112   55   56 2    
   113   55   57 1    
   114   57   58 1    
   115   57   59 1    
   116   57  180 1    
   117   58  181 1    
   118   58  182 1    
   119   58  183 1    
   120   59   60 am   BACKBONE|DICT|INTERRES
   121   59  184 1    
   122   60   61 2    
   123   60   62 1    
   124   62   63 1    
   125   62   64 1    
   126   62  185 1    
   127   63  186 1    
   128   63  187 1    
   129   63  188 1    
   130   64   65 am   BACKBONE|DICT|INTERRES
   131   64  189 1    
   132   65   66 2    
   133   67   68 2    
   134   67   69 am   BACKBONE|DICT|INTERRES
   135   69   70 1    
   136   69  190 1    
   137   70   71 1    
   138   70   72 1    
   139   70  191 1    
   140   71  192 1    
   141   71  193 1    
   142   71  194 1    
   143   72   73 2    
   144   72   74 am   BACKBONE|DICT|INTERRES
   145   74   75 1    
   146   74  195 1    
   147   75   76 1    
   148   75   77 1    
   149   75  196 1    
   150   76  197 1    
   151   76  198 1    
   152   76  199 1    
   153   77   78 2    
   154   77   79 am   BACKBONE|DICT|INTERRES
   155   79   80 1    
   156   79  200 1    
   157   80   81 1    
   158   80   82 1    
   159   80  201 1    
   160   81  202 1    
   161   81  203 1    
   162   81  204 1    
   163   82   83 2    
   164   82   84 am   BACKBONE|DICT|INTERRES
   165   84   85 1    
   166   84  205 1    
   167   85   86 1    
   168   85   87 1    
   169   85  206 1    
   170   86  207 1    
   171   86  208 1    
   172   86  209 1    
   173   87   88 2    
   174   87   89 am   BACKBONE|DICT|INTERRES
   175   89   90 1    
   176   89  210 1    
   177   90   91 1    
   178   90   92 1    
   179   90  211 1    
   180   91  212 1    
   181   91  213 1    
   182   91  214 1    
   183   92   93 2    
   184   92   94 am   BACKBONE|DICT|INTERRES
   185   94   95 1    
   186   94  215 1    
   187   95   96 1    
   188   95   97 1    
   189   95  216 1    
   190   96  217 1    
   191   96  218 1    
   192   96  219 1    
   193   97   98 2    
   194   97   99 am   BACKBONE|DICT|INTERRES
   195   99  100 1    
   196   99  220 1    
   197  100  101 1    
   198  100  102 1    
   199  100  221 1    
   200  101  222 1    
   201  101  223 1    
   202  101  224 1    
   203  102  103 2    
   204  102  104 am   BACKBONE|DICT|INTERRES
   205  104  105 1    
   206  104  225 1    
   207  105  106 1    
   208  105  107 1    
   209  105  226 1    
   210  106  227 1    
   211  106  228 1    
   212  106  229 1    
   213  107  108 2    
   214  107  109 am   BACKBONE|DICT|INTERRES
   215  109  110 1    
   216  109  230 1    
   217  110  111 1    
   218  110  112 1    
   219  110  231 1    
   220  111  232 1    
   221  111  233 1    
   222  111  234 1    
   223  112  113 2    
   224  112  114 am   BACKBONE|DICT|INTERRES
   225  114  115 1    
   226  114  235 1    
   227  115  116 1    
   228  115  117 1    
   229  115  236 1    
   230  116  237 1    
   231  116  238 1    
   232  116  239 1    
   233  117  118 2    
   234  117  119 am   BACKBONE|DICT|INTERRES
   235  119  120 1    
   236  119  240 1    
   237  120  121 1    
   238  120  124 1    
   239  120  241 1    
   240  121  122 am   BACKBONE|DICT|INTERRES
   241  121  123 2    
   242  122  242 1    
   243  122  243 1    
   244  124  125 1    
   245  124  244 1    
   246  124  245 1    
   247  125  126 1    
   248  126  246 1    
   249  126  247 1    
@<TRIPOS>SUBSTRUCTURE
     1 UNK         1 GROUP             0       ****    0 ROOT    
