@<TRIPOS>MOLECULE
3R540
247   249    1
SMALL
USER_CHARGES


@<TRIPOS>ATOM
      1 CA         -5.4879  -16.0123  -48.7571 C.3       0 UNK        -0.1800 
      2 C          -4.9721  -17.0411  -47.7545 C.2       0 UNK         0.5000 
      3 O          -5.6893  -17.9859  -47.4358 O.2       0 UNK        -0.5000 
      4 N          -3.7388  -16.9196  -47.2468 N.am      1 UNK        -0.5000 
      5 CA         -2.7964  -15.8198  -47.4584 C.3       1 UNK         0.1400 
      6 C6         -1.3390  -16.3340  -47.3892 C.3       23 UNK        -0.0398 
      7 S7         -0.0970  -15.1163  -47.9439 S.3       23 UNK        -0.2404 
      8 C8         -0.0921  -15.3580  -49.7567 C.3       23 UNK        -0.0205 
      9 C9          0.4769  -16.6828  -50.2713 C.ar      23 UNK        -0.0193 
     10 C10         0.1982  -17.0522  -51.5914 C.ar      23 UNK        -0.1150 
     11 C11         0.6968  -18.2436  -52.1263 C.ar      23 UNK        -0.0193 
     12 C12         1.4797  -19.0786  -51.3259 C.ar      23 UNK        -0.1150 
     13 C13         1.7777  -18.7238  -50.0078 C.ar      23 UNK        -0.0193 
     14 C14         1.2813  -17.5231  -49.4899 C.ar      23 UNK        -0.1150 
     15 C15         2.6381  -19.6359  -49.1416 C.3       23 UNK        -0.0205 
     16 S16         1.8822  -21.2746  -48.8785 S.3       23 UNK        -0.2404 
     17 C17         0.2225  -20.8024  -48.2970 C.3       23 UNK        -0.0398 
     18 CA         -0.4320  -21.8743  -47.4026 C.3       11 UNK         0.1400 
     19 N           0.2470  -22.0318  -46.1113 N.am      11 UNK        -0.5000 
     20 C           0.0027  -23.0289  -45.2494 C.2       10 UNK         0.5000 
     21 O          -0.8081  -23.9290  -45.4642 O.2       10 UNK        -0.5000 
     22 CA          0.7400  -22.9900  -43.8990 C.3       10 UNK         0.1400 
     23 CB          2.1954  -23.4572  -44.0471 C.3       10 UNK        -0.1800 
     24 N           0.6951  -21.6674  -43.2743 N.am      10 UNK        -0.5000 
     25 C          -0.4315  -21.0661  -42.8645 C.2       9 UNK         0.5000 
     26 O          -1.5436  -21.5885  -42.9285 O.2       9 UNK        -0.5000 
     27 CA         -0.3096  -19.6228  -42.3434 C.3       9 UNK         0.1400 
     28 CB          0.1462  -19.6040  -40.8771 C.3       9 UNK        -0.1800 
     29 N           0.5975  -18.8073  -43.1478 N.am      9 UNK        -0.5000 
     30 C           0.4256  -18.5214  -44.4450 C.2       8 UNK         0.5000 
     31 O          -0.5468  -18.8812  -45.1073 O.2       8 UNK        -0.5000 
     32 CA          1.5707  -17.7650  -45.1370 C.3       8 UNK         0.1400 
     33 CB          1.5362  -16.2675  -44.8024 C.3       8 UNK        -0.1800 
     34 N           2.8817  -18.3144  -44.7942 N.am      8 UNK        -0.5000 
     35 C           3.2877  -19.5549  -45.0980 C.2       7 UNK         0.5000 
     36 O           2.6063  -20.3612  -45.7278 O.2       7 UNK        -0.5000 
     37 CA          4.6685  -19.9757  -44.5669 C.3       7 UNK         0.1400 
     38 CB          5.7855  -19.4350  -45.4719 C.3       7 UNK        -0.1800 
     39 N           4.8901  -19.5268  -43.1915 N.am      7 UNK        -0.5000 
     40 C           4.2140  -19.9906  -42.1305 C.2       6 UNK         0.5000 
     41 O           3.3662  -20.8806  -42.1949 O.2       6 UNK        -0.5000 
     42 CA          4.4979  -19.3061  -40.7801 C.3       6 UNK         0.1400 
     43 CB          5.7434  -19.9117  -40.1158 C.3       6 UNK        -0.1800 
     44 N           4.6586  -17.8517  -40.8882 N.am      6 UNK        -0.5000 
     45 C           3.7042  -17.0176  -41.3217 C.2       5 UNK         0.5000 
     46 O           2.6013  -17.3975  -41.7178 O.2       5 UNK        -0.5000 
     47 CA          4.0618  -15.5193  -41.3690 C.3       5 UNK         0.1400 
     48 CB          4.8097  -15.1925  -42.6716 C.3       5 UNK        -0.1800 
     49 N           2.8833  -14.6535  -41.2763 N.am      5 UNK        -0.5000 
     50 C           2.0646  -14.5744  -40.2177 C.2       4 UNK         0.5000 
     51 O           2.2500  -15.1964  -39.1701 O.2       4 UNK        -0.5000 
     52 CA          0.8532  -13.6245  -40.3192 C.3       4 UNK         0.1400 
     53 CB          0.9117  -12.5540  -39.2157 C.3       4 UNK        -0.1800 
     54 N           0.7436  -12.9420  -41.6130 N.am      4 UNK        -0.5000 
     55 C           0.0109  -13.3716  -42.6470 C.2       3 UNK         0.5000 
     56 O          -0.5907  -14.4475  -42.6685 O.2       3 UNK        -0.5000 
     57 CA         -0.0663  -12.4276  -43.8555 C.3       3 UNK         0.1400 
     58 CB          1.1512  -12.5810  -44.7845 C.3       3 UNK        -0.1800 
     59 N          -1.2989  -12.6873  -44.5929 N.am      3 UNK        -0.5000 
     60 C          -1.9412  -11.8029  -45.3624 C.2       2 UNK         0.5000 
     61 O          -1.5230  -10.6634  -45.5772 O.2       2 UNK        -0.5000 
     62 CA         -3.2604  -12.2794  -46.0059 C.3       2 UNK         0.1400 
     63 CB         -3.9355  -11.1902  -46.8598 C.3       2 UNK        -0.1800 
     64 N          -3.0459  -13.4596  -46.8432 N.am      2 UNK        -0.5000 
     65 C          -3.0646  -14.7241  -46.4080 C.2       1 UNK         0.5000 
     66 O          -3.2641  -15.0378  -45.2325 O.2       1 UNK        -0.5000 
     67 C          -1.9389  -21.5808  -47.2532 C.2       11 UNK         0.5000 
     68 O          -2.7149  -22.0061  -48.1103 O.2       11 UNK        -0.5000 
     69 N          -2.3317  -20.8734  -46.1849 N.am      12 UNK        -0.5000 
     70 CA         -3.7274  -20.6350  -45.8215 C.3       12 UNK         0.1400 
     71 CB         -3.8093  -19.5369  -44.7489 C.3       12 UNK        -0.1800 
     72 C          -4.4165  -21.9238  -45.3398 C.2       12 UNK         0.5000 
     73 O          -5.5136  -22.2314  -45.8040 O.2       12 UNK        -0.5000 
     74 N          -3.7479  -22.6723  -44.4496 N.am      13 UNK        -0.5000 
     75 CA         -4.2195  -23.9458  -43.8981 C.3       13 UNK         0.1400 
     76 CB         -3.2880  -24.3891  -42.7599 C.3       13 UNK        -0.1800 
     77 C          -4.3469  -25.0543  -44.9590 C.2       13 UNK         0.5000 
     78 O          -5.3219  -25.8063  -44.9402 O.2       13 UNK        -0.5000 
     79 N          -3.3808  -25.1113  -45.8855 N.am      14 UNK        -0.5000 
     80 CA         -3.3859  -26.0030  -47.0478 C.3       14 UNK         0.1400 
     81 CB         -1.9628  -26.0675  -47.6254 C.3       14 UNK        -0.1800 
     82 C          -4.3804  -25.5711  -48.1449 C.2       14 UNK         0.5000 
     83 O          -4.6548  -26.3600  -49.0492 O.2       14 UNK        -0.5000 
     84 N          -4.8674  -24.3235  -48.0635 N.am      15 UNK        -0.5000 
     85 CA         -5.7439  -23.6241  -49.0083 C.3       15 UNK         0.1400 
     86 CB         -7.1048  -24.3361  -49.1465 C.3       15 UNK        -0.1800 
     87 C          -5.0855  -23.3364  -50.3733 C.2       15 UNK         0.5000 
     88 O          -5.7841  -22.9722  -51.3176 O.2       15 UNK        -0.5000 
     89 N          -3.7532  -23.4492  -50.4519 N.am      16 UNK        -0.5000 
     90 CA         -2.9464  -23.1663  -51.6380 C.3       16 UNK         0.1400 
     91 CB         -1.5027  -23.6269  -51.3859 C.3       16 UNK        -0.1800 
     92 C          -2.9791  -21.6779  -52.0181 C.2       16 UNK         0.5000 
     93 O          -3.0698  -21.3480  -53.2007 O.2       16 UNK        -0.5000 
     94 N          -2.9478  -20.8048  -51.0035 N.am      17 UNK        -0.5000 
     95 CA         -3.0673  -19.3592  -51.1819 C.3       17 UNK         0.1400 
     96 CB         -2.5747  -18.6504  -49.9192 C.3       17 UNK        -0.1800 
     97 C          -4.5024  -18.9268  -51.5287 C.2       17 UNK         0.5000 
     98 O          -4.6782  -17.9935  -52.3104 O.2       17 UNK        -0.5000 
     99 N          -5.4974  -19.6305  -50.9702 N.am      18 UNK        -0.5000 
    100 CA        -6.9208  -19.4127  -51.2361 C.3       18 UNK         0.1400 
    101 CB        -7.7568  -20.1429  -50.1741 C.3       18 UNK        -0.1800 
    102 C         -7.3206  -19.8524  -52.6575 C.2       18 UNK         0.5000 
    103 O         -8.0823  -19.1497  -53.3221 O.2       18 UNK        -0.5000 
    104 N         -6.7647  -20.9847  -53.1111 N.am      19 UNK        -0.5000 
    105 CA        -6.9005  -21.5094  -54.4721 C.3       19 UNK         0.1400 
    106 CB        -6.4796  -22.9877  -54.4739 C.3       19 UNK        -0.1800 
    107 C         -6.0804  -20.7254  -55.5170 C.2       19 UNK         0.5000 
    108 O         -6.3088  -20.9062  -56.7137 O.2       19 UNK        -0.5000 
    109 N         -5.1428  -19.8883  -55.0485 N.am      20 UNK        -0.5000 
    110 CA        -4.1907  -19.0847  -55.8171 C.3       20 UNK         0.1400 
    111 CB        -4.9155  -18.0137  -56.6582 C.3       20 UNK        -0.1800 
    112 C         -3.2246  -19.9608  -56.6387 C.2       20 UNK         0.5000 
    113 O         -3.0040  -19.7086  -57.8253 O.2       20 UNK        -0.5000 
    114 N         -2.6390  -20.9685  -55.9741 N.am      21 UNK        -0.5000 
    115 CA        -1.6829  -21.9317  -56.5356 C.3       21 UNK         0.1400 
    116 CB        -1.3487  -22.9806  -55.4638 C.3       21 UNK        -0.1800 
    117 C         -0.3889  -21.2955  -57.0867 C.2       21 UNK         0.5000 
    118 O          0.2861  -21.9091  -57.9142 O.2       21 UNK        -0.5000 
    119 N         -0.0868  -20.0715  -56.6380 N.am      22 UNK        -0.5000 
    120 CA         0.9638  -19.1968  -57.1770 C.3       22 UNK         0.1400 
    121 C          0.6776  -18.6591  -58.6128 C.2       22 UNK         0.5000 
    122 N         -0.5413  -18.7407  -59.1358 N.am      22 UNK        -0.7600 
    123 O          1.5868  -18.1586  -59.2691 O.2       22 UNK        -0.5000 
    124 C124        1.2593  -18.0176  -56.2157 C.3       23 UNK        -0.0398 
    125 S125        1.9030  -18.5485  -54.5922 S.3       23 UNK        -0.2404 
    126 C126        0.3963  -18.6242  -53.5683 C.3       23 UNK        -0.0205 
    127 H127       -5.4368  -15.0034  -48.3481 H         1 UNK         0.0600 
    128 H128       -4.9090  -16.0515  -49.6800 H         1 UNK         0.0600 
    129 H129       -6.5286  -16.2160  -49.0101 H         1 UNK         0.0600 
    130 H130       -3.4492  -17.5883  -46.5492 H         1 UNK         0.3000 
    131 H131       -2.9518  -15.4026  -48.4542 H         1 UNK         0.0600 
    132 H132       -1.0995  -16.6345  -46.3703 H         1 UNK         0.0800 
    133 H133       -1.2222  -17.2366  -47.9861 H         1 UNK         0.0800 
    134 H134        0.4911  -14.5498  -50.1996 H         1 UNK         0.0800 
    135 H135       -1.1117  -15.2339  -50.1239 H         1 UNK         0.0800 
    136 H136       -0.4076  -16.4033  -52.2084 H         1 UNK         0.1150 
    137 H137        1.8657  -20.0030  -51.7326 H         1 UNK         0.1150 
    138 H138        1.5286  -17.2477  -48.4763 H         1 UNK         0.1150 
    139 H139        2.8308  -19.1769  -48.1714 H         1 UNK         0.0800 
    140 H140        3.6110  -19.7669  -49.6167 H         1 UNK         0.0800 
    141 H141       -0.3734  -20.6407  -49.1957 H         1 UNK         0.0800 
    142 H142        0.2707  -19.8469  -47.7712 H         1 UNK         0.0800 
    143 H143       -0.3576  -22.8314  -47.9234 H         1 UNK         0.0600 
    144 H144        0.9688  -21.3502  -45.8894 H         1 UNK         0.3000 
    145 H145        0.2337  -23.6873  -43.2284 H         1 UNK         0.0600 
    146 H146        2.6952  -23.5005  -43.0793 H         1 UNK         0.0600 
    147 H147        2.2408  -24.4564  -44.4818 H         1 UNK         0.0600 
    148 H148        2.7722  -22.7942  -44.6912 H         1 UNK         0.0600 
    149 H149        1.5819  -21.1915  -43.1470 H         1 UNK         0.3000 
    150 H150       -1.2995  -19.1653  -42.3980 H         1 UNK         0.0600 
    151 H151        1.1432  -20.0291  -40.7597 H         1 UNK         0.0600 
    152 H152       -0.5342  -20.1803  -40.2490 H         1 UNK         0.0600 
    153 H153        0.1700  -18.5866  -40.4856 H         1 UNK         0.0600 
    154 H154        1.4108  -18.4244  -42.6699 H         1 UNK         0.3000 
    155 H155        1.4309  -17.8757  -46.2135 H         1 UNK         0.0600 
    156 H156        1.7420  -16.0760  -43.7507 H         1 UNK         0.0600 
    157 H157        0.5564  -15.8401  -45.0109 H         1 UNK         0.0600 
    158 H158        2.2665  -15.7171  -45.3953 H         1 UNK         0.0600 
    159 H159        3.4805  -17.7372  -44.2249 H         1 UNK         0.3000 
    160 H160        4.7144  -21.0667  -44.5826 H         1 UNK         0.0600 
    161 H161        5.8109  -18.3446  -45.4776 H         1 UNK         0.0600 
    162 H162        5.6456  -19.7656  -46.5021 H         1 UNK         0.0600 
    163 H163        6.7630  -19.7921  -45.1471 H         1 UNK         0.0600 
    164 H164        5.5712  -18.7959  -43.0492 H         1 UNK         0.3000 
    165 H165        3.6407  -19.4966  -40.1307 H         1 UNK         0.0600 
    166 H166        5.8971  -19.5011  -39.1177 H         1 UNK         0.0600 
    167 H167        6.6451  -19.7230  -40.6998 H         1 UNK         0.0600 
    168 H168        5.6417  -20.9925  -40.0087 H         1 UNK         0.0600 
    169 H169        5.5455  -17.4726  -40.5888 H         1 UNK         0.3000 
    170 H170        4.7130  -15.2934  -40.5221 H         1 UNK         0.0600 
    171 H171        5.7134  -15.7953  -42.7698 H         1 UNK         0.0600 
    172 H172        4.1929  -15.3804  -43.5509 H         1 UNK         0.0600 
    173 H173        5.1171  -14.1469  -42.6970 H         1 UNK         0.0600 
    174 H174        2.6429  -14.1234  -42.0991 H         1 UNK         0.3000 
    175 H175       -0.0398  -14.2301  -40.1500 H         1 UNK         0.0600 
    176 H176        1.7984  -11.9260  -39.3105 H         1 UNK         0.0600 
    177 H177        0.0357  -11.9059  -39.2485 H         1 UNK         0.0600 
    178 H178        0.9365  -13.0094  -38.2248 H         1 UNK         0.0600 
    179 H179        1.2168  -12.0521  -41.6842 H         1 UNK         0.3000 
    180 H180       -0.0928  -11.4057  -43.4708 H         1 UNK         0.0600 
    181 H181        1.1396  -13.5353  -45.3081 H         1 UNK         0.0600 
    182 H182        2.0884  -12.5152  -44.2308 H         1 UNK         0.0600 
    183 H183        1.1671  -11.7954  -45.5399 H         1 UNK         0.0600 
    184 H184       -1.7094  -13.6015  -44.4302 H         1 UNK         0.3000 
    185 H185       -3.9449  -12.5276  -45.1918 H         1 UNK         0.0600 
    186 H186       -4.8853  -11.5401  -47.2646 H         1 UNK         0.0600 
    187 H187       -4.1468  -10.3009  -46.2646 H         1 UNK         0.0600 
    188 H188       -3.3066  -10.8850  -47.6970 H         1 UNK         0.0600 
    189 H189       -2.8159  -13.2750  -47.8092 H         1 UNK         0.3000 
    190 H190       -1.6256  -20.4752  -45.5734 H         1 UNK         0.3000 
    191 H191       -4.2529  -20.2811  -46.7111 H         1 UNK         0.0600 
    192 H192       -4.8474  -19.2661  -44.5525 H         1 UNK         0.0600 
    193 H193       -3.2904  -18.6318  -45.0602 H         1 UNK         0.0600 
    194 H194       -3.3706  -19.8563  -43.8041 H         1 UNK         0.0600 
    195 H195       -2.8631  -22.3264  -44.0863 H         1 UNK         0.3000 
    196 H196       -5.2125  -23.7767  -43.4767 H         1 UNK         0.0600 
    197 H197       -2.2656  -24.5344  -43.1105 H         1 UNK         0.0600 
    198 H198       -3.2643  -23.6489  -41.9600 H         1 UNK         0.0600 
    199 H199       -3.6236  -25.3302  -42.3226 H         1 UNK         0.0600 
    200 H200       -2.5673  -24.5085  -45.7806 H         1 UNK         0.3000 
    201 H201       -3.6703  -27.0043  -46.7180 H         1 UNK         0.0600 
    202 H202       -1.6264  -25.0901  -47.9735 H         1 UNK         0.0600 
    203 H203       -1.9119  -26.7534  -48.4720 H         1 UNK         0.0600 
    204 H204       -1.2502  -26.4199  -46.8794 H         1 UNK         0.0600 
    205 H205       -4.5737  -23.7648  -47.2728 H         1 UNK         0.3000 
    206 H206       -5.9327  -22.6464  -48.5631 H         1 UNK         0.0600 
    207 H207       -7.5533  -24.5198  -48.1701 H         1 UNK         0.0600 
    208 H208       -7.8089  -23.7286  -49.7160 H         1 UNK         0.0600 
    209 H209       -7.0135  -25.2927  -49.6612 H         1 UNK         0.0600 
    210 H210       -3.2541  -23.6562  -49.5981 H         1 UNK         0.3000 
    211 H211       -3.3544  -23.7368  -52.4748 H         1 UNK         0.0600 
    212 H212       -0.8760  -23.4473  -52.2601 H         1 UNK         0.0600 
    213 H213       -1.4624  -24.6951  -51.1718 H         1 UNK         0.0600 
    214 H214       -1.0508  -23.0998  -50.5444 H         1 UNK         0.0600 
    215 H215       -2.8945  -21.1613  -50.0560 H         1 UNK         0.3000 
    216 H216       -2.4234  -19.0537  -52.0098 H         1 UNK         0.0600 
    217 H217       -3.0792  -19.0193  -49.0260 H         1 UNK         0.0600 
    218 H218       -2.7426  -17.5751  -49.9860 H         1 UNK         0.0600 
    219 H219       -1.5050  -18.7958  -49.7876 H         1 UNK         0.0600 
    220 H220       -5.2615  -20.3931  -50.3546 H         1 UNK         0.3000 
    221 H221       -7.1224  -18.3429  -51.1473 H         1 UNK         0.0600 
    222 H222       -7.5026  -19.8021  -49.1700 H         1 UNK         0.0600 
    223 H223       -7.6074  -21.2219  -50.2111 H         1 UNK         0.0600 
    224 H224       -8.8210  -19.9553  -50.3213 H         1 UNK         0.0600 
    225 H225       -6.2201  -21.5550  -52.4685 H         1 UNK         0.3000 
    226 H226       -7.9510  -21.4496  -54.7636 H         1 UNK         0.0600 
    227 H227       -5.4342  -23.1060  -54.1850 H         1 UNK         0.0600 
    228 H228       -7.0864  -23.5716  -53.7816 H         1 UNK         0.0600 
    229 H229       -6.5997  -23.4303  -55.4635 H         1 UNK         0.0600 
    230 H230       -5.0320  -19.8446  -54.0453 H         1 UNK         0.3000 
    231 H231       -3.5766  -18.5609  -55.0830 H         1 UNK         0.0600 
    232 H232       -5.5147  -18.4556  -57.4547 H         1 UNK         0.0600 
    233 H233       -4.1998  -17.3373  -57.1268 H         1 UNK         0.0600 
    234 H234       -5.5760  -17.4079  -56.0378 H         1 UNK         0.0600 
    235 H235       -2.8723  -21.0988  -54.9906 H         1 UNK         0.3000 
    236 H236       -2.1768  -22.4357  -57.3685 H         1 UNK         0.0600 
    237 H237       -2.2483  -23.4828  -55.1073 H         1 UNK         0.0600 
    238 H238       -0.6828  -23.7483  -55.8597 H         1 UNK         0.0600 
    239 H239       -0.8538  -22.5273  -54.6042 H         1 UNK         0.0600 
    240 H240       -0.7044  -19.6588  -55.9578 H         1 UNK         0.3000 
    241 H241        1.8728  -19.7960  -57.2579 H         1 UNK         0.0600 
    242 H242       -0.6996  -18.3897  -60.0670 H         1 UNK         0.3800 
    243 H243       -1.3179  -19.1429  -58.6194 H         1 UNK         0.3800 
    244 H244        0.3746  -17.3931  -56.0835 H         1 UNK         0.0800 
    245 H245        2.0189  -17.3632  -56.6476 H         1 UNK         0.0800 
    246 H246       -0.3724  -17.9665  -53.9757 H         1 UNK         0.0800 
    247 H247       -0.0127  -19.6353  -53.6003 H         1 UNK         0.0800 
@<TRIPOS>BOND
     1    1    2 1    
     2    1  127 1    
     3    1  128 1    
     4    1  129 1    
     5    2    3 2    
     6    2    4 am   BACKBONE|DICT|INTERRES
     7    4    5 1    
     8    4  130 1    
     9    5    6 1    
    10    5   65 1    
    11    5  131 1    
    12    6    7 1    
    13    6  132 1    
    14    6  133 1    
    15    7    8 1    
    16    8    9 1    
    17    8  134 1    
    18    8  135 1    
    19    9   10 ar   
    20    9   14 ar   
    21   10   11 ar   
    22   10  136 1    
    23   11   12 ar   
    24   11  126 1    
    25   12   13 ar   
    26   12  137 1    
    27   13   14 ar   
    28   13   15 1    
    29   14  138 1    
    30   15   16 1    
    31   15  139 1    
    32   15  140 1    
    33   16   17 1    
    34   17   18 1    
    35   17  141 1    
    36   17  142 1    
    37   18   19 1    
    38   18   67 1    
    39   18  143 1    
    40   19   20 am   BACKBONE|DICT|INTERRES
    41   19  144 1    
    42   20   21 2    
    43   20   22 1    
    44   22   23 1    
    45   22   24 1    
    46   22  145 1    
    47   23  146 1    
    48   23  147 1    
    49   23  148 1    
    50   24   25 am   BACKBONE|DICT|INTERRES
    51   24  149 1    
    52   25   26 2    
    53   25   27 1    
    54   27   28 1    
    55   27   29 1    
    56   27  150 1    
    57   28  151 1    
    58   28  152 1    
    59   28  153 1    
    60   29   30 am   BACKBONE|DICT|INTERRES
    61   29  154 1    
    62   30   31 2    
    63   30   32 1    
    64   32   33 1    
    65   32   34 1    
    66   32  155 1    
    67   33  156 1    
    68   33  157 1    
    69   33  158 1    
    70   34   35 am   BACKBONE|DICT|INTERRES
    71   34  159 1    
    72   35   36 2    
    73   35   37 1    
    74   37   38 1    
    75   37   39 1    
    76   37  160 1    
    77   38  161 1    
    78   38  162 1    
    79   38  163 1    
    80   39   40 am   BACKBONE|DICT|INTERRES
    81   39  164 1    
    82   40   41 2    
    83   40   42 1    
    84   42   43 1    
    85   42   44 1    
    86   42  165 1    
    87   43  166 1    
    88   43  167 1    
    89   43  168 1    
    90   44   45 am   BACKBONE|DICT|INTERRES
    91   44  169 1    
    92   45   46 2    
    93   45   47 1    
    94   47   48 1    
    95   47   49 1    
    96   47  170 1    
    97   48  171 1    
    98   48  172 1    
    99   48  173 1    
   100   49   50 am   BACKBONE|DICT|INTERRES
   101   49  174 1    
   102   50   51 2    
   103   50   52 1    
   104   52   53 1    
   105   52   54 1    
   106   52  175 1    
   107   53  176 1    
   108   53  177 1    
   109   53  178 1    
   110   54   55 am   BACKBONE|DICT|INTERRES
   111   54  179 1    
   112   55   56 2    
   113   55   57 1    
   114   57   58 1    
   115   57   59 1    
   116   57  180 1    
   117   58  181 1    
   118   58  182 1    
   119   58  183 1    
   120   59   60 am   BACKBONE|DICT|INTERRES
   121   59  184 1    
   122   60   61 2    
   123   60   62 1    
   124   62   63 1    
   125   62   64 1    
   126   62  185 1    
   127   63  186 1    
   128   63  187 1    
   129   63  188 1    
   130   64   65 am   BACKBONE|DICT|INTERRES
   131   64  189 1    
   132   65   66 2    
   133   67   68 2    
   134   67   69 am   BACKBONE|DICT|INTERRES
   135   69   70 1    
   136   69  190 1    
   137   70   71 1    
   138   70   72 1    
   139   70  191 1    
   140   71  192 1    
   141   71  193 1    
   142   71  194 1    
   143   72   73 2    
   144   72   74 am   BACKBONE|DICT|INTERRES
   145   74   75 1    
   146   74  195 1    
   147   75   76 1    
   148   75   77 1    
   149   75  196 1    
   150   76  197 1    
   151   76  198 1    
   152   76  199 1    
   153   77   78 2    
   154   77   79 am   BACKBONE|DICT|INTERRES
   155   79   80 1    
   156   79  200 1    
   157   80   81 1    
   158   80   82 1    
   159   80  201 1    
   160   81  202 1    
   161   81  203 1    
   162   81  204 1    
   163   82   83 2    
   164   82   84 am   BACKBONE|DICT|INTERRES
   165   84   85 1    
   166   84  205 1    
   167   85   86 1    
   168   85   87 1    
   169   85  206 1    
   170   86  207 1    
   171   86  208 1    
   172   86  209 1    
   173   87   88 2    
   174   87   89 am   BACKBONE|DICT|INTERRES
   175   89   90 1    
   176   89  210 1    
   177   90   91 1    
   178   90   92 1    
   179   90  211 1    
   180   91  212 1    
   181   91  213 1    
   182   91  214 1    
   183   92   93 2    
   184   92   94 am   BACKBONE|DICT|INTERRES
   185   94   95 1    
   186   94  215 1    
   187   95   96 1    
   188   95   97 1    
   189   95  216 1    
   190   96  217 1    
   191   96  218 1    
   192   96  219 1    
   193   97   98 2    
   194   97   99 am   BACKBONE|DICT|INTERRES
   195   99  100 1    
   196   99  220 1    
   197  100  101 1    
   198  100  102 1    
   199  100  221 1    
   200  101  222 1    
   201  101  223 1    
   202  101  224 1    
   203  102  103 2    
   204  102  104 am   BACKBONE|DICT|INTERRES
   205  104  105 1    
   206  104  225 1    
   207  105  106 1    
   208  105  107 1    
   209  105  226 1    
   210  106  227 1    
   211  106  228 1    
   212  106  229 1    
   213  107  108 2    
   214  107  109 am   BACKBONE|DICT|INTERRES
   215  109  110 1    
   216  109  230 1    
   217  110  111 1    
   218  110  112 1    
   219  110  231 1    
   220  111  232 1    
   221  111  233 1    
   222  111  234 1    
   223  112  113 2    
   224  112  114 am   BACKBONE|DICT|INTERRES
   225  114  115 1    
   226  114  235 1    
   227  115  116 1    
   228  115  117 1    
   229  115  236 1    
   230  116  237 1    
   231  116  238 1    
   232  116  239 1    
   233  117  118 2    
   234  117  119 am   BACKBONE|DICT|INTERRES
   235  119  120 1    
   236  119  240 1    
   237  120  121 1    
   238  120  124 1    
   239  120  241 1    
   240  121  122 am   BACKBONE|DICT|INTERRES
   241  121  123 2    
   242  122  242 1    
   243  122  243 1    
   244  124  125 1    
   245  124  244 1    
   246  124  245 1    
   247  125  126 1    
   248  126  246 1    
   249  126  247 1    
@<TRIPOS>SUBSTRUCTURE
     1 UNK         1 GROUP             0       ****    0 ROOT    
