@<TRIPOS>MOLECULE
3R540
247   249    1
SMALL
USER_CHARGES


@<TRIPOS>ATOM
      1 CA          3.9070  -11.8829  -44.3409 C.3       0 UNK        -0.1800 
      2 C           2.7002  -12.7823  -44.5603 C.2       0 UNK         0.5000 
      3 O           2.0566  -13.1961  -43.5960 O.2       0 UNK        -0.5000 
      4 N           2.3954  -13.0777  -45.8300 N.am      1 UNK        -0.5000 
      5 CA          1.3476  -14.0047  -46.2820 C.3       1 UNK         0.1400 
      6 C6          1.3608  -14.1461  -47.8281 C.3       23 UNK        -0.0398 
      7 S7          1.1368  -15.8695  -48.3738 S.3       23 UNK        -0.2404 
      8 C8          2.6676  -16.1399  -49.3194 C.3       23 UNK        -0.0205 
      9 C9          2.7161  -17.5183  -49.9633 C.ar      23 UNK        -0.0193 
     10 C10         1.9437  -17.7889  -51.0969 C.ar      23 UNK        -0.1150 
     11 C11         2.0350  -19.0259  -51.7425 C.ar      23 UNK        -0.0193 
     12 C12         2.9105  -19.9954  -51.2463 C.ar      23 UNK        -0.1150 
     13 C13         3.6771  -19.7450  -50.1049 C.ar      23 UNK        -0.0193 
     14 C14         3.5723  -18.5053  -49.4645 C.ar      23 UNK        -0.1150 
     15 C15         4.6462  -20.8016  -49.5915 C.3       23 UNK        -0.0205 
     16 S16         3.7988  -22.2732  -48.9319 S.3       23 UNK        -0.2404 
     17 C17         3.0012  -21.5871  -47.4433 C.3       23 UNK        -0.0398 
     18 CA          1.6006  -22.1791  -47.1578 C.3       11 UNK         0.1400 
     19 N           1.1470  -21.8381  -45.8080 N.am      11 UNK        -0.5000 
     20 C           0.1253  -22.4217  -45.1673 C.2       10 UNK         0.5000 
     21 O          -0.5081  -23.3766  -45.6156 O.2       10 UNK        -0.5000 
     22 CA         -0.2700  -21.8326  -43.7998 C.3       10 UNK         0.1400 
     23 CB          0.5040  -22.5310  -42.6720 C.3       10 UNK        -0.1800 
     24 N          -0.0622  -20.3851  -43.7134 N.am      10 UNK        -0.5000 
     25 C          -0.7456  -19.4750  -44.4223 C.2       9 UNK         0.5000 
     26 O          -1.6620  -19.7641  -45.1901 O.2       9 UNK        -0.5000 
     27 CA         -0.2956  -18.0060  -44.3006 C.3       9 UNK         0.1400 
     28 CB         -0.8663  -17.3508  -43.0375 C.3       9 UNK        -0.1800 
     29 N           1.1589  -17.8545  -44.3063 N.am      9 UNK        -0.5000 
     30 C           1.9484  -18.2111  -45.3285 C.2       8 UNK         0.5000 
     31 O           1.5310  -18.6936  -46.3805 O.2       8 UNK        -0.5000 
     32 CA          3.4624  -18.0715  -45.1035 C.3       8 UNK         0.1400 
     33 CB          3.9174  -16.6134  -45.2620 C.3       8 UNK        -0.1800 
     34 N           3.8535  -18.5700  -43.7849 N.am      8 UNK        -0.5000 
     35 C           3.8418  -19.8651  -43.4384 C.2       7 UNK         0.5000 
     36 O           3.5329  -20.7746  -44.2071 O.2       7 UNK        -0.5000 
     37 CA          4.1993  -20.1969  -41.9783 C.3       7 UNK         0.1400 
     38 CB          5.7228  -20.2588  -41.7940 C.3       7 UNK        -0.1800 
     39 N           3.6328  -19.2423  -41.0246 N.am      7 UNK        -0.5000 
     40 C           2.3207  -19.0803  -40.8032 C.2       6 UNK         0.5000 
     41 O           1.4460  -19.7325  -41.3696 O.2       6 UNK        -0.5000 
     42 CA          1.9139  -17.9723  -39.8162 C.3       6 UNK         0.1400 
     43 CB          1.8845  -18.5131  -38.3792 C.3       6 UNK        -0.1800 
     44 N           2.7790  -16.7916  -39.8746 N.am      6 UNK        -0.5000 
     45 C           2.9382  -16.0190  -40.9562 C.2       5 UNK         0.5000 
     46 O           2.4024  -16.2430  -42.0452 O.2       5 UNK        -0.5000 
     47 CA          3.8350  -14.7878  -40.7870 C.3       5 UNK         0.1400 
     48 CB          4.9586  -14.7684  -41.8359 C.3       5 UNK        -0.1800 
     49 N           2.9894  -13.6168  -40.9605 N.am      5 UNK        -0.5000 
     50 C           2.7154  -12.7001  -40.0253 C.2       4 UNK         0.5000 
     51 O           3.2484  -12.6678  -38.9154 O.2       4 UNK        -0.5000 
     52 CA          1.6306  -11.6670  -40.3771 C.3       4 UNK         0.1400 
     53 CB          2.2195  -10.4797  -41.1517 C.3       4 UNK        -0.1800 
     54 N           0.5555  -12.2794  -41.1595 N.am      4 UNK        -0.5000 
     55 C          -0.4977  -12.9072  -40.6205 C.2       3 UNK         0.5000 
     56 O          -0.6957  -12.9657  -39.4054 O.2       3 UNK        -0.5000 
     57 CA         -1.4798  -13.6141  -41.5806 C.3       3 UNK         0.1400 
     58 CB         -2.9363  -13.5711  -41.0729 C.3       3 UNK        -0.1800 
     59 N          -1.4087  -13.1750  -42.9803 N.am      3 UNK        -0.5000 
     60 C          -1.6811  -11.9613  -43.4801 C.2       2 UNK         0.5000 
     61 O          -1.9908  -10.9921  -42.7852 O.2       2 UNK        -0.5000 
     62 CA         -1.5818  -11.8130  -45.0170 C.3       2 UNK         0.1400 
     63 CB         -1.7129  -10.3509  -45.4813 C.3       2 UNK        -0.1800 
     64 N          -0.3379  -12.3624  -45.5618 N.am      2 UNK        -0.5000 
     65 C          -0.0667  -13.6598  -45.7620 C.2       1 UNK         0.5000 
     66 O          -0.8643  -14.5633  -45.5091 O.2       1 UNK        -0.5000 
     67 C           0.5489  -21.7869  -48.2205 C.2       11 UNK         0.5000 
     68 O           0.2448  -22.5997  -49.0949 O.2       11 UNK        -0.5000 
     69 N          -0.0263  -20.5809  -48.0958 N.am      12 UNK        -0.5000 
     70 CA         -1.1345  -20.1149  -48.9341 C.3       12 UNK         0.1400 
     71 CB         -1.3254  -18.6051  -48.7528 C.3       12 UNK        -0.1800 
     72 C          -2.4527  -20.8660  -48.6739 C.2       12 UNK         0.5000 
     73 O          -3.2192  -21.0855  -49.6118 O.2       12 UNK        -0.5000 
     74 N          -2.6862  -21.2534  -47.4122 N.am      13 UNK        -0.5000 
     75 CA         -3.8239  -22.0278  -46.9177 C.3       13 UNK         0.1400 
     76 CB         -3.7452  -23.4829  -47.4355 C.3       13 UNK        -0.1800 
     77 C          -5.1613  -21.3208  -47.2182 C.2       13 UNK         0.5000 
     78 O          -5.4297  -20.2658  -46.6418 O.2       13 UNK        -0.5000 
     79 N          -5.9672  -21.9017  -48.1159 N.am      14 UNK        -0.5000 
     80 CA         -7.2540  -21.3681  -48.5627 C.3       14 UNK         0.1400 
     81 CB         -8.0657  -22.5108  -49.1895 C.3       14 UNK        -0.1800 
     82 C          -7.1405  -20.1677  -49.5288 C.2       14 UNK         0.5000 
     83 O          -8.1537  -19.5089  -49.7615 O.2       14 UNK        -0.5000 
     84 N          -5.9324  -19.8987  -50.0515 N.am      15 UNK        -0.5000 
     85 CA         -5.5514  -18.7683  -50.9038 C.3       15 UNK         0.1400 
     86 CB         -5.6492  -17.4423  -50.1222 C.3       15 UNK        -0.1800 
     87 C          -6.3162  -18.7282  -52.2433 C.2       15 UNK         0.5000 
     88 O          -7.2859  -17.9827  -52.3933 O.2       15 UNK        -0.5000 
     89 N          -5.8376  -19.5377  -53.1953 N.am      16 UNK        -0.5000 
     90 CA         -6.2641  -19.6584  -54.5936 C.3       16 UNK         0.1400 
     91 CB         -6.1534  -18.3122  -55.3392 C.3       16 UNK        -0.1800 
     92 C          -7.6282  -20.3481  -54.7923 C.2       16 UNK         0.5000 
     93 O          -8.1985  -20.2655  -55.8815 O.2       16 UNK        -0.5000 
     94 N          -8.1157  -21.0522  -53.7620 N.am      17 UNK        -0.5000 
     95 CA         -9.3407  -21.8559  -53.8175 C.3       17 UNK         0.1400 
     96 CB         -9.8298  -22.1175  -52.3866 C.3       17 UNK        -0.1800 
     97 C          -9.1477  -23.1923  -54.5639 C.2       17 UNK         0.5000 
     98 O         -10.1236  -23.7596  -55.0567 O.2       17 UNK        -0.5000 
     99 N          -7.9006  -23.6707  -54.6274 N.am      18 UNK        -0.5000 
    100 CA        -7.4685  -24.9001  -55.2800 C.3       18 UNK         0.1400 
    101 CB        -7.7523  -26.1043  -54.3639 C.3       18 UNK        -0.1800 
    102 C         -5.9664  -24.7782  -55.5658 C.2       18 UNK         0.5000 
    103 O         -5.2970  -23.9423  -54.9508 O.2       18 UNK        -0.5000 
    104 N         -5.4447  -25.6309  -56.4574 N.am      19 UNK        -0.5000 
    105 CA        -4.0311  -25.6690  -56.8590 C.3       19 UNK         0.1400 
    106 CB        -3.8518  -26.7064  -57.9774 C.3       19 UNK        -0.1800 
    107 C         -3.0578  -25.9553  -55.6970 C.2       19 UNK         0.5000 
    108 O         -1.9426  -25.4334  -55.6900 O.2       19 UNK        -0.5000 
    109 N         -3.5193  -26.7369  -54.7107 N.am      20 UNK        -0.5000 
    110 CA        -2.8124  -27.0238  -53.4592 C.3       20 UNK         0.1400 
    111 CB        -3.5073  -28.2050  -52.7639 C.3       20 UNK        -0.1800 
    112 C         -2.7293  -25.8118  -52.5057 C.2       20 UNK         0.5000 
    113 O         -1.9090  -25.8223  -51.5883 O.2       20 UNK        -0.5000 
    114 N         -3.5697  -24.7973  -52.7413 N.am      21 UNK        -0.5000 
    115 CA        -3.6454  -23.5410  -52.0023 C.3       21 UNK         0.1400 
    116 CB        -5.0810  -23.3823  -51.4687 C.3       21 UNK        -0.1800 
    117 C         -3.2241  -22.3652  -52.9060 C.2       21 UNK         0.5000 
    118 O         -3.7896  -21.2787  -52.7970 O.2       21 UNK        -0.5000 
    119 N         -2.2564  -22.6071  -53.8003 N.am      22 UNK        -0.5000 
    120 CA        -1.6750  -21.6470  -54.7592 C.3       22 UNK         0.1400 
    121 C         -2.5458  -21.3552  -56.0186 C.2       22 UNK         0.5000 
    122 N         -3.6917  -21.9916  -56.2193 N.am      22 UNK        -0.7600 
    123 O         -2.1577  -20.5491  -56.8600 O.2       22 UNK        -0.5000 
    124 C124       -1.1621  -20.3250  -54.1137 C.3       23 UNK        -0.0398 
    125 S125       -0.0532  -20.5760  -52.6864 S.3       23 UNK        -0.2404 
    126 C126        1.2109  -19.3044  -52.9905 C.3       23 UNK        -0.0205 
    127 H127        3.5982  -10.8384  -44.3082 H         1 UNK         0.0600 
    128 H128        4.6387  -12.0000  -45.1406 H         1 UNK         0.0600 
    129 H129        4.3980  -12.1272  -43.3989 H         1 UNK         0.0600 
    130 H130        2.9631  -12.6763  -46.5625 H         1 UNK         0.3000 
    131 H131        1.6011  -14.9677  -45.8360 H         1 UNK         0.0600 
    132 H132        0.5993  -13.5251  -48.3043 H         1 UNK         0.0800 
    133 H133        2.3066  -13.7869  -48.2358 H         1 UNK         0.0800 
    134 H134        3.5274  -15.9951  -48.6641 H         1 UNK         0.0800 
    135 H135        2.7458  -15.3819  -50.1003 H         1 UNK         0.0800 
    136 H136        1.2811  -17.0266  -51.4820 H         1 UNK         0.1150 
    137 H137        2.9906  -20.9505  -51.7466 H         1 UNK         0.1150 
    138 H138        4.1728  -18.2997  -48.5898 H         1 UNK         0.1150 
    139 H139        5.2975  -21.1103  -50.4104 H         1 UNK         0.0800 
    140 H140        5.3005  -20.3898  -48.8214 H         1 UNK         0.0800 
    141 H141        2.9505  -20.5018  -47.5123 H         1 UNK         0.0800 
    142 H142        3.6683  -21.8025  -46.6084 H         1 UNK         0.0800 
    143 H143        1.6960  -23.2669  -47.1885 H         1 UNK         0.0600 
    144 H144        1.6415  -21.0862  -45.3444 H         1 UNK         0.3000 
    145 H145       -1.3343  -22.0277  -43.6528 H         1 UNK         0.0600 
    146 H146        0.1648  -22.1921  -41.6931 H         1 UNK         0.0600 
    147 H147        0.3609  -23.6116  -42.7088 H         1 UNK         0.0600 
    148 H148        1.5752  -22.3377  -42.7411 H         1 UNK         0.0600 
    149 H149        0.6365  -20.0679  -43.0462 H         1 UNK         0.3000 
    150 H150       -0.6844  -17.4667  -45.1673 H         1 UNK         0.0600 
    151 H151       -1.9565  -17.3785  -43.0392 H         1 UNK         0.0600 
    152 H152       -0.5626  -16.3067  -42.9845 H         1 UNK         0.0600 
    153 H153       -0.5215  -17.8486  -42.1311 H         1 UNK         0.0600 
    154 H154        1.5828  -17.4473  -43.4787 H         1 UNK         0.3000 
    155 H155        3.9721  -18.6692  -45.8624 H         1 UNK         0.0600 
    156 H156        3.4229  -15.9564  -44.5467 H         1 UNK         0.0600 
    157 H157        3.6880  -16.2421  -46.2605 H         1 UNK         0.0600 
    158 H158        4.9935  -16.5163  -45.1189 H         1 UNK         0.0600 
    159 H159        4.0583  -17.8788  -43.0787 H         1 UNK         0.3000 
    160 H160        3.7880  -21.1831  -41.7527 H         1 UNK         0.0600 
    161 H161        6.1920  -19.2914  -41.9773 H         1 UNK         0.0600 
    162 H162        6.1699  -20.9766  -42.4832 H         1 UNK         0.0600 
    163 H163        5.9851  -20.5736  -40.7838 H         1 UNK         0.0600 
    164 H164        4.2823  -18.6612  -40.5158 H         1 UNK         0.3000 
    165 H165        0.9033  -17.6540  -40.0799 H         1 UNK         0.0600 
    166 H166        1.5077  -17.7636  -37.6830 H         1 UNK         0.0600 
    167 H167        1.2304  -19.3829  -38.3030 H         1 UNK         0.0600 
    168 H168        2.8762  -18.8175  -38.0420 H         1 UNK         0.0600 
    169 H169        3.2445  -16.5341  -39.0161 H         1 UNK         0.3000 
    170 H170        4.2893  -14.8031  -39.7942 H         1 UNK         0.0600 
    171 H171        5.5817  -15.6602  -41.7594 H         1 UNK         0.0600 
    172 H172        4.5657  -14.7261  -42.8516 H         1 UNK         0.0600 
    173 H173        5.6074  -13.9038  -41.6963 H         1 UNK         0.0600 
    174 H174        2.4973  -13.5716  -41.8511 H         1 UNK         0.3000 
    175 H175        1.2246  -11.2782  -39.4408 H         1 UNK         0.0600 
    176 H176        2.6313  -10.7881  -42.1100 H         1 UNK         0.0600 
    177 H177        1.4604   -9.7211  -41.3433 H         1 UNK         0.0600 
    178 H178        3.0217  -10.0037  -40.5864 H         1 UNK         0.0600 
    179 H179        0.6916  -12.3337  -42.1617 H         1 UNK         0.3000 
    180 H180       -1.1726  -14.6588  -41.5772 H         1 UNK         0.0600 
    181 H181       -3.3008  -12.5482  -40.9748 H         1 UNK         0.0600 
    182 H182       -3.0269  -14.0447  -40.0947 H         1 UNK         0.0600 
    183 H183       -3.6052  -14.1028  -41.7496 H         1 UNK         0.0600 
    184 H184       -1.1518  -13.8901  -43.6538 H         1 UNK         0.3000 
    185 H185       -2.4204  -12.3693  -45.4410 H         1 UNK         0.0600 
    186 H186       -1.6843  -10.2783  -46.5686 H         1 UNK         0.0600 
    187 H187       -2.6597   -9.9182  -45.1556 H         1 UNK         0.0600 
    188 H188       -0.9110   -9.7288  -45.0817 H         1 UNK         0.0600 
    189 H189        0.3971  -11.6960  -45.7482 H         1 UNK         0.3000 
    190 H190        0.3130  -19.9447  -47.3804 H         1 UNK         0.3000 
    191 H191       -0.8657  -20.2926  -49.9749 H         1 UNK         0.0600 
    192 H192       -1.4546  -18.3333  -47.7045 H         1 UNK         0.0600 
    193 H193       -2.1984  -18.2478  -49.3008 H         1 UNK         0.0600 
    194 H194       -0.4616  -18.0691  -49.1403 H         1 UNK         0.0600 
    195 H195       -2.0612  -20.9041  -46.6915 H         1 UNK         0.3000 
    196 H196       -3.7271  -22.0570  -45.8315 H         1 UNK         0.0600 
    197 H197       -3.7822  -23.5420  -48.5237 H         1 UNK         0.0600 
    198 H198       -2.8150  -23.9543  -47.1181 H         1 UNK         0.0600 
    199 H199       -4.5608  -24.0882  -47.0378 H         1 UNK         0.0600 
    200 H200       -5.6588  -22.7601  -48.5473 H         1 UNK         0.3000 
    201 H201       -7.7982  -21.0170  -47.6833 H         1 UNK         0.0600 
    202 H202       -7.5800  -22.9095  -50.0795 H         1 UNK         0.0600 
    203 H203       -9.0607  -22.1687  -49.4762 H         1 UNK         0.0600 
    204 H204       -8.2004  -23.3318  -48.4851 H         1 UNK         0.0600 
    205 H205       -5.1604  -20.5113  -49.8057 H         1 UNK         0.3000 
    206 H206       -4.4968  -18.9169  -51.1436 H         1 UNK         0.0600 
    207 H207       -5.0348  -17.4719  -49.2222 H         1 UNK         0.0600 
    208 H208       -5.2977  -16.6075  -50.7294 H         1 UNK         0.0600 
    209 H209       -6.6729  -17.2181  -49.8211 H         1 UNK         0.0600 
    210 H210       -5.0465  -20.1399  -52.9537 H         1 UNK         0.3000 
    211 H211       -5.5385  -20.3313  -55.0495 H         1 UNK         0.0600 
    212 H212       -5.1704  -17.8630  -55.1971 H         1 UNK         0.0600 
    213 H213       -6.9038  -17.5972  -55.0019 H         1 UNK         0.0600 
    214 H214       -6.2928  -18.4470  -56.4124 H         1 UNK         0.0600 
    215 H215       -7.5999  -21.0500  -52.8947 H         1 UNK         0.3000 
    216 H216      -10.1098  -21.2848  -54.3419 H         1 UNK         0.0600 
    217 H217       -9.1458  -22.7738  -51.8499 H         1 UNK         0.0600 
    218 H218      -10.8070  -22.6019  -52.3926 H         1 UNK         0.0600 
    219 H219       -9.9284  -21.1903  -51.8212 H         1 UNK         0.0600 
    220 H220       -7.1390  -23.1216  -54.2505 H         1 UNK         0.3000 
    221 H221       -7.9970  -25.0151  -56.2284 H         1 UNK         0.0600 
    222 H222       -8.8175  -26.1989  -54.1524 H         1 UNK         0.0600 
    223 H223       -7.2301  -26.0140  -53.4102 H         1 UNK         0.0600 
    224 H224       -7.4329  -27.0381  -54.8279 H         1 UNK         0.0600 
    225 H225       -6.0554  -26.2936  -56.9136 H         1 UNK         0.3000 
    226 H226       -3.7749  -24.6878  -57.2630 H         1 UNK         0.0600 
    227 H227       -4.4644  -26.4612  -58.8451 H         1 UNK         0.0600 
    228 H228       -2.8147  -26.7428  -58.3140 H         1 UNK         0.0600 
    229 H229       -4.1246  -27.7087  -57.6447 H         1 UNK         0.0600 
    230 H230       -4.4469  -27.1236  -54.8040 H         1 UNK         0.3000 
    231 H231       -1.7900  -27.3204  -53.7025 H         1 UNK         0.0600 
    232 H232       -4.5403  -27.9681  -52.5056 H         1 UNK         0.0600 
    233 H233       -2.9917  -28.4746  -51.8412 H         1 UNK         0.0600 
    234 H234       -3.5136  -29.0899  -53.4006 H         1 UNK         0.0600 
    235 H235       -4.1730  -24.8444  -53.5545 H         1 UNK         0.3000 
    236 H236       -2.9609  -23.5481  -51.1517 H         1 UNK         0.0600 
    237 H237       -5.8090  -23.3261  -52.2781 H         1 UNK         0.0600 
    238 H238       -5.3565  -24.2190  -50.8269 H         1 UNK         0.0600 
    239 H239       -5.1779  -22.4741  -50.8770 H         1 UNK         0.0600 
    240 H240       -1.8861  -23.5452  -53.8535 H         1 UNK         0.3000 
    241 H241       -0.7991  -22.1615  -55.1554 H         1 UNK         0.0600 
    242 H242       -4.0595  -22.6632  -55.5530 H         1 UNK         0.3800 
    243 H243       -4.2138  -21.7886  -57.0555 H         1 UNK         0.3800 
    244 H244       -1.9971  -19.7025  -53.7897 H         1 UNK         0.0800 
    245 H245       -0.6289  -19.7361  -54.8617 H         1 UNK         0.0800 
    246 H246        0.7264  -18.3884  -53.3327 H         1 UNK         0.0800 
    247 H247        1.8673  -19.6309  -53.7984 H         1 UNK         0.0800 
@<TRIPOS>BOND
     1    1    2 1    
     2    1  127 1    
     3    1  128 1    
     4    1  129 1    
     5    2    3 2    
     6    2    4 am   BACKBONE|DICT|INTERRES
     7    4    5 1    
     8    4  130 1    
     9    5    6 1    
    10    5   65 1    
    11    5  131 1    
    12    6    7 1    
    13    6  132 1    
    14    6  133 1    
    15    7    8 1    
    16    8    9 1    
    17    8  134 1    
    18    8  135 1    
    19    9   10 ar   
    20    9   14 ar   
    21   10   11 ar   
    22   10  136 1    
    23   11   12 ar   
    24   11  126 1    
    25   12   13 ar   
    26   12  137 1    
    27   13   14 ar   
    28   13   15 1    
    29   14  138 1    
    30   15   16 1    
    31   15  139 1    
    32   15  140 1    
    33   16   17 1    
    34   17   18 1    
    35   17  141 1    
    36   17  142 1    
    37   18   19 1    
    38   18   67 1    
    39   18  143 1    
    40   19   20 am   BACKBONE|DICT|INTERRES
    41   19  144 1    
    42   20   21 2    
    43   20   22 1    
    44   22   23 1    
    45   22   24 1    
    46   22  145 1    
    47   23  146 1    
    48   23  147 1    
    49   23  148 1    
    50   24   25 am   BACKBONE|DICT|INTERRES
    51   24  149 1    
    52   25   26 2    
    53   25   27 1    
    54   27   28 1    
    55   27   29 1    
    56   27  150 1    
    57   28  151 1    
    58   28  152 1    
    59   28  153 1    
    60   29   30 am   BACKBONE|DICT|INTERRES
    61   29  154 1    
    62   30   31 2    
    63   30   32 1    
    64   32   33 1    
    65   32   34 1    
    66   32  155 1    
    67   33  156 1    
    68   33  157 1    
    69   33  158 1    
    70   34   35 am   BACKBONE|DICT|INTERRES
    71   34  159 1    
    72   35   36 2    
    73   35   37 1    
    74   37   38 1    
    75   37   39 1    
    76   37  160 1    
    77   38  161 1    
    78   38  162 1    
    79   38  163 1    
    80   39   40 am   BACKBONE|DICT|INTERRES
    81   39  164 1    
    82   40   41 2    
    83   40   42 1    
    84   42   43 1    
    85   42   44 1    
    86   42  165 1    
    87   43  166 1    
    88   43  167 1    
    89   43  168 1    
    90   44   45 am   BACKBONE|DICT|INTERRES
    91   44  169 1    
    92   45   46 2    
    93   45   47 1    
    94   47   48 1    
    95   47   49 1    
    96   47  170 1    
    97   48  171 1    
    98   48  172 1    
    99   48  173 1    
   100   49   50 am   BACKBONE|DICT|INTERRES
   101   49  174 1    
   102   50   51 2    
   103   50   52 1    
   104   52   53 1    
   105   52   54 1    
   106   52  175 1    
   107   53  176 1    
   108   53  177 1    
   109   53  178 1    
   110   54   55 am   BACKBONE|DICT|INTERRES
   111   54  179 1    
   112   55   56 2    
   113   55   57 1    
   114   57   58 1    
   115   57   59 1    
   116   57  180 1    
   117   58  181 1    
   118   58  182 1    
   119   58  183 1    
   120   59   60 am   BACKBONE|DICT|INTERRES
   121   59  184 1    
   122   60   61 2    
   123   60   62 1    
   124   62   63 1    
   125   62   64 1    
   126   62  185 1    
   127   63  186 1    
   128   63  187 1    
   129   63  188 1    
   130   64   65 am   BACKBONE|DICT|INTERRES
   131   64  189 1    
   132   65   66 2    
   133   67   68 2    
   134   67   69 am   BACKBONE|DICT|INTERRES
   135   69   70 1    
   136   69  190 1    
   137   70   71 1    
   138   70   72 1    
   139   70  191 1    
   140   71  192 1    
   141   71  193 1    
   142   71  194 1    
   143   72   73 2    
   144   72   74 am   BACKBONE|DICT|INTERRES
   145   74   75 1    
   146   74  195 1    
   147   75   76 1    
   148   75   77 1    
   149   75  196 1    
   150   76  197 1    
   151   76  198 1    
   152   76  199 1    
   153   77   78 2    
   154   77   79 am   BACKBONE|DICT|INTERRES
   155   79   80 1    
   156   79  200 1    
   157   80   81 1    
   158   80   82 1    
   159   80  201 1    
   160   81  202 1    
   161   81  203 1    
   162   81  204 1    
   163   82   83 2    
   164   82   84 am   BACKBONE|DICT|INTERRES
   165   84   85 1    
   166   84  205 1    
   167   85   86 1    
   168   85   87 1    
   169   85  206 1    
   170   86  207 1    
   171   86  208 1    
   172   86  209 1    
   173   87   88 2    
   174   87   89 am   BACKBONE|DICT|INTERRES
   175   89   90 1    
   176   89  210 1    
   177   90   91 1    
   178   90   92 1    
   179   90  211 1    
   180   91  212 1    
   181   91  213 1    
   182   91  214 1    
   183   92   93 2    
   184   92   94 am   BACKBONE|DICT|INTERRES
   185   94   95 1    
   186   94  215 1    
   187   95   96 1    
   188   95   97 1    
   189   95  216 1    
   190   96  217 1    
   191   96  218 1    
   192   96  219 1    
   193   97   98 2    
   194   97   99 am   BACKBONE|DICT|INTERRES
   195   99  100 1    
   196   99  220 1    
   197  100  101 1    
   198  100  102 1    
   199  100  221 1    
   200  101  222 1    
   201  101  223 1    
   202  101  224 1    
   203  102  103 2    
   204  102  104 am   BACKBONE|DICT|INTERRES
   205  104  105 1    
   206  104  225 1    
   207  105  106 1    
   208  105  107 1    
   209  105  226 1    
   210  106  227 1    
   211  106  228 1    
   212  106  229 1    
   213  107  108 2    
   214  107  109 am   BACKBONE|DICT|INTERRES
   215  109  110 1    
   216  109  230 1    
   217  110  111 1    
   218  110  112 1    
   219  110  231 1    
   220  111  232 1    
   221  111  233 1    
   222  111  234 1    
   223  112  113 2    
   224  112  114 am   BACKBONE|DICT|INTERRES
   225  114  115 1    
   226  114  235 1    
   227  115  116 1    
   228  115  117 1    
   229  115  236 1    
   230  116  237 1    
   231  116  238 1    
   232  116  239 1    
   233  117  118 2    
   234  117  119 am   BACKBONE|DICT|INTERRES
   235  119  120 1    
   236  119  240 1    
   237  120  121 1    
   238  120  124 1    
   239  120  241 1    
   240  121  122 am   BACKBONE|DICT|INTERRES
   241  121  123 2    
   242  122  242 1    
   243  122  243 1    
   244  124  125 1    
   245  124  244 1    
   246  124  245 1    
   247  125  126 1    
   248  126  246 1    
   249  126  247 1    
@<TRIPOS>SUBSTRUCTURE
     1 UNK         1 GROUP             0       ****    0 ROOT    
