@<TRIPOS>MOLECULE
3R540
247   249    1
SMALL
USER_CHARGES


@<TRIPOS>ATOM
      1 CA          3.6738  -20.4838  -50.2502 C.3       0 UNK        -0.1800 
      2 C           3.7562  -18.9647  -50.1977 C.2       0 UNK         0.5000 
      3 O           4.8426  -18.4103  -50.3616 O.2       0 UNK        -0.5000 
      4 N           2.6115  -18.3006  -49.9847 N.am      1 UNK        -0.5000 
      5 CA          2.4343  -16.8404  -49.9914 C.3       1 UNK         0.1400 
      6 C6          2.7172  -16.1811  -51.3760 C.3       23 UNK        -0.0398 
      7 S7          1.7920  -16.8954  -52.7818 S.3       23 UNK        -0.2404 
      8 C8          0.5160  -15.6295  -53.0890 C.3       23 UNK        -0.0205 
      9 C9         -0.7001  -15.8748  -52.2138 C.ar      23 UNK        -0.0193 
     10 C10        -1.8002  -16.5696  -52.7198 C.ar      23 UNK        -0.1150 
     11 C11        -2.8821  -16.8906  -51.8949 C.ar      23 UNK        -0.0193 
     12 C12        -2.8600  -16.4950  -50.5530 C.ar      23 UNK        -0.1150 
     13 C13        -1.7724  -15.7775  -50.0430 C.ar      23 UNK        -0.0193 
     14 C14        -0.7101  -15.4477  -50.8860 C.ar      23 UNK        -0.1150 
     15 C15        -1.7163  -15.3713  -48.5794 C.3       23 UNK        -0.0205 
     16 S16        -0.6524  -16.4972  -47.6197 S.3       23 UNK        -0.2404 
     17 C17        -1.7561  -17.9329  -47.4071 C.3       23 UNK        -0.0398 
     18 CA         -1.0733  -19.2877  -47.7076 C.3       11 UNK         0.1400 
     19 N           0.1247  -19.5355  -46.8970 N.am      11 UNK        -0.5000 
     20 C           0.9660  -20.5565  -47.1148 C.2       10 UNK         0.5000 
     21 O           0.9005  -21.2801  -48.1063 O.2       10 UNK        -0.5000 
     22 CA          2.0181  -20.8655  -46.0355 C.3       10 UNK         0.1400 
     23 CB          3.3866  -20.2762  -46.3980 C.3       10 UNK        -0.1800 
     24 N           1.5952  -20.4082  -44.7097 N.am      10 UNK        -0.5000 
     25 C           0.7268  -21.0970  -43.9541 C.2       9 UNK         0.5000 
     26 O           0.2182  -22.1582  -44.3126 O.2       9 UNK        -0.5000 
     27 CA          0.3161  -20.5004  -42.5968 C.3       9 UNK         0.1400 
     28 CB          1.2825  -20.9444  -41.4900 C.3       9 UNK        -0.1800 
     29 N           0.1811  -19.0433  -42.5949 N.am      9 UNK        -0.5000 
     30 C          -0.6995  -18.3677  -43.3458 C.2       8 UNK         0.5000 
     31 O          -1.4118  -18.8975  -44.2004 O.2       8 UNK        -0.5000 
     32 CA         -0.8025  -16.8587  -43.0603 C.3       8 UNK         0.1400 
     33 CB         -1.8950  -16.1378  -43.8758 C.3       8 UNK        -0.1800 
     34 N          -0.9633  -16.5946  -41.6261 N.am      8 UNK        -0.5000 
     35 C          -2.0089  -16.9153  -40.8483 C.2       7 UNK         0.5000 
     36 O          -3.0167  -17.5001  -41.2486 O.2       7 UNK        -0.5000 
     37 CA         -1.9028  -16.4780  -39.3730 C.3       7 UNK         0.1400 
     38 CB         -2.9739  -17.1153  -38.4619 C.3       7 UNK        -0.1800 
     39 N          -0.5553  -16.6584  -38.8240 N.am      7 UNK        -0.5000 
     40 C           0.0920  -17.8137  -38.6037 C.2       6 UNK         0.5000 
     41 O          -0.3967  -18.9218  -38.8245 O.2       6 UNK        -0.5000 
     42 CA          1.5303  -17.7104  -38.0516 C.3       6 UNK         0.1400 
     43 CB          2.4335  -18.8414  -38.5732 C.3       6 UNK        -0.1800 
     44 N           2.1406  -16.4280  -38.4027 N.am      6 UNK        -0.5000 
     45 C           2.2744  -15.3734  -37.5873 C.2       5 UNK         0.5000 
     46 O           1.9474  -15.3824  -36.4005 O.2       5 UNK        -0.5000 
     47 CA          2.8439  -14.0778  -38.2037 C.3       5 UNK         0.1400 
     48 CB          4.3290  -13.9218  -37.8428 C.3       5 UNK        -0.1800 
     49 N           2.7017  -14.0019  -39.6609 N.am      5 UNK        -0.5000 
     50 C           1.5394  -13.9151  -40.3237 C.2       4 UNK         0.5000 
     51 O           0.4390  -13.8685  -39.7742 O.2       4 UNK        -0.5000 
     52 CA          1.6197  -13.9661  -41.8620 C.3       4 UNK         0.1400 
     53 CB          1.8208  -12.5576  -42.4389 C.3       4 UNK        -0.1800 
     54 N           2.6764  -14.8509  -42.3665 N.am      4 UNK        -0.5000 
     55 C           2.8006  -16.1595  -42.0996 C.2       3 UNK         0.5000 
     56 O           2.0101  -16.7895  -41.3933 O.2       3 UNK        -0.5000 
     57 CA          4.0238  -16.8597  -42.7175 C.3       3 UNK         0.1400 
     58 CB          4.0010  -18.3915  -42.5548 C.3       3 UNK        -0.1800 
     59 N           4.2459  -16.4824  -44.1157 N.am      3 UNK        -0.5000 
     60 C           3.4722  -16.7557  -45.1767 C.2       2 UNK         0.5000 
     61 O           2.3945  -17.3574  -45.1219 O.2       2 UNK        -0.5000 
     62 CA          4.0464  -16.2973  -46.5289 C.3       2 UNK         0.1400 
     63 CB          5.4721  -16.8516  -46.7530 C.3       2 UNK        -0.1800 
     64 N           3.1922  -16.7058  -47.6434 N.am      2 UNK        -0.5000 
     65 C           3.2288  -16.1439  -48.8588 C.2       1 UNK         0.5000 
     66 O           3.8894  -15.1319  -49.1056 O.2       1 UNK        -0.5000 
     67 C          -2.0883  -20.4339  -47.5190 C.2       11 UNK         0.5000 
     68 O          -2.6164  -20.9547  -48.5004 O.2       11 UNK        -0.5000 
     69 N          -2.3207  -20.8054  -46.2525 N.am      12 UNK        -0.5000 
     70 CA         -3.2523  -21.8508  -45.8433 C.3       12 UNK         0.1400 
     71 CB         -3.4604  -21.7768  -44.3225 C.3       12 UNK        -0.1800 
     72 C          -2.8153  -23.2628  -46.2697 C.2       12 UNK         0.5000 
     73 O          -3.6289  -23.9971  -46.8293 O.2       12 UNK        -0.5000 
     74 N          -1.5605  -23.6280  -45.9753 N.am      13 UNK        -0.5000 
     75 CA         -1.0397  -24.9785  -46.1757 C.3       13 UNK         0.1400 
     76 CB         -0.0480  -25.3243  -45.0512 C.3       13 UNK        -0.1800 
     77 C          -0.3958  -25.1568  -47.5585 C.2       13 UNK         0.5000 
     78 O          -0.8735  -25.9738  -48.3453 O.2       13 UNK        -0.5000 
     79 N           0.6960  -24.4231  -47.8170 N.am      14 UNK        -0.5000 
     80 CA          1.5641  -24.6282  -48.9799 C.3       14 UNK         0.1400 
     81 CB          2.9269  -23.9565  -48.7463 C.3       14 UNK        -0.1800 
     82 C           0.9260  -24.1739  -50.3029 C.2       14 UNK         0.5000 
     83 O           0.9682  -24.9217  -51.2808 O.2       14 UNK        -0.5000 
     84 N           0.3216  -22.9782  -50.3061 N.am      15 UNK        -0.5000 
     85 CA         -0.4422  -22.4584  -51.4450 C.3       15 UNK         0.1400 
     86 CB         -0.4875  -20.9248  -51.3809 C.3       15 UNK        -0.1800 
     87 C          -1.8608  -23.0624  -51.5289 C.2       15 UNK         0.5000 
     88 O          -2.4739  -23.0026  -52.5922 O.2       15 UNK        -0.5000 
     89 N          -2.3336  -23.6572  -50.4227 N.am      16 UNK        -0.5000 
     90 CA         -3.5936  -24.3928  -50.2536 C.3       16 UNK         0.1400 
     91 CB         -3.6790  -25.5839  -51.2319 C.3       16 UNK        -0.1800 
     92 C          -4.8680  -23.5192  -50.2732 C.2       16 UNK         0.5000 
     93 O          -5.9687  -24.0704  -50.3444 O.2       16 UNK        -0.5000 
     94 N          -4.7061  -22.1920  -50.1672 N.am      17 UNK        -0.5000 
     95 CA         -5.7453  -21.1574  -50.1442 C.3       17 UNK         0.1400 
     96 CB         -6.4887  -21.1945  -48.7906 C.3       17 UNK        -0.1800 
     97 C          -6.6924  -21.1928  -51.3695 C.2       17 UNK         0.5000 
     98 O          -6.2901  -21.6351  -52.4455 O.2       17 UNK        -0.5000 
     99 N          -7.9288  -20.7038  -51.1855 N.am      18 UNK        -0.5000 
    100 CA        -9.0233  -20.6640  -52.1633 C.3       18 UNK         0.1400 
    101 CB        -9.5304  -22.0866  -52.4815 C.3       18 UNK        -0.1800 
    102 C         -8.7140  -19.8127  -53.4151 C.2       18 UNK         0.5000 
    103 O         -9.0459  -20.2067  -54.5355 O.2       18 UNK        -0.5000 
    104 N         -8.1163  -18.6342  -53.1786 N.am      19 UNK        -0.5000 
    105 CA        -7.8633  -17.5476  -54.1316 C.3       19 UNK         0.1400 
    106 CB        -9.1866  -16.8240  -54.4661 C.3       19 UNK        -0.1800 
    107 C         -7.0805  -18.0055  -55.3790 C.2       19 UNK         0.5000 
    108 O         -5.8716  -18.2132  -55.2885 O.2       19 UNK        -0.5000 
    109 N         -7.7735  -18.1694  -56.5147 N.am      20 UNK        -0.5000 
    110 CA        -7.2161  -18.6022  -57.7993 C.3       20 UNK         0.1400 
    111 CB        -8.3297  -18.5883  -58.8571 C.3       20 UNK        -0.1800 
    112 C         -6.5292  -19.9818  -57.7574 C.2       20 UNK         0.5000 
    113 O         -5.6153  -20.2249  -58.5476 O.2       20 UNK        -0.5000 
    114 N         -6.9387  -20.8422  -56.8134 N.am      21 UNK        -0.5000 
    115 CA        -6.3282  -22.1479  -56.5577 C.3       21 UNK         0.1400 
    116 CB        -7.2248  -22.9489  -55.6064 C.3       21 UNK        -0.1800 
    117 C         -4.8762  -22.0749  -56.0349 C.2       21 UNK         0.5000 
    118 O         -4.1633  -23.0742  -56.1410 O.2       21 UNK        -0.5000 
    119 N         -4.4400  -20.9044  -55.5425 N.am      22 UNK        -0.5000 
    120 CA        -3.0270  -20.6113  -55.2480 C.3       22 UNK         0.1400 
    121 C         -2.1228  -20.5085  -56.5151 C.2       22 UNK         0.5000 
    122 N         -2.6619  -20.3915  -57.7249 N.am      22 UNK        -0.7600 
    123 O         -0.9009  -20.5383  -56.3983 O.2       22 UNK        -0.5000 
    124 C124       -2.8456  -19.3429  -54.3740 C.3       23 UNK        -0.0398 
    125 S125       -3.6927  -19.4130  -52.7578 S.3       23 UNK        -0.2404 
    126 C126       -4.0738  -17.6559  -52.4549 C.3       23 UNK        -0.0205 
    127 H127        2.6718  -20.8448  -50.0226 H         1 UNK         0.0600 
    128 H128        4.3690  -20.9266  -49.5379 H         1 UNK         0.0600 
    129 H129        3.9392  -20.8368  -51.2465 H         1 UNK         0.0600 
    130 H130        1.7616  -18.8308  -49.8608 H         1 UNK         0.3000 
    131 H131        1.3857  -16.6826  -49.7525 H         1 UNK         0.0600 
    132 H132        2.5111  -15.1109  -51.3320 H         1 UNK         0.0800 
    133 H133        3.7781  -16.2607  -51.6181 H         1 UNK         0.0800 
    134 H134        0.9126  -14.6268  -52.9247 H         1 UNK         0.0800 
    135 H135        0.2319  -15.6713  -54.1416 H         1 UNK         0.0800 
    136 H136       -1.8017  -16.8757  -53.7548 H         1 UNK         0.1150 
    137 H137       -3.6889  -16.7461  -49.9068 H         1 UNK         0.1150 
    138 H138        0.1302  -14.8932  -50.4938 H         1 UNK         0.1150 
    139 H139       -1.3179  -14.3588  -48.4998 H         1 UNK         0.0800 
    140 H140       -2.7159  -15.3387  -48.1431 H         1 UNK         0.0800 
    141 H141       -2.1523  -17.9067  -46.3935 H         1 UNK         0.0800 
    142 H142       -2.6242  -17.8150  -48.0557 H         1 UNK         0.0800 
    143 H143       -0.7678  -19.2747  -48.7547 H         1 UNK         0.0600 
    144 H144        0.2213  -18.9888  -46.0529 H         1 UNK         0.3000 
    145 H145        2.1412  -21.9502  -45.9998 H         1 UNK         0.0600 
    146 H146        4.0806  -20.3222  -45.5585 H         1 UNK         0.0600 
    147 H147        3.8357  -20.8336  -47.2193 H         1 UNK         0.0600 
    148 H148        3.3100  -19.2419  -46.7193 H         1 UNK         0.0600 
    149 H149        1.9296  -19.5039  -44.4019 H         1 UNK         0.3000 
    150 H150       -0.6671  -20.9095  -42.3553 H         1 UNK         0.0600 
    151 H151        1.3733  -22.0311  -41.4660 H         1 UNK         0.0600 
    152 H152        0.9247  -20.6320  -40.5096 H         1 UNK         0.0600 
    153 H153        2.2828  -20.5379  -41.6305 H         1 UNK         0.0600 
    154 H154        0.7379  -18.5258  -41.9259 H         1 UNK         0.3000 
    155 H155        0.1526  -16.4286  -43.3604 H         1 UNK         0.0600 
    156 H156       -1.9860  -15.0935  -43.5774 H         1 UNK         0.0600 
    157 H157       -2.8724  -16.6071  -43.7602 H         1 UNK         0.0600 
    158 H158       -1.6522  -16.1446  -44.9357 H         1 UNK         0.0600 
    159 H159       -0.1503  -16.2046  -41.1688 H         1 UNK         0.3000 
    160 H160       -2.0807  -15.4016  -39.3717 H         1 UNK         0.0600 
    161 H161       -2.9199  -18.2041  -38.4674 H         1 UNK         0.0600 
    162 H162       -3.9768  -16.8392  -38.7893 H         1 UNK         0.0600 
    163 H163       -2.8663  -16.7782  -37.4310 H         1 UNK         0.0600 
    164 H164       -0.0519  -15.7991  -38.6442 H         1 UNK         0.3000 
    165 H165        1.4614  -17.8115  -36.9669 H         1 UNK         0.0600 
    166 H166        2.4888  -18.8378  -39.6610 H         1 UNK         0.0600 
    167 H167        3.4479  -18.7466  -38.1858 H         1 UNK         0.0600 
    168 H168        2.0605  -19.8188  -38.2650 H         1 UNK         0.0600 
    169 H169        2.3846  -16.3229  -39.3801 H         1 UNK         0.3000 
    170 H170        2.2947  -13.2405  -37.7681 H         1 UNK         0.0600 
    171 H171        4.4732  -13.9415  -36.7616 H         1 UNK         0.0600 
    172 H172        4.9329  -14.7240  -38.2689 H         1 UNK         0.0600 
    173 H173        4.7258  -12.9729  -38.2040 H         1 UNK         0.0600 
    174 H174        3.5549  -14.0430  -40.1988 H         1 UNK         0.3000 
    175 H175        0.6643  -14.3421  -42.2294 H         1 UNK         0.0600 
    176 H176        2.7787  -12.1311  -42.1383 H         1 UNK         0.0600 
    177 H177        1.7848  -12.5690  -43.5284 H         1 UNK         0.0600 
    178 H178        1.0375  -11.8797  -42.0969 H         1 UNK         0.0600 
    179 H179        3.3664  -14.4230  -42.9666 H         1 UNK         0.3000 
    180 H180        4.8881  -16.4920  -42.1627 H         1 UNK         0.0600 
    181 H181        3.1183  -18.8303  -43.0140 H         1 UNK         0.0600 
    182 H182        4.0001  -18.6719  -41.5016 H         1 UNK         0.0600 
    183 H183        4.8783  -18.8508  -43.0101 H         1 UNK         0.0600 
    184 H184        5.1087  -15.9847  -44.2861 H         1 UNK         0.3000 
    185 H185        4.0867  -15.2066  -46.4975 H         1 UNK         0.0600 
    186 H186        5.8816  -16.5289  -47.7103 H         1 UNK         0.0600 
    187 H187        6.1678  -16.5084  -45.9873 H         1 UNK         0.0600 
    188 H188        5.4827  -17.9420  -46.7429 H         1 UNK         0.0600 
    189 H189        2.5685  -17.4778  -47.4533 H         1 UNK         0.3000 
    190 H190       -1.8661  -20.2877  -45.5057 H         1 UNK         0.3000 
    191 H191       -4.2116  -21.6448  -46.3196 H         1 UNK         0.0600 
    192 H192       -3.8456  -20.8013  -44.0248 H         1 UNK         0.0600 
    193 H193       -4.1788  -22.5268  -43.9894 H         1 UNK         0.0600 
    194 H194       -2.5312  -21.9470  -43.7782 H         1 UNK         0.0600 
    195 H195       -0.9569  -22.9776  -45.4767 H         1 UNK         0.3000 
    196 H196       -1.8609  -25.6952  -46.1026 H         1 UNK         0.0600 
    197 H197        0.3257  -26.3430  -45.1616 H         1 UNK         0.0600 
    198 H198       -0.5263  -25.2583  -44.0738 H         1 UNK         0.0600 
    199 H199        0.8155  -24.6590  -45.0423 H         1 UNK         0.0600 
    200 H200        0.9925  -23.7327  -47.1446 H         1 UNK         0.3000 
    201 H201        1.7473  -25.7016  -49.0668 H         1 UNK         0.0600 
    202 H202        3.4228  -24.3690  -47.8676 H         1 UNK         0.0600 
    203 H203        2.8367  -22.8817  -48.6028 H         1 UNK         0.0600 
    204 H204        3.5902  -24.1159  -49.5973 H         1 UNK         0.0600 
    205 H205        0.3791  -22.3947  -49.4732 H         1 UNK         0.3000 
    206 H206        0.0820  -22.7289  -52.3641 H         1 UNK         0.0600 
    207 H207        0.5035  -20.4979  -51.2299 H         1 UNK         0.0600 
    208 H208       -0.8763  -20.5154  -52.3126 H         1 UNK         0.0600 
    209 H209       -1.1360  -20.5744  -50.5818 H         1 UNK         0.0600 
    210 H210       -1.7421  -23.6298  -49.6050 H         1 UNK         0.3000 
    211 H211       -3.5440  -24.8199  -49.2530 H         1 UNK         0.0600 
    212 H212       -3.8281  -25.2551  -52.2606 H         1 UNK         0.0600 
    213 H213       -4.5125  -26.2394  -50.9775 H         1 UNK         0.0600 
    214 H214       -2.7719  -26.1877  -51.1975 H         1 UNK         0.0600 
    215 H215       -3.7595  -21.8482  -50.0565 H         1 UNK         0.3000 
    216 H216       -5.2138  -20.2068  -50.2007 H         1 UNK         0.0600 
    217 H217       -5.7832  -21.2021  -47.9613 H         1 UNK         0.0600 
    218 H218       -7.1173  -22.0811  -48.6988 H         1 UNK         0.0600 
    219 H219       -7.1217  -20.3176  -48.6529 H         1 UNK         0.0600 
    220 H220       -8.1605  -20.3558  -50.2659 H         1 UNK         0.3000 
    221 H221       -9.8450  -20.1454  -51.6673 H         1 UNK         0.0600 
    222 H222       -8.7563  -22.7105  -52.9248 H         1 UNK         0.0600 
    223 H223       -9.8757  -22.5870  -51.5769 H         1 UNK         0.0600 
    224 H224      -10.3713  -22.0617  -53.1755 H         1 UNK         0.0600 
    225 H225       -7.8444  -18.4413  -52.2257 H         1 UNK         0.3000 
    226 H226       -7.2196  -16.8308  -53.6197 H         1 UNK         0.0600 
    227 H227       -9.0215  -16.0025  -55.1646 H         1 UNK         0.0600 
    228 H228       -9.9259  -17.4940  -54.9065 H         1 UNK         0.0600 
    229 H229       -9.6302  -16.3943  -53.5679 H         1 UNK         0.0600 
    230 H230       -8.7708  -18.0151  -56.4875 H         1 UNK         0.3000 
    231 H231       -6.4577  -17.8725  -58.0898 H         1 UNK         0.0600 
    232 H232       -7.9442  -18.8807  -59.8348 H         1 UNK         0.0600 
    233 H233       -8.7609  -17.5928  -58.9642 H         1 UNK         0.0600 
    234 H234       -9.1346  -19.2786  -58.6014 H         1 UNK         0.0600 
    235 H235       -7.6757  -20.5543  -56.1786 H         1 UNK         0.3000 
    236 H236       -6.2936  -22.6840  -57.5084 H         1 UNK         0.0600 
    237 H237       -7.3227  -22.4419  -54.6500 H         1 UNK         0.0600 
    238 H238       -6.8118  -23.9397  -55.4137 H         1 UNK         0.0600 
    239 H239       -8.2245  -23.0832  -56.0195 H         1 UNK         0.0600 
    240 H240       -5.0808  -20.1227  -55.4625 H         1 UNK         0.3000 
    241 H241       -2.6384  -21.4545  -54.6766 H         1 UNK         0.0600 
    242 H242       -2.0569  -20.3303  -58.5283 H         1 UNK         0.3800 
    243 H243       -3.6665  -20.3675  -57.8562 H         1 UNK         0.3800 
    244 H244       -3.1933  -18.4681  -54.9249 H         1 UNK         0.0800 
    245 H245       -1.7863  -19.1774  -54.1713 H         1 UNK         0.0800 
    246 H246       -4.9134  -17.6048  -51.7607 H         1 UNK         0.0800 
    247 H247       -4.4156  -17.1776  -53.3726 H         1 UNK         0.0800 
@<TRIPOS>BOND
     1    1    2 1    
     2    1  127 1    
     3    1  128 1    
     4    1  129 1    
     5    2    3 2    
     6    2    4 am   BACKBONE|DICT|INTERRES
     7    4    5 1    
     8    4  130 1    
     9    5    6 1    
    10    5   65 1    
    11    5  131 1    
    12    6    7 1    
    13    6  132 1    
    14    6  133 1    
    15    7    8 1    
    16    8    9 1    
    17    8  134 1    
    18    8  135 1    
    19    9   10 ar   
    20    9   14 ar   
    21   10   11 ar   
    22   10  136 1    
    23   11   12 ar   
    24   11  126 1    
    25   12   13 ar   
    26   12  137 1    
    27   13   14 ar   
    28   13   15 1    
    29   14  138 1    
    30   15   16 1    
    31   15  139 1    
    32   15  140 1    
    33   16   17 1    
    34   17   18 1    
    35   17  141 1    
    36   17  142 1    
    37   18   19 1    
    38   18   67 1    
    39   18  143 1    
    40   19   20 am   BACKBONE|DICT|INTERRES
    41   19  144 1    
    42   20   21 2    
    43   20   22 1    
    44   22   23 1    
    45   22   24 1    
    46   22  145 1    
    47   23  146 1    
    48   23  147 1    
    49   23  148 1    
    50   24   25 am   BACKBONE|DICT|INTERRES
    51   24  149 1    
    52   25   26 2    
    53   25   27 1    
    54   27   28 1    
    55   27   29 1    
    56   27  150 1    
    57   28  151 1    
    58   28  152 1    
    59   28  153 1    
    60   29   30 am   BACKBONE|DICT|INTERRES
    61   29  154 1    
    62   30   31 2    
    63   30   32 1    
    64   32   33 1    
    65   32   34 1    
    66   32  155 1    
    67   33  156 1    
    68   33  157 1    
    69   33  158 1    
    70   34   35 am   BACKBONE|DICT|INTERRES
    71   34  159 1    
    72   35   36 2    
    73   35   37 1    
    74   37   38 1    
    75   37   39 1    
    76   37  160 1    
    77   38  161 1    
    78   38  162 1    
    79   38  163 1    
    80   39   40 am   BACKBONE|DICT|INTERRES
    81   39  164 1    
    82   40   41 2    
    83   40   42 1    
    84   42   43 1    
    85   42   44 1    
    86   42  165 1    
    87   43  166 1    
    88   43  167 1    
    89   43  168 1    
    90   44   45 am   BACKBONE|DICT|INTERRES
    91   44  169 1    
    92   45   46 2    
    93   45   47 1    
    94   47   48 1    
    95   47   49 1    
    96   47  170 1    
    97   48  171 1    
    98   48  172 1    
    99   48  173 1    
   100   49   50 am   BACKBONE|DICT|INTERRES
   101   49  174 1    
   102   50   51 2    
   103   50   52 1    
   104   52   53 1    
   105   52   54 1    
   106   52  175 1    
   107   53  176 1    
   108   53  177 1    
   109   53  178 1    
   110   54   55 am   BACKBONE|DICT|INTERRES
   111   54  179 1    
   112   55   56 2    
   113   55   57 1    
   114   57   58 1    
   115   57   59 1    
   116   57  180 1    
   117   58  181 1    
   118   58  182 1    
   119   58  183 1    
   120   59   60 am   BACKBONE|DICT|INTERRES
   121   59  184 1    
   122   60   61 2    
   123   60   62 1    
   124   62   63 1    
   125   62   64 1    
   126   62  185 1    
   127   63  186 1    
   128   63  187 1    
   129   63  188 1    
   130   64   65 am   BACKBONE|DICT|INTERRES
   131   64  189 1    
   132   65   66 2    
   133   67   68 2    
   134   67   69 am   BACKBONE|DICT|INTERRES
   135   69   70 1    
   136   69  190 1    
   137   70   71 1    
   138   70   72 1    
   139   70  191 1    
   140   71  192 1    
   141   71  193 1    
   142   71  194 1    
   143   72   73 2    
   144   72   74 am   BACKBONE|DICT|INTERRES
   145   74   75 1    
   146   74  195 1    
   147   75   76 1    
   148   75   77 1    
   149   75  196 1    
   150   76  197 1    
   151   76  198 1    
   152   76  199 1    
   153   77   78 2    
   154   77   79 am   BACKBONE|DICT|INTERRES
   155   79   80 1    
   156   79  200 1    
   157   80   81 1    
   158   80   82 1    
   159   80  201 1    
   160   81  202 1    
   161   81  203 1    
   162   81  204 1    
   163   82   83 2    
   164   82   84 am   BACKBONE|DICT|INTERRES
   165   84   85 1    
   166   84  205 1    
   167   85   86 1    
   168   85   87 1    
   169   85  206 1    
   170   86  207 1    
   171   86  208 1    
   172   86  209 1    
   173   87   88 2    
   174   87   89 am   BACKBONE|DICT|INTERRES
   175   89   90 1    
   176   89  210 1    
   177   90   91 1    
   178   90   92 1    
   179   90  211 1    
   180   91  212 1    
   181   91  213 1    
   182   91  214 1    
   183   92   93 2    
   184   92   94 am   BACKBONE|DICT|INTERRES
   185   94   95 1    
   186   94  215 1    
   187   95   96 1    
   188   95   97 1    
   189   95  216 1    
   190   96  217 1    
   191   96  218 1    
   192   96  219 1    
   193   97   98 2    
   194   97   99 am   BACKBONE|DICT|INTERRES
   195   99  100 1    
   196   99  220 1    
   197  100  101 1    
   198  100  102 1    
   199  100  221 1    
   200  101  222 1    
   201  101  223 1    
   202  101  224 1    
   203  102  103 2    
   204  102  104 am   BACKBONE|DICT|INTERRES
   205  104  105 1    
   206  104  225 1    
   207  105  106 1    
   208  105  107 1    
   209  105  226 1    
   210  106  227 1    
   211  106  228 1    
   212  106  229 1    
   213  107  108 2    
   214  107  109 am   BACKBONE|DICT|INTERRES
   215  109  110 1    
   216  109  230 1    
   217  110  111 1    
   218  110  112 1    
   219  110  231 1    
   220  111  232 1    
   221  111  233 1    
   222  111  234 1    
   223  112  113 2    
   224  112  114 am   BACKBONE|DICT|INTERRES
   225  114  115 1    
   226  114  235 1    
   227  115  116 1    
   228  115  117 1    
   229  115  236 1    
   230  116  237 1    
   231  116  238 1    
   232  116  239 1    
   233  117  118 2    
   234  117  119 am   BACKBONE|DICT|INTERRES
   235  119  120 1    
   236  119  240 1    
   237  120  121 1    
   238  120  124 1    
   239  120  241 1    
   240  121  122 am   BACKBONE|DICT|INTERRES
   241  121  123 2    
   242  122  242 1    
   243  122  243 1    
   244  124  125 1    
   245  124  244 1    
   246  124  245 1    
   247  125  126 1    
   248  126  246 1    
   249  126  247 1    
@<TRIPOS>SUBSTRUCTURE
     1 UNK         1 GROUP             0       ****    0 ROOT    
