@<TRIPOS>MOLECULE
3R540
247   249    1
SMALL
USER_CHARGES


@<TRIPOS>ATOM
      1 CA          5.2050  -17.8645  -51.6695 C.3       0 UNK        -0.1800 
      2 C           4.0929  -18.1025  -50.6584 C.2       0 UNK         0.5000 
      3 O           3.9162  -19.2290  -50.1968 O.2       0 UNK        -0.5000 
      4 N           3.3428  -17.0471  -50.3173 N.am      1 UNK        -0.5000 
      5 CA          2.2080  -17.0906  -49.3851 C.3       1 UNK         0.1400 
      6 C6          1.3168  -15.8230  -49.4705 C.3       23 UNK        -0.0398 
      7 S7          0.8652  -15.3466  -51.1718 S.3       23 UNK        -0.2404 
      8 C8         -0.5623  -14.2600  -50.8764 C.3       23 UNK        -0.0205 
      9 C9         -1.8778  -15.0183  -50.9560 C.ar      23 UNK        -0.0193 
     10 C10        -2.3922  -15.3747  -52.2064 C.ar      23 UNK        -0.1150 
     11 C11        -3.6213  -16.0299  -52.3119 C.ar      23 UNK        -0.0193 
     12 C12        -4.3399  -16.3197  -51.1481 C.ar      23 UNK        -0.1150 
     13 C13        -3.8360  -15.9755  -49.8904 C.ar      23 UNK        -0.0193 
     14 C14        -2.5981  -15.3313  -49.7980 C.ar      23 UNK        -0.1150 
     15 C15        -4.6607  -16.2664  -48.6456 C.3       23 UNK        -0.0205 
     16 S16        -4.5562  -18.0173  -48.1534 S.3       23 UNK        -0.2404 
     17 C17        -3.5065  -17.9640  -46.6566 C.3       23 UNK        -0.0398 
     18 CA         -2.3355  -18.9767  -46.6599 C.3       11 UNK         0.1400 
     19 N          -1.4630  -18.7755  -45.5010 N.am      11 UNK        -0.5000 
     20 C          -0.3290  -19.4495  -45.2623 C.2       10 UNK         0.5000 
     21 O           0.1253  -20.3154  -46.0051 O.2       10 UNK        -0.5000 
     22 CA          0.3715  -19.1684  -43.9263 C.3       10 UNK         0.1400 
     23 CB          1.0366  -17.7848  -43.9240 C.3       10 UNK        -0.1800 
     24 N          -0.5540  -19.2606  -42.8026 N.am      10 UNK        -0.5000 
     25 C          -1.2222  -20.3613  -42.4344 C.2       9 UNK         0.5000 
     26 O          -1.1155  -21.4518  -42.9912 O.2       9 UNK        -0.5000 
     27 CA         -2.2095  -20.2016  -41.2685 C.3       9 UNK         0.1400 
     28 CB         -1.4789  -20.3109  -39.9219 C.3       9 UNK        -0.1800 
     29 N          -2.9303  -18.9309  -41.3382 N.am      9 UNK        -0.5000 
     30 C          -3.8243  -18.6183  -42.2872 C.2       8 UNK         0.5000 
     31 O          -4.1666  -19.3831  -43.1906 O.2       8 UNK        -0.5000 
     32 CA         -4.3899  -17.1879  -42.2398 C.3       8 UNK         0.1400 
     33 CB         -5.4705  -17.0615  -41.1553 C.3       8 UNK        -0.1800 
     34 N          -3.3463  -16.1860  -42.0107 N.am      8 UNK        -0.5000 
     35 C          -2.3793  -15.8979  -42.8924 C.2       7 UNK         0.5000 
     36 O          -2.2799  -16.4360  -43.9953 O.2       7 UNK        -0.5000 
     37 CA         -1.3290  -14.8562  -42.4636 C.3       7 UNK         0.1400 
     38 CB         -1.8276  -13.4361  -42.7698 C.3       7 UNK        -0.1800 
     39 N          -0.9195  -14.9335  -41.0566 N.am      7 UNK        -0.5000 
     40 C          -0.3819  -16.0103  -40.4691 C.2       6 UNK         0.5000 
     41 O          -0.3044  -17.1176  -41.0010 O.2       6 UNK        -0.5000 
     42 CA          0.1616  -15.8346  -39.0455 C.3       6 UNK         0.1400 
     43 CB         -0.6725  -16.6435  -38.0399 C.3       6 UNK        -0.1800 
     44 N           1.5488  -16.2944  -39.0046 N.am      6 UNK        -0.5000 
     45 C           2.6091  -15.5298  -39.2987 C.2       5 UNK         0.5000 
     46 O           2.5329  -14.3301  -39.5672 O.2       5 UNK        -0.5000 
     47 CA          3.9878  -16.2179  -39.2902 C.3       5 UNK         0.1400 
     48 CB          4.5625  -16.2561  -37.8655 C.3       5 UNK        -0.1800 
     49 N           3.9521  -17.5782  -39.8332 N.am      5 UNK        -0.5000 
     50 C           3.8588  -17.8636  -41.1381 C.2       4 UNK         0.5000 
     51 O           3.8143  -17.0073  -42.0265 O.2       4 UNK        -0.5000 
     52 CA          3.8096  -19.3549  -41.5096 C.3       4 UNK         0.1400 
     53 CB          2.5217  -20.0199  -40.9877 C.3       4 UNK        -0.1800 
     54 N           3.8892  -19.4800  -42.9629 N.am      4 UNK        -0.5000 
     55 C           4.3785  -20.5261  -43.6396 C.2       3 UNK         0.5000 
     56 O           4.7682  -21.5587  -43.0932 O.2       3 UNK        -0.5000 
     57 CA          4.4594  -20.4152  -45.1795 C.3       3 UNK         0.1400 
     58 CB          3.5507  -21.4492  -45.8602 C.3       3 UNK        -0.1800 
     59 N           4.1333  -19.0827  -45.6983 N.am      3 UNK        -0.5000 
     60 C           4.9726  -18.0407  -45.7040 C.2       2 UNK         0.5000 
     61 O           6.1364  -18.1129  -45.3059 O.2       2 UNK        -0.5000 
     62 CA          4.4136  -16.7015  -46.2330 C.3       2 UNK         0.1400 
     63 CB          5.4617  -15.5739  -46.2123 C.3       2 UNK        -0.1800 
     64 N           3.8614  -16.7928  -47.5865 N.am      2 UNK        -0.5000 
     65 C           2.6612  -17.2866  -47.9229 C.2       1 UNK         0.5000 
     66 O           1.9115  -17.8463  -47.1269 O.2       1 UNK        -0.5000 
     67 C          -2.8162  -20.4418  -46.7621 C.2       11 UNK         0.5000 
     68 O          -2.7299  -21.0276  -47.8417 O.2       11 UNK        -0.5000 
     69 N          -3.2549  -21.0239  -45.6357 N.am      12 UNK        -0.5000 
     70 CA         -3.6680  -22.4246  -45.5441 C.3       12 UNK         0.1400 
     71 CB         -4.2874  -22.6942  -44.1644 C.3       12 UNK        -0.1800 
     72 C          -2.5230  -23.4119  -45.8437 C.2       12 UNK         0.5000 
     73 O          -2.7031  -24.3134  -46.6629 O.2       12 UNK        -0.5000 
     74 N          -1.3616  -23.2087  -45.2061 N.am      13 UNK        -0.5000 
     75 CA         -0.1600  -24.0315  -45.3682 C.3       13 UNK         0.1400 
     76 CB          0.8756  -23.6400  -44.3029 C.3       13 UNK        -0.1800 
     77 C           0.4498  -23.9550  -46.7803 C.2       13 UNK         0.5000 
     78 O           0.9130  -24.9723  -47.2970 O.2       13 UNK        -0.5000 
     79 N           0.4115  -22.7639  -47.3905 N.am      14 UNK        -0.5000 
     80 CA          0.8592  -22.5083  -48.7595 C.3       14 UNK         0.1400 
     81 CB          1.1186  -21.0006  -48.9208 C.3       14 UNK        -0.1800 
     82 C          -0.1414  -22.9826  -49.8320 C.2       14 UNK         0.5000 
     83 O           0.1910  -22.9251  -51.0160 O.2       14 UNK        -0.5000 
     84 N          -1.3581  -23.3777  -49.4240 N.am      15 UNK        -0.5000 
     85 CA         -2.5114  -23.7061  -50.2714 C.3       15 UNK         0.1400 
     86 CB         -2.2662  -25.0126  -51.0536 C.3       15 UNK        -0.1800 
     87 C          -2.9087  -22.5238  -51.1797 C.2       15 UNK         0.5000 
     88 O          -3.1581  -22.7055  -52.3737 O.2       15 UNK        -0.5000 
     89 N          -2.9088  -21.3196  -50.5890 N.am      16 UNK        -0.5000 
     90 CA         -3.1078  -20.0156  -51.2233 C.3       16 UNK         0.1400 
     91 CB         -4.5398  -19.9247  -51.7841 C.3       16 UNK        -0.1800 
     92 C          -2.0185  -19.7197  -52.2758 C.2       16 UNK         0.5000 
     93 O          -2.3321  -19.2788  -53.3794 O.2       16 UNK        -0.5000 
     94 N          -0.7599  -20.0385  -51.9342 N.am      17 UNK        -0.5000 
     95 CA          0.4188  -20.0261  -52.8134 C.3       17 UNK         0.1400 
     96 CB          0.8222  -18.5842  -53.1762 C.3       17 UNK        -0.1800 
     97 C           0.2300  -20.9415  -54.0425 C.2       17 UNK         0.5000 
     98 O           0.5021  -20.5415  -55.1754 O.2       17 UNK        -0.5000 
     99 N          -0.2795  -22.1508  -53.7708 N.am      18 UNK        -0.5000 
    100 CA        -0.6620  -23.2150  -54.7024 C.3       18 UNK         0.1400 
    101 CB         0.5677  -23.7325  -55.4769 C.3       18 UNK        -0.1800 
    102 C         -1.8445  -22.8755  -55.6387 C.2       18 UNK         0.5000 
    103 O         -2.1162  -23.6527  -56.5558 O.2       18 UNK        -0.5000 
    104 N         -2.5483  -21.7571  -55.4043 N.am      19 UNK        -0.5000 
    105 CA        -3.7156  -21.3494  -56.1909 C.3       19 UNK         0.1400 
    106 CB        -3.9464  -19.8387  -56.0363 C.3       19 UNK        -0.1800 
    107 C         -4.9977  -22.1159  -55.8165 C.2       19 UNK         0.5000 
    108 O         -5.9278  -22.1344  -56.6233 O.2       19 UNK        -0.5000 
    109 N         -5.0327  -22.7134  -54.6129 N.am      20 UNK        -0.5000 
    110 CA        -6.1662  -23.4290  -54.0157 C.3       20 UNK         0.1400 
    111 CB        -6.4618  -24.7326  -54.7866 C.3       20 UNK        -0.1800 
    112 C         -7.3995  -22.5141  -53.8539 C.2       20 UNK         0.5000 
    113 O         -8.4791  -22.8275  -54.3578 O.2       20 UNK        -0.5000 
    114 N         -7.1761  -21.3918  -53.1537 N.am      21 UNK        -0.5000 
    115 CA        -8.0707  -20.2542  -52.9205 C.3       21 UNK         0.1400 
    116 CB        -9.4046  -20.6815  -52.2740 C.3       21 UNK        -0.1800 
    117 C         -8.2678  -19.4225  -54.2021 C.2       21 UNK         0.5000 
    118 O         -9.1154  -19.7505  -55.0340 O.2       21 UNK        -0.5000 
    119 N         -7.4711  -18.3532  -54.3334 N.am      22 UNK        -0.5000 
    120 CA        -7.5370  -17.3836  -55.4429 C.3       22 UNK         0.1400 
    121 C         -8.7908  -16.4557  -55.4485 C.2       22 UNK         0.5000 
    122 N         -9.5838  -16.3936  -54.3854 N.am      22 UNK        -0.7600 
    123 O         -9.0554  -15.7881  -56.4448 O.2       22 UNK        -0.5000 
    124 C124       -6.2224  -16.5680  -55.5829 C.3       23 UNK        -0.0398 
    125 S125       -5.7446  -15.6484  -54.0739 S.3       23 UNK        -0.2404 
    126 C126       -4.1563  -16.4431  -53.6774 C.3       23 UNK        -0.0205 
    127 H127        5.2456  -16.8233  -51.9906 H         1 UNK         0.0600 
    128 H128        5.0482  -18.4861  -52.5511 H         1 UNK         0.0600 
    129 H129        6.1698  -18.1247  -51.2342 H         1 UNK         0.0600 
    130 H130        3.5143  -16.1520  -50.7534 H         1 UNK         0.3000 
    131 H131        1.5915  -17.9516  -49.6534 H         1 UNK         0.0600 
    132 H132        1.8182  -14.9649  -49.0182 H         1 UNK         0.0800 
    133 H133        0.3998  -15.9789  -48.8986 H         1 UNK         0.0800 
    134 H134       -0.5611  -13.4729  -51.6319 H         1 UNK         0.0800 
    135 H135       -0.4587  -13.7532  -49.9156 H         1 UNK         0.0800 
    136 H136       -1.8294  -15.1399  -53.0991 H         1 UNK         0.1150 
    137 H137       -5.3004  -16.8095  -51.2196 H         1 UNK         0.1150 
    138 H138       -2.2082  -15.0528  -48.8290 H         1 UNK         0.1150 
    139 H139       -4.3707  -15.6086  -47.8255 H         1 UNK         0.0800 
    140 H140       -5.7061  -16.0318  -48.8519 H         1 UNK         0.0800 
    141 H141       -4.1445  -18.1214  -45.7852 H         1 UNK         0.0800 
    142 H142       -3.0986  -16.9589  -46.5469 H         1 UNK         0.0800 
    143 H143       -1.7264  -18.7768  -47.5442 H         1 UNK         0.0600 
    144 H144       -1.7558  -18.0645  -44.8359 H         1 UNK         0.3000 
    145 H145        1.1432  -19.9260  -43.7795 H         1 UNK         0.0600 
    146 H146        1.4000  -17.5186  -42.9339 H         1 UNK         0.0600 
    147 H147        1.8937  -17.7665  -44.5907 H         1 UNK         0.0600 
    148 H148        0.3547  -16.9998  -44.2480 H         1 UNK         0.0600 
    149 H149       -0.6588  -18.4219  -42.2360 H         1 UNK         0.3000 
    150 H150       -2.9396  -21.0114  -41.3300 H         1 UNK         0.0600 
    151 H151       -0.9888  -21.2805  -39.8251 H         1 UNK         0.0600 
    152 H152       -2.1708  -20.2106  -39.0856 H         1 UNK         0.0600 
    153 H153       -0.7089  -19.5466  -39.8167 H         1 UNK         0.0600 
    154 H154       -2.6608  -18.2204  -40.6743 H         1 UNK         0.3000 
    155 H155       -4.8536  -16.9817  -43.2070 H         1 UNK         0.0600 
    156 H156       -5.0640  -17.2250  -40.1565 H         1 UNK         0.0600 
    157 H157       -6.2653  -17.7925  -41.3103 H         1 UNK         0.0600 
    158 H158       -5.9314  -16.0737  -41.1724 H         1 UNK         0.0600 
    159 H159       -3.3545  -15.7020  -41.1250 H         1 UNK         0.3000 
    160 H160       -0.4362  -15.0335  -43.0660 H         1 UNK         0.0600 
    161 H161       -2.6939  -13.1731  -42.1615 H         1 UNK         0.0600 
    162 H162       -2.1203  -13.3415  -43.8166 H         1 UNK         0.0600 
    163 H163       -1.0492  -12.6956  -42.5846 H         1 UNK         0.0600 
    164 H164       -0.9537  -14.0676  -40.5382 H         1 UNK         0.3000 
    165 H165        0.1104  -14.7811  -38.7618 H         1 UNK         0.0600 
    166 H166       -0.3091  -16.4974  -37.0226 H         1 UNK         0.0600 
    167 H167       -1.7177  -16.3323  -38.0594 H         1 UNK         0.0600 
    168 H168       -0.6435  -17.7121  -38.2532 H         1 UNK         0.0600 
    169 H169        1.6904  -17.2817  -38.8532 H         1 UNK         0.3000 
    170 H170        4.6607  -15.6172  -39.9063 H         1 UNK         0.0600 
    171 H171        4.6206  -15.2528  -37.4413 H         1 UNK         0.0600 
    172 H172        3.9473  -16.8597  -37.1970 H         1 UNK         0.0600 
    173 H173        5.5714  -16.6691  -37.8584 H         1 UNK         0.0600 
    174 H174        3.9971  -18.3336  -39.1645 H         1 UNK         0.3000 
    175 H175        4.6789  -19.8420  -41.0630 H         1 UNK         0.0600 
    176 H176        1.6388  -19.4367  -41.2444 H         1 UNK         0.0600 
    177 H177        2.3915  -21.0236  -41.3928 H         1 UNK         0.0600 
    178 H178        2.5411  -20.1111  -39.9016 H         1 UNK         0.0600 
    179 H179        3.6641  -18.6291  -43.4609 H         1 UNK         0.3000 
    180 H180        5.4887  -20.6532  -45.4555 H         1 UNK         0.0600 
    181 H181        2.4996  -21.2301  -45.6863 H         1 UNK         0.0600 
    182 H182        3.7433  -22.4563  -45.4886 H         1 UNK         0.0600 
    183 H183        3.7159  -21.4671  -46.9373 H         1 UNK         0.0600 
    184 H184        3.2027  -18.9461  -46.0822 H         1 UNK         0.3000 
    185 H185        3.6111  -16.4055  -45.5547 H         1 UNK         0.0600 
    186 H186        5.8606  -15.4275  -45.2076 H         1 UNK         0.0600 
    187 H187        6.3019  -15.7925  -46.8726 H         1 UNK         0.0600 
    188 H188        5.0264  -14.6248  -46.5257 H         1 UNK         0.0600 
    189 H189        4.4271  -16.3974  -48.3231 H         1 UNK         0.3000 
    190 H190       -3.3079  -20.4762  -44.7838 H         1 UNK         0.3000 
    191 H191       -4.4444  -22.5859  -46.2949 H         1 UNK         0.0600 
    192 H192       -3.5742  -22.5214  -43.3586 H         1 UNK         0.0600 
    193 H193       -4.6287  -23.7270  -44.0848 H         1 UNK         0.0600 
    194 H194       -5.1502  -22.0515  -43.9882 H         1 UNK         0.0600 
    195 H195       -1.2984  -22.4524  -44.5272 H         1 UNK         0.3000 
    196 H196       -0.4446  -25.0712  -45.1938 H         1 UNK         0.0600 
    197 H197        1.8031  -24.2006  -44.4265 H         1 UNK         0.0600 
    198 H198        0.5019  -23.8454  -43.2998 H         1 UNK         0.0600 
    199 H199        1.1201  -22.5791  -44.3520 H         1 UNK         0.0600 
    200 H200        0.0771  -21.9547  -46.8699 H         1 UNK         0.3000 
    201 H201        1.7994  -23.0375  -48.9261 H         1 UNK         0.0600 
    202 H202        1.8334  -20.6373  -48.1834 H         1 UNK         0.0600 
    203 H203        0.2031  -20.4188  -48.8054 H         1 UNK         0.0600 
    204 H204        1.5367  -20.7746  -49.9012 H         1 UNK         0.0600 
    205 H205       -1.5437  -23.3685  -48.4288 H         1 UNK         0.3000 
    206 H206       -3.3529  -23.8730  -49.5976 H         1 UNK         0.0600 
    207 H207       -3.1575  -25.3089  -51.6080 H         1 UNK         0.0600 
    208 H208       -2.0162  -25.8317  -50.3794 H         1 UNK         0.0600 
    209 H209       -1.4534  -24.9115  -51.7726 H         1 UNK         0.0600 
    210 H210       -2.7357  -21.2862  -49.5835 H         1 UNK         0.3000 
    211 H211       -3.0008  -19.2647  -50.4397 H         1 UNK         0.0600 
    212 H212       -4.6505  -20.5273  -52.6837 H         1 UNK         0.0600 
    213 H213       -4.7956  -18.9032  -52.0462 H         1 UNK         0.0600 
    214 H214       -5.2717  -20.2584  -51.0483 H         1 UNK         0.0600 
    215 H215       -0.6174  -20.4526  -51.0256 H         1 UNK         0.3000 
    216 H216        1.2410  -20.4586  -52.2425 H         1 UNK         0.0600 
    217 H217        1.7347  -18.5696  -53.7731 H         1 UNK         0.0600 
    218 H218        1.0184  -18.0049  -52.2763 H         1 UNK         0.0600 
    219 H219        0.0469  -18.0715  -53.7461 H         1 UNK         0.0600 
    220 H220       -0.4161  -22.3800  -52.7900 H         1 UNK         0.3000 
    221 H221       -1.0170  -24.0325  -54.0739 H         1 UNK         0.0600 
    222 H222        0.9415  -22.9931  -56.1854 H         1 UNK         0.0600 
    223 H223        1.3810  -23.9899  -54.7983 H         1 UNK         0.0600 
    224 H224        0.3249  -24.6320  -56.0436 H         1 UNK         0.0600 
    225 H225       -2.2804  -21.1538  -54.6362 H         1 UNK         0.3000 
    226 H226       -3.5068  -21.5462  -57.2446 H         1 UNK         0.0600 
    227 H227       -4.3105  -19.5883  -55.0402 H         1 UNK         0.0600 
    228 H228       -3.0322  -19.2724  -56.2160 H         1 UNK         0.0600 
    229 H229       -4.6936  -19.4888  -56.7494 H         1 UNK         0.0600 
    230 H230       -4.2118  -22.6385  -54.0171 H         1 UNK         0.3000 
    231 H231       -5.8549  -23.7111  -53.0087 H         1 UNK         0.0600 
    232 H232       -5.5725  -25.3593  -54.8532 H         1 UNK         0.0600 
    233 H233       -6.8113  -24.5383  -55.8009 H         1 UNK         0.0600 
    234 H234       -7.2332  -25.3155  -54.2822 H         1 UNK         0.0600 
    235 H235       -6.2357  -21.2607  -52.8112 H         1 UNK         0.3000 
    236 H236       -7.5638  -19.6206  -52.1910 H         1 UNK         0.0600 
    237 H237       -9.9942  -19.8073  -51.9961 H         1 UNK         0.0600 
    238 H238      -10.0190  -21.2814  -52.9454 H         1 UNK         0.0600 
    239 H239       -9.2349  -21.2612  -51.3667 H         1 UNK         0.0600 
    240 H240       -6.8130  -18.1284  -53.6029 H         1 UNK         0.3000 
    241 H241       -7.6268  -17.9726  -56.3579 H         1 UNK         0.0600 
    242 H242      -10.3937  -15.7938  -54.4061 H         1 UNK         0.3800 
    243 H243       -9.3778  -16.9280  -53.5577 H         1 UNK         0.3800 
    244 H244       -5.4130  -17.2414  -55.8647 H         1 UNK         0.0800 
    245 H245       -6.2963  -15.8571  -56.4077 H         1 UNK         0.0800 
    246 H246       -3.4369  -16.2018  -54.4616 H         1 UNK         0.0800 
    247 H247       -4.2764  -17.5238  -53.7046 H         1 UNK         0.0800 
@<TRIPOS>BOND
     1    1    2 1    
     2    1  127 1    
     3    1  128 1    
     4    1  129 1    
     5    2    3 2    
     6    2    4 am   BACKBONE|DICT|INTERRES
     7    4    5 1    
     8    4  130 1    
     9    5    6 1    
    10    5   65 1    
    11    5  131 1    
    12    6    7 1    
    13    6  132 1    
    14    6  133 1    
    15    7    8 1    
    16    8    9 1    
    17    8  134 1    
    18    8  135 1    
    19    9   10 ar   
    20    9   14 ar   
    21   10   11 ar   
    22   10  136 1    
    23   11   12 ar   
    24   11  126 1    
    25   12   13 ar   
    26   12  137 1    
    27   13   14 ar   
    28   13   15 1    
    29   14  138 1    
    30   15   16 1    
    31   15  139 1    
    32   15  140 1    
    33   16   17 1    
    34   17   18 1    
    35   17  141 1    
    36   17  142 1    
    37   18   19 1    
    38   18   67 1    
    39   18  143 1    
    40   19   20 am   BACKBONE|DICT|INTERRES
    41   19  144 1    
    42   20   21 2    
    43   20   22 1    
    44   22   23 1    
    45   22   24 1    
    46   22  145 1    
    47   23  146 1    
    48   23  147 1    
    49   23  148 1    
    50   24   25 am   BACKBONE|DICT|INTERRES
    51   24  149 1    
    52   25   26 2    
    53   25   27 1    
    54   27   28 1    
    55   27   29 1    
    56   27  150 1    
    57   28  151 1    
    58   28  152 1    
    59   28  153 1    
    60   29   30 am   BACKBONE|DICT|INTERRES
    61   29  154 1    
    62   30   31 2    
    63   30   32 1    
    64   32   33 1    
    65   32   34 1    
    66   32  155 1    
    67   33  156 1    
    68   33  157 1    
    69   33  158 1    
    70   34   35 am   BACKBONE|DICT|INTERRES
    71   34  159 1    
    72   35   36 2    
    73   35   37 1    
    74   37   38 1    
    75   37   39 1    
    76   37  160 1    
    77   38  161 1    
    78   38  162 1    
    79   38  163 1    
    80   39   40 am   BACKBONE|DICT|INTERRES
    81   39  164 1    
    82   40   41 2    
    83   40   42 1    
    84   42   43 1    
    85   42   44 1    
    86   42  165 1    
    87   43  166 1    
    88   43  167 1    
    89   43  168 1    
    90   44   45 am   BACKBONE|DICT|INTERRES
    91   44  169 1    
    92   45   46 2    
    93   45   47 1    
    94   47   48 1    
    95   47   49 1    
    96   47  170 1    
    97   48  171 1    
    98   48  172 1    
    99   48  173 1    
   100   49   50 am   BACKBONE|DICT|INTERRES
   101   49  174 1    
   102   50   51 2    
   103   50   52 1    
   104   52   53 1    
   105   52   54 1    
   106   52  175 1    
   107   53  176 1    
   108   53  177 1    
   109   53  178 1    
   110   54   55 am   BACKBONE|DICT|INTERRES
   111   54  179 1    
   112   55   56 2    
   113   55   57 1    
   114   57   58 1    
   115   57   59 1    
   116   57  180 1    
   117   58  181 1    
   118   58  182 1    
   119   58  183 1    
   120   59   60 am   BACKBONE|DICT|INTERRES
   121   59  184 1    
   122   60   61 2    
   123   60   62 1    
   124   62   63 1    
   125   62   64 1    
   126   62  185 1    
   127   63  186 1    
   128   63  187 1    
   129   63  188 1    
   130   64   65 am   BACKBONE|DICT|INTERRES
   131   64  189 1    
   132   65   66 2    
   133   67   68 2    
   134   67   69 am   BACKBONE|DICT|INTERRES
   135   69   70 1    
   136   69  190 1    
   137   70   71 1    
   138   70   72 1    
   139   70  191 1    
   140   71  192 1    
   141   71  193 1    
   142   71  194 1    
   143   72   73 2    
   144   72   74 am   BACKBONE|DICT|INTERRES
   145   74   75 1    
   146   74  195 1    
   147   75   76 1    
   148   75   77 1    
   149   75  196 1    
   150   76  197 1    
   151   76  198 1    
   152   76  199 1    
   153   77   78 2    
   154   77   79 am   BACKBONE|DICT|INTERRES
   155   79   80 1    
   156   79  200 1    
   157   80   81 1    
   158   80   82 1    
   159   80  201 1    
   160   81  202 1    
   161   81  203 1    
   162   81  204 1    
   163   82   83 2    
   164   82   84 am   BACKBONE|DICT|INTERRES
   165   84   85 1    
   166   84  205 1    
   167   85   86 1    
   168   85   87 1    
   169   85  206 1    
   170   86  207 1    
   171   86  208 1    
   172   86  209 1    
   173   87   88 2    
   174   87   89 am   BACKBONE|DICT|INTERRES
   175   89   90 1    
   176   89  210 1    
   177   90   91 1    
   178   90   92 1    
   179   90  211 1    
   180   91  212 1    
   181   91  213 1    
   182   91  214 1    
   183   92   93 2    
   184   92   94 am   BACKBONE|DICT|INTERRES
   185   94   95 1    
   186   94  215 1    
   187   95   96 1    
   188   95   97 1    
   189   95  216 1    
   190   96  217 1    
   191   96  218 1    
   192   96  219 1    
   193   97   98 2    
   194   97   99 am   BACKBONE|DICT|INTERRES
   195   99  100 1    
   196   99  220 1    
   197  100  101 1    
   198  100  102 1    
   199  100  221 1    
   200  101  222 1    
   201  101  223 1    
   202  101  224 1    
   203  102  103 2    
   204  102  104 am   BACKBONE|DICT|INTERRES
   205  104  105 1    
   206  104  225 1    
   207  105  106 1    
   208  105  107 1    
   209  105  226 1    
   210  106  227 1    
   211  106  228 1    
   212  106  229 1    
   213  107  108 2    
   214  107  109 am   BACKBONE|DICT|INTERRES
   215  109  110 1    
   216  109  230 1    
   217  110  111 1    
   218  110  112 1    
   219  110  231 1    
   220  111  232 1    
   221  111  233 1    
   222  111  234 1    
   223  112  113 2    
   224  112  114 am   BACKBONE|DICT|INTERRES
   225  114  115 1    
   226  114  235 1    
   227  115  116 1    
   228  115  117 1    
   229  115  236 1    
   230  116  237 1    
   231  116  238 1    
   232  116  239 1    
   233  117  118 2    
   234  117  119 am   BACKBONE|DICT|INTERRES
   235  119  120 1    
   236  119  240 1    
   237  120  121 1    
   238  120  124 1    
   239  120  241 1    
   240  121  122 am   BACKBONE|DICT|INTERRES
   241  121  123 2    
   242  122  242 1    
   243  122  243 1    
   244  124  125 1    
   245  124  244 1    
   246  124  245 1    
   247  125  126 1    
   248  126  246 1    
   249  126  247 1    
@<TRIPOS>SUBSTRUCTURE
     1 UNK         1 GROUP             0       ****    0 ROOT    
