@<TRIPOS>MOLECULE
3R540
247   249    1
SMALL
USER_CHARGES


@<TRIPOS>ATOM
      1 CA         -2.3600  -14.9516  -42.6909 C.3       0 UNK        -0.1800 
      2 C          -3.2368  -15.1567  -43.9152 C.2       0 UNK         0.5000 
      3 O          -4.4323  -15.4134  -43.7727 O.2       0 UNK        -0.5000 
      4 N          -2.6505  -15.0361  -45.1103 N.am      1 UNK        -0.5000 
      5 CA         -3.3353  -15.1870  -46.3988 C.3       1 UNK         0.1400 
      6 C6         -3.1161  -16.5907  -47.0178 C.3       23 UNK        -0.0398 
      7 S7         -1.3752  -16.9829  -47.4189 S.3       23 UNK        -0.2404 
      8 C8         -1.5802  -17.6927  -49.0836 C.3       23 UNK        -0.0205 
      9 C9         -0.2713  -18.0432  -49.7868 C.ar      23 UNK        -0.0193 
     10 C10        -0.1321  -17.7579  -51.1501 C.ar      23 UNK        -0.1150 
     11 C11         1.0654  -18.0212  -51.8193 C.ar      23 UNK        -0.0193 
     12 C12         2.1255  -18.6010  -51.1182 C.ar      23 UNK        -0.1150 
     13 C13         2.0008  -18.9072  -49.7601 C.ar      23 UNK        -0.0193 
     14 C14         0.7951  -18.6411  -49.1030 C.ar      23 UNK        -0.1150 
     15 C15         3.1977  -19.4599  -48.9998 C.3       23 UNK        -0.0205 
     16 S16         3.1641  -21.2751  -48.8737 S.3       23 UNK        -0.2404 
     17 C17         2.6708  -21.5250  -47.1356 C.3       23 UNK        -0.0398 
     18 CA          1.5590  -22.5880  -46.9767 C.3       11 UNK         0.1400 
     19 N           1.5791  -23.2022  -45.6485 N.am      11 UNK        -0.5000 
     20 C           0.9304  -24.3260  -45.3143 C.2       10 UNK         0.5000 
     21 O           0.2781  -25.0025  -46.1084 O.2       10 UNK        -0.5000 
     22 CA          0.9867  -24.7375  -43.8312 C.3       10 UNK         0.1400 
     23 CB          2.2482  -25.5658  -43.5467 C.3       10 UNK        -0.1800 
     24 N           0.9467  -23.5871  -42.9259 N.am      10 UNK        -0.5000 
     25 C          -0.1120  -22.7771  -42.7847 C.2       9 UNK         0.5000 
     26 O          -1.1791  -22.9423  -43.3736 O.2       9 UNK        -0.5000 
     27 CA          0.0655  -21.5524  -41.8684 C.3       9 UNK         0.1400 
     28 CB         -0.2315  -21.9355  -40.4110 C.3       9 UNK        -0.1800 
     29 N           1.3905  -20.9284  -41.9493 N.am      9 UNK        -0.5000 
     30 C           1.9667  -20.4577  -43.0656 C.2       8 UNK         0.5000 
     31 O           1.4532  -20.5521  -44.1819 O.2       8 UNK        -0.5000 
     32 CA          3.3400  -19.7777  -42.9002 C.3       8 UNK         0.1400 
     33 CB          3.7705  -19.0079  -44.1617 C.3       8 UNK        -0.1800 
     34 N           3.3113  -18.8496  -41.7721 N.am      8 UNK        -0.5000 
     35 C           3.7943  -19.0926  -40.5454 C.2       7 UNK         0.5000 
     36 O           4.3580  -20.1414  -40.2329 O.2       7 UNK        -0.5000 
     37 CA          3.5908  -17.9977  -39.4758 C.3       7 UNK         0.1400 
     38 CB          4.8533  -17.1317  -39.3487 C.3       7 UNK        -0.1800 
     39 N           2.4470  -17.1275  -39.7531 N.am      7 UNK        -0.5000 
     40 C           1.1653  -17.5200  -39.7548 C.2       6 UNK         0.5000 
     41 O           0.7975  -18.6336  -39.3826 O.2       6 UNK        -0.5000 
     42 CA          0.1216  -16.5213  -40.2965 C.3       6 UNK         0.1400 
     43 CB         -0.7006  -15.9194  -39.1470 C.3       6 UNK        -0.1800 
     44 N           0.6789  -15.4284  -41.1044 N.am      6 UNK        -0.5000 
     45 C           1.3317  -15.5728  -42.2658 C.2       5 UNK         0.5000 
     46 O           1.5841  -16.6671  -42.7740 O.2       5 UNK        -0.5000 
     47 CA          1.8402  -14.2742  -42.9173 C.3       5 UNK         0.1400 
     48 CB          3.0486  -13.7272  -42.1389 C.3       5 UNK        -0.1800 
     49 N           2.2450  -14.4804  -44.3060 N.am      5 UNK        -0.5000 
     50 C           1.4131  -14.5607  -45.3494 C.2       4 UNK         0.5000 
     51 O           0.1861  -14.4259  -45.2750 O.2       4 UNK        -0.5000 
     52 CA          2.0818  -14.8247  -46.7061 C.3       4 UNK         0.1400 
     53 CB          2.4069  -16.3151  -46.8937 C.3       4 UNK        -0.1800 
     54 N           1.1920  -14.3687  -47.7645 N.am      4 UNK        -0.5000 
     55 C           1.5736  -13.8598  -48.9418 C.2       3 UNK         0.5000 
     56 O           2.7452  -13.8115  -49.3188 O.2       3 UNK        -0.5000 
     57 CA          0.4666  -13.2719  -49.8405 C.3       3 UNK         0.1400 
     58 CB          0.0298  -14.2866  -50.9050 C.3       3 UNK        -0.1800 
     59 N          -0.7135  -12.8531  -49.0857 N.am      3 UNK        -0.5000 
     60 C          -0.7824  -11.7998  -48.2647 C.2       2 UNK         0.5000 
     61 O           0.1295  -10.9844  -48.1236 O.2       2 UNK        -0.5000 
     62 CA         -2.0686  -11.6529  -47.4288 C.3       2 UNK         0.1400 
     63 CB         -3.1973  -10.9940  -48.2445 C.3       2 UNK        -0.1800 
     64 N          -2.5132  -12.9023  -46.7915 N.am      2 UNK        -0.5000 
     65 C          -2.9965  -14.0228  -47.3529 C.2       1 UNK         0.5000 
     66 O          -3.1602  -14.1611  -48.5660 O.2       1 UNK        -0.5000 
     67 C           0.1668  -22.0090  -47.2818 C.2       11 UNK         0.5000 
     68 O          -0.3807  -22.2803  -48.3478 O.2       11 UNK        -0.5000 
     69 N          -0.4061  -21.2811  -46.3114 N.am      12 UNK        -0.5000 
     70 CA         -1.7589  -20.7272  -46.3743 C.3       12 UNK         0.1400 
     71 CB         -2.0268  -19.8785  -45.1230 C.3       12 UNK        -0.1800 
     72 C          -2.8444  -21.8051  -46.5539 C.2       12 UNK         0.5000 
     73 O          -3.7709  -21.6033  -47.3406 O.2       12 UNK        -0.5000 
     74 N          -2.6862  -22.9387  -45.8559 N.am      13 UNK        -0.5000 
     75 CA         -3.5346  -24.1226  -45.9766 C.3       13 UNK         0.1400 
     76 CB         -3.2218  -25.1040  -44.8372 C.3       13 UNK        -0.1800 
     77 C          -3.4010  -24.8121  -47.3461 C.2       13 UNK         0.5000 
     78 O          -4.4215  -25.1336  -47.9540 O.2       13 UNK        -0.5000 
     79 N          -2.1615  -24.9975  -47.8260 N.am      14 UNK        -0.5000 
     80 CA         -1.8554  -25.5797  -49.1387 C.3       14 UNK         0.1400 
     81 CB         -0.3429  -25.8212  -49.2564 C.3       14 UNK        -0.1800 
     82 C          -2.3572  -24.7155  -50.3110 C.2       14 UNK         0.5000 
     83 O          -2.8516  -25.2510  -51.3032 O.2       14 UNK        -0.5000 
     84 N          -2.2524  -23.3917  -50.1523 N.am      15 UNK        -0.5000 
     85 CA         -2.7858  -22.3793  -51.0596 C.3       15 UNK         0.1400 
     86 CB         -2.1560  -21.0326  -50.6764 C.3       15 UNK        -0.1800 
     87 C          -4.3212  -22.2576  -51.0055 C.2       15 UNK         0.5000 
     88 O          -4.9083  -21.6467  -51.8987 O.2       15 UNK        -0.5000 
     89 N          -4.9323  -22.7773  -49.9297 N.am      16 UNK        -0.5000 
     90 CA         -6.3412  -22.6470  -49.5489 C.3       16 UNK         0.1400 
     91 CB         -7.2328  -23.4994  -50.4721 C.3       16 UNK        -0.1800 
     92 C          -6.7747  -21.1691  -49.4480 C.2       16 UNK         0.5000 
     93 O          -7.8126  -20.7832  -49.9864 O.2       16 UNK        -0.5000 
     94 N          -5.9283  -20.3704  -48.7796 N.am      17 UNK        -0.5000 
     95 CA         -6.0097  -18.9146  -48.6300 C.3       17 UNK         0.1400 
     96 CB         -7.2347  -18.5106  -47.7840 C.3       17 UNK        -0.1800 
     97 C          -5.9189  -18.1664  -49.9798 C.2       17 UNK         0.5000 
     98 O          -6.6808  -17.2292  -50.2213 O.2       17 UNK        -0.5000 
     99 N          -4.9689  -18.6007  -50.8222 N.am      18 UNK        -0.5000 
    100 CA        -4.6574  -18.0868  -52.1624 C.3       18 UNK         0.1400 
    101 CB        -4.1712  -16.6215  -52.1111 C.3       18 UNK        -0.1800 
    102 C         -5.8047  -18.2941  -53.1709 C.2       18 UNK         0.5000 
    103 O         -6.1196  -17.3908  -53.9497 O.2       18 UNK        -0.5000 
    104 N         -6.3966  -19.4949  -53.1751 N.am      19 UNK        -0.5000 
    105 CA        -7.4191  -19.9145  -54.1353 C.3       19 UNK         0.1400 
    106 CB        -8.2876  -21.0110  -53.4980 C.3       19 UNK        -0.1800 
    107 C         -6.7536  -20.3744  -55.4475 C.2       19 UNK         0.5000 
    108 O         -6.8085  -21.5562  -55.7922 O.2       19 UNK        -0.5000 
    109 N         -6.0666  -19.4359  -56.1146 N.am      20 UNK        -0.5000 
    110 CA        -5.2066  -19.5695  -57.3008 C.3       20 UNK         0.1400 
    111 CB        -5.9831  -20.1306  -58.5074 C.3       20 UNK        -0.1800 
    112 C         -3.9029  -20.3594  -57.0546 C.2       20 UNK         0.5000 
    113 O         -2.8577  -19.9788  -57.5838 O.2       20 UNK        -0.5000 
    114 N         -3.9777  -21.4265  -56.2530 N.am      21 UNK        -0.5000 
    115 CA        -2.8516  -22.2145  -55.7636 C.3       21 UNK         0.1400 
    116 CB        -3.4037  -23.5079  -55.1420 C.3       21 UNK        -0.1800 
    117 C         -2.0144  -21.4448  -54.7247 C.2       21 UNK         0.5000 
    118 O         -2.5366  -20.5619  -54.0416 O.2       21 UNK        -0.5000 
    119 N         -0.7466  -21.8482  -54.5959 N.am      22 UNK        -0.5000 
    120 CA         0.2292  -21.3573  -53.6061 C.3       22 UNK         0.1400 
    121 C          0.9879  -22.5281  -52.9096 C.2       22 UNK         0.5000 
    122 N          0.4794  -23.7556  -52.9325 N.am      22 UNK        -0.7600 
    123 O          2.0561  -22.3348  -52.3384 O.2       22 UNK        -0.5000 
    124 C124        1.1827  -20.2905  -54.2122 C.3       23 UNK        -0.0398 
    125 S125        0.3485  -18.6841  -54.4480 S.3       23 UNK        -0.2404 
    126 C126        1.2413  -17.6105  -53.2770 C.3       23 UNK        -0.0205 
    127 H127       -1.3948  -14.5246  -42.9595 H         1 UNK         0.0600 
    128 H128       -2.1930  -15.9050  -42.1919 H         1 UNK         0.0600 
    129 H129       -2.8438  -14.2751  -41.9863 H         1 UNK         0.0600 
    130 H130       -1.6479  -14.8605  -45.1670 H         1 UNK         0.3000 
    131 H131       -4.4107  -15.0823  -46.2417 H         1 UNK         0.0600 
    132 H132       -3.4810  -17.3504  -46.3267 H         1 UNK         0.0800 
    133 H133       -3.7310  -16.6918  -47.9128 H         1 UNK         0.0800 
    134 H134       -2.2107  -18.5770  -49.0245 H         1 UNK         0.0800 
    135 H135       -2.1249  -16.9595  -49.6746 H         1 UNK         0.0800 
    136 H136       -0.9478  -17.3012  -51.6924 H         1 UNK         0.1150 
    137 H137        3.0615  -18.7917  -51.6239 H         1 UNK         0.1150 
    138 H138        0.6985  -18.8736  -48.0522 H         1 UNK         0.1150 
    139 H139        4.1190  -19.1736  -49.5093 H         1 UNK         0.0800 
    140 H140        3.2598  -19.0003  -48.0130 H         1 UNK         0.0800 
    141 H141        2.3762  -20.5800  -46.6775 H         1 UNK         0.0800 
    142 H142        3.5685  -21.8438  -46.6043 H         1 UNK         0.0800 
    143 H143        1.7476  -23.3889  -47.6955 H         1 UNK         0.0600 
    144 H144        2.0141  -22.6626  -44.9141 H         1 UNK         0.3000 
    145 H145        0.1146  -25.3621  -43.6261 H         1 UNK         0.0600 
    146 H146        2.2599  -25.9256  -42.5177 H         1 UNK         0.0600 
    147 H147        2.2943  -26.4410  -44.1963 H         1 UNK         0.0600 
    148 H148        3.1578  -24.9867  -43.7110 H         1 UNK         0.0600 
    149 H149        1.7852  -23.3828  -42.4024 H         1 UNK         0.3000 
    150 H150       -0.6646  -20.8026  -42.1782 H         1 UNK         0.0600 
    151 H151       -1.2122  -22.4048  -40.3218 H         1 UNK         0.0600 
    152 H152       -0.2358  -21.0593  -39.7637 H         1 UNK         0.0600 
    153 H153        0.5058  -22.6379  -40.0203 H         1 UNK         0.0600 
    154 H154        1.8750  -20.7933  -41.0734 H         1 UNK         0.3000 
    155 H155        4.0735  -20.5667  -42.7244 H         1 UNK         0.0600 
    156 H156        3.0233  -18.2692  -44.4522 H         1 UNK         0.0600 
    157 H157        4.7144  -18.4861  -44.0042 H         1 UNK         0.0600 
    158 H158        3.9125  -19.6837  -45.0048 H         1 UNK         0.0600 
    159 H159        2.7981  -17.9890  -41.9396 H         1 UNK         0.3000 
    160 H160        3.4161  -18.4963  -38.5202 H         1 UNK         0.0600 
    161 H161        5.0673  -16.5939  -40.2734 H         1 UNK         0.0600 
    162 H162        5.7253  -17.7441  -39.1156 H         1 UNK         0.0600 
    163 H163        4.7501  -16.3981  -38.5489 H         1 UNK         0.0600 
    164 H164        2.6555  -16.1896  -40.0600 H         1 UNK         0.3000 
    165 H165       -0.5525  -17.0944  -40.9358 H         1 UNK         0.0600 
    166 H166       -1.5065  -15.2900  -39.5250 H         1 UNK         0.0600 
    167 H167       -1.1598  -16.7022  -38.5417 H         1 UNK         0.0600 
    168 H168       -0.0812  -15.3132  -38.4848 H         1 UNK         0.0600 
    169 H169        0.5389  -14.4971  -40.7395 H         1 UNK         0.3000 
    170 H170        1.0372  -13.5344  -42.8891 H         1 UNK         0.0600 
    171 H171        3.8729  -14.4416  -42.1194 H         1 UNK         0.0600 
    172 H172        3.4178  -12.8032  -42.5847 H         1 UNK         0.0600 
    173 H173        2.7863  -13.5002  -41.1049 H         1 UNK         0.0600 
    174 H174        3.2288  -14.6462  -44.4573 H         1 UNK         0.3000 
    175 H175        3.0077  -14.2468  -46.7455 H         1 UNK         0.0600 
    176 H176        2.7823  -16.5142  -47.8974 H         1 UNK         0.0600 
    177 H177        1.5306  -16.9423  -46.7309 H         1 UNK         0.0600 
    178 H178        3.1751  -16.6361  -46.1907 H         1 UNK         0.0600 
    179 H179        0.2147  -14.3444  -47.5060 H         1 UNK         0.3000 
    180 H180        0.8827  -12.3987  -50.3470 H         1 UNK         0.0600 
    181 H181       -0.4994  -15.1229  -50.4503 H         1 UNK         0.0600 
    182 H182        0.8866  -14.6887  -51.4473 H         1 UNK         0.0600 
    183 H183       -0.6363  -13.8293  -51.6366 H         1 UNK         0.0600 
    184 H184       -1.5300  -13.4580  -49.1304 H         1 UNK         0.3000 
    185 H185       -1.8281  -10.9772  -46.6064 H         1 UNK         0.0600 
    186 H186       -3.4799  -11.5904  -49.1123 H         1 UNK         0.0600 
    187 H187       -4.0885  -10.8450  -47.6350 H         1 UNK         0.0600 
    188 H188       -2.8876  -10.0151  -48.6125 H         1 UNK         0.0600 
    189 H189       -2.4019  -12.9214  -45.7872 H         1 UNK         0.3000 
    190 H190        0.1295  -21.0894  -45.4690 H         1 UNK         0.3000 
    191 H191       -1.8003  -20.0730  -47.2452 H         1 UNK         0.0600 
    192 H192       -1.3010  -19.0699  -45.0311 H         1 UNK         0.0600 
    193 H193       -3.0179  -19.4260  -45.1632 H         1 UNK         0.0600 
    194 H194       -1.9788  -20.4759  -44.2133 H         1 UNK         0.0600 
    195 H195       -1.9371  -22.9867  -45.1716 H         1 UNK         0.3000 
    196 H196       -4.5724  -23.8004  -45.8675 H         1 UNK         0.0600 
    197 H197       -3.8537  -25.9907  -44.9000 H         1 UNK         0.0600 
    198 H198       -3.4001  -24.6461  -43.8640 H         1 UNK         0.0600 
    199 H199       -2.1840  -25.4368  -44.8640 H         1 UNK         0.0600 
    200 H200       -1.3656  -24.7381  -47.2516 H         1 UNK         0.3000 
    201 H201       -2.3599  -26.5460  -49.2008 H         1 UNK         0.0600 
    202 H202        0.0093  -26.5009  -48.4803 H         1 UNK         0.0600 
    203 H203        0.2210  -24.8919  -49.1687 H         1 UNK         0.0600 
    204 H204       -0.0919  -26.2685  -50.2189 H         1 UNK         0.0600 
    205 H205       -1.7413  -23.0414  -49.3440 H         1 UNK         0.3000 
    206 H206       -2.4960  -22.6371  -52.0787 H         1 UNK         0.0600 
    207 H207       -1.0678  -21.0872  -50.6641 H         1 UNK         0.0600 
    208 H208       -2.4333  -20.2460  -51.3770 H         1 UNK         0.0600 
    209 H209       -2.4751  -20.7245  -49.6817 H         1 UNK         0.0600 
    210 H210       -4.3507  -23.2504  -49.2506 H         1 UNK         0.3000 
    211 H211       -6.4270  -23.0558  -48.5411 H         1 UNK         0.0600 
    212 H212       -7.1562  -23.1853  -51.5110 H         1 UNK         0.0600 
    213 H213       -8.2817  -23.4319  -50.1813 H         1 UNK         0.0600 
    214 H214       -6.9494  -24.5508  -50.4228 H         1 UNK         0.0600 
    215 H215       -5.1194  -20.8114  -48.3440 H         1 UNK         0.3000 
    216 H216       -5.1217  -18.6297  -48.0658 H         1 UNK         0.0600 
    217 H217       -7.2170  -17.4439  -47.5575 H         1 UNK         0.0600 
    218 H218       -7.2495  -19.0430  -46.8330 H         1 UNK         0.0600 
    219 H219       -8.1723  -18.7187  -48.3001 H         1 UNK         0.0600 
    220 H220       -4.4567  -19.4268  -50.5526 H         1 UNK         0.3000 
    221 H221       -3.8266  -18.6875  -52.5334 H         1 UNK         0.0600 
    222 H222       -4.9601  -15.9394  -51.7938 H         1 UNK         0.0600 
    223 H223       -3.3323  -16.4984  -51.4321 H         1 UNK         0.0600 
    224 H224       -3.8324  -16.2904  -53.0934 H         1 UNK         0.0600 
    225 H225       -6.0207  -20.2231  -52.5723 H         1 UNK         0.3000 
    226 H226       -8.0710  -19.0701  -54.3684 H         1 UNK         0.0600 
    227 H227       -8.7489  -20.6634  -52.5737 H         1 UNK         0.0600 
    228 H228       -9.0913  -21.3128  -54.1704 H         1 UNK         0.0600 
    229 H229       -7.7004  -21.8991  -53.2688 H         1 UNK         0.0600 
    230 H230       -6.0526  -18.5162  -55.6853 H         1 UNK         0.3000 
    231 H231       -4.9059  -18.5517  -57.5542 H         1 UNK         0.0600 
    232 H232       -6.2875  -21.1661  -58.3538 H         1 UNK         0.0600 
    233 H233       -5.3684  -20.1051  -59.4079 H         1 UNK         0.0600 
    234 H234       -6.8787  -19.5428  -58.7084 H         1 UNK         0.0600 
    235 H235       -4.8924  -21.6591  -55.8802 H         1 UNK         0.3000 
    236 H236       -2.2149  -22.4704  -56.6130 H         1 UNK         0.0600 
    237 H237       -3.9803  -24.0802  -55.8689 H         1 UNK         0.0600 
    238 H238       -2.5989  -24.1528  -54.7874 H         1 UNK         0.0600 
    239 H239       -4.0537  -23.2972  -54.2911 H         1 UNK         0.0600 
    240 H240       -0.4036  -22.5811  -55.2007 H         1 UNK         0.3000 
    241 H241       -0.3096  -20.8769  -52.7907 H         1 UNK         0.0600 
    242 H242       -0.4104  -23.9501  -53.3600 H         1 UNK         0.3800 
    243 H243        0.9900  -24.4986  -52.4830 H         1 UNK         0.3800 
    244 H244        2.0567  -20.1294  -53.5808 H         1 UNK         0.0800 
    245 H245        1.5723  -20.6302  -55.1726 H         1 UNK         0.0800 
    246 H246        2.2983  -17.5901  -53.5468 H         1 UNK         0.0800 
    247 H247        0.8812  -16.5883  -53.4013 H         1 UNK         0.0800 
@<TRIPOS>BOND
     1    1    2 1    
     2    1  127 1    
     3    1  128 1    
     4    1  129 1    
     5    2    3 2    
     6    2    4 am   BACKBONE|DICT|INTERRES
     7    4    5 1    
     8    4  130 1    
     9    5    6 1    
    10    5   65 1    
    11    5  131 1    
    12    6    7 1    
    13    6  132 1    
    14    6  133 1    
    15    7    8 1    
    16    8    9 1    
    17    8  134 1    
    18    8  135 1    
    19    9   10 ar   
    20    9   14 ar   
    21   10   11 ar   
    22   10  136 1    
    23   11   12 ar   
    24   11  126 1    
    25   12   13 ar   
    26   12  137 1    
    27   13   14 ar   
    28   13   15 1    
    29   14  138 1    
    30   15   16 1    
    31   15  139 1    
    32   15  140 1    
    33   16   17 1    
    34   17   18 1    
    35   17  141 1    
    36   17  142 1    
    37   18   19 1    
    38   18   67 1    
    39   18  143 1    
    40   19   20 am   BACKBONE|DICT|INTERRES
    41   19  144 1    
    42   20   21 2    
    43   20   22 1    
    44   22   23 1    
    45   22   24 1    
    46   22  145 1    
    47   23  146 1    
    48   23  147 1    
    49   23  148 1    
    50   24   25 am   BACKBONE|DICT|INTERRES
    51   24  149 1    
    52   25   26 2    
    53   25   27 1    
    54   27   28 1    
    55   27   29 1    
    56   27  150 1    
    57   28  151 1    
    58   28  152 1    
    59   28  153 1    
    60   29   30 am   BACKBONE|DICT|INTERRES
    61   29  154 1    
    62   30   31 2    
    63   30   32 1    
    64   32   33 1    
    65   32   34 1    
    66   32  155 1    
    67   33  156 1    
    68   33  157 1    
    69   33  158 1    
    70   34   35 am   BACKBONE|DICT|INTERRES
    71   34  159 1    
    72   35   36 2    
    73   35   37 1    
    74   37   38 1    
    75   37   39 1    
    76   37  160 1    
    77   38  161 1    
    78   38  162 1    
    79   38  163 1    
    80   39   40 am   BACKBONE|DICT|INTERRES
    81   39  164 1    
    82   40   41 2    
    83   40   42 1    
    84   42   43 1    
    85   42   44 1    
    86   42  165 1    
    87   43  166 1    
    88   43  167 1    
    89   43  168 1    
    90   44   45 am   BACKBONE|DICT|INTERRES
    91   44  169 1    
    92   45   46 2    
    93   45   47 1    
    94   47   48 1    
    95   47   49 1    
    96   47  170 1    
    97   48  171 1    
    98   48  172 1    
    99   48  173 1    
   100   49   50 am   BACKBONE|DICT|INTERRES
   101   49  174 1    
   102   50   51 2    
   103   50   52 1    
   104   52   53 1    
   105   52   54 1    
   106   52  175 1    
   107   53  176 1    
   108   53  177 1    
   109   53  178 1    
   110   54   55 am   BACKBONE|DICT|INTERRES
   111   54  179 1    
   112   55   56 2    
   113   55   57 1    
   114   57   58 1    
   115   57   59 1    
   116   57  180 1    
   117   58  181 1    
   118   58  182 1    
   119   58  183 1    
   120   59   60 am   BACKBONE|DICT|INTERRES
   121   59  184 1    
   122   60   61 2    
   123   60   62 1    
   124   62   63 1    
   125   62   64 1    
   126   62  185 1    
   127   63  186 1    
   128   63  187 1    
   129   63  188 1    
   130   64   65 am   BACKBONE|DICT|INTERRES
   131   64  189 1    
   132   65   66 2    
   133   67   68 2    
   134   67   69 am   BACKBONE|DICT|INTERRES
   135   69   70 1    
   136   69  190 1    
   137   70   71 1    
   138   70   72 1    
   139   70  191 1    
   140   71  192 1    
   141   71  193 1    
   142   71  194 1    
   143   72   73 2    
   144   72   74 am   BACKBONE|DICT|INTERRES
   145   74   75 1    
   146   74  195 1    
   147   75   76 1    
   148   75   77 1    
   149   75  196 1    
   150   76  197 1    
   151   76  198 1    
   152   76  199 1    
   153   77   78 2    
   154   77   79 am   BACKBONE|DICT|INTERRES
   155   79   80 1    
   156   79  200 1    
   157   80   81 1    
   158   80   82 1    
   159   80  201 1    
   160   81  202 1    
   161   81  203 1    
   162   81  204 1    
   163   82   83 2    
   164   82   84 am   BACKBONE|DICT|INTERRES
   165   84   85 1    
   166   84  205 1    
   167   85   86 1    
   168   85   87 1    
   169   85  206 1    
   170   86  207 1    
   171   86  208 1    
   172   86  209 1    
   173   87   88 2    
   174   87   89 am   BACKBONE|DICT|INTERRES
   175   89   90 1    
   176   89  210 1    
   177   90   91 1    
   178   90   92 1    
   179   90  211 1    
   180   91  212 1    
   181   91  213 1    
   182   91  214 1    
   183   92   93 2    
   184   92   94 am   BACKBONE|DICT|INTERRES
   185   94   95 1    
   186   94  215 1    
   187   95   96 1    
   188   95   97 1    
   189   95  216 1    
   190   96  217 1    
   191   96  218 1    
   192   96  219 1    
   193   97   98 2    
   194   97   99 am   BACKBONE|DICT|INTERRES
   195   99  100 1    
   196   99  220 1    
   197  100  101 1    
   198  100  102 1    
   199  100  221 1    
   200  101  222 1    
   201  101  223 1    
   202  101  224 1    
   203  102  103 2    
   204  102  104 am   BACKBONE|DICT|INTERRES
   205  104  105 1    
   206  104  225 1    
   207  105  106 1    
   208  105  107 1    
   209  105  226 1    
   210  106  227 1    
   211  106  228 1    
   212  106  229 1    
   213  107  108 2    
   214  107  109 am   BACKBONE|DICT|INTERRES
   215  109  110 1    
   216  109  230 1    
   217  110  111 1    
   218  110  112 1    
   219  110  231 1    
   220  111  232 1    
   221  111  233 1    
   222  111  234 1    
   223  112  113 2    
   224  112  114 am   BACKBONE|DICT|INTERRES
   225  114  115 1    
   226  114  235 1    
   227  115  116 1    
   228  115  117 1    
   229  115  236 1    
   230  116  237 1    
   231  116  238 1    
   232  116  239 1    
   233  117  118 2    
   234  117  119 am   BACKBONE|DICT|INTERRES
   235  119  120 1    
   236  119  240 1    
   237  120  121 1    
   238  120  124 1    
   239  120  241 1    
   240  121  122 am   BACKBONE|DICT|INTERRES
   241  121  123 2    
   242  122  242 1    
   243  122  243 1    
   244  124  125 1    
   245  124  244 1    
   246  124  245 1    
   247  125  126 1    
   248  126  246 1    
   249  126  247 1    
@<TRIPOS>SUBSTRUCTURE
     1 UNK         1 GROUP             0       ****    0 ROOT    
