@<TRIPOS>MOLECULE
3R540
247   249    1
SMALL
USER_CHARGES


@<TRIPOS>ATOM
      1 CA          0.6981  -12.1791  -53.4580 C.3       0 UNK        -0.1800 
      2 C           0.6362  -12.6108  -51.9995 C.2       0 UNK         0.5000 
      3 O           1.6353  -13.0865  -51.4596 O.2       0 UNK        -0.5000 
      4 N          -0.5334  -12.4543  -51.3681 N.am      1 UNK        -0.5000 
      5 CA         -0.7773  -12.8025  -49.9660 C.3       1 UNK         0.1400 
      6 C6         -2.2924  -12.9828  -49.6875 C.3       23 UNK        -0.0398 
      7 S7         -2.5983  -14.2424  -48.4027 S.3       23 UNK        -0.2404 
      8 C8         -3.1015  -15.6787  -49.4038 C.3       23 UNK        -0.0205 
      9 C9         -2.0084  -16.1398  -50.3587 C.ar      23 UNK        -0.0193 
     10 C10        -2.1223  -15.9061  -51.7314 C.ar      23 UNK        -0.1150 
     11 C11        -1.1481  -16.3765  -52.6181 C.ar      23 UNK        -0.0193 
     12 C12        -0.0419  -17.0698  -52.1131 C.ar      23 UNK        -0.1150 
     13 C13         0.0907  -17.3034  -50.7406 C.ar      23 UNK        -0.0193 
     14 C14        -0.8962  -16.8308  -49.8734 C.ar      23 UNK        -0.1150 
     15 C15         1.3033  -18.0509  -50.1968 C.3       23 UNK        -0.0205 
     16 S16         0.9034  -19.7526  -49.6684 S.3       23 UNK        -0.2404 
     17 C17         0.7487  -19.5470  -47.8615 C.3       23 UNK        -0.0398 
     18 CA          0.5058  -20.8786  -47.1051 C.3       11 UNK         0.1400 
     19 N           1.0514  -20.8531  -45.7444 N.am      11 UNK        -0.5000 
     20 C           2.0053  -21.6820  -45.3027 C.2       10 UNK         0.5000 
     21 O           2.6516  -22.4352  -46.0325 O.2       10 UNK        -0.5000 
     22 CA          2.2787  -21.7090  -43.7854 C.3       10 UNK         0.1400 
     23 CB          3.4858  -20.8257  -43.4415 C.3       10 UNK        -0.1800 
     24 N           1.1497  -21.3432  -42.9223 N.am      10 UNK        -0.5000 
     25 C          -0.0552  -21.9375  -42.9131 C.2       9 UNK         0.5000 
     26 O          -0.4087  -22.7668  -43.7516 O.2       9 UNK        -0.5000 
     27 CA         -1.0291  -21.5406  -41.7806 C.3       9 UNK         0.1400 
     28 CB         -2.1324  -22.5899  -41.5388 C.3       9 UNK        -0.1800 
     29 N          -0.3592  -21.2029  -40.5222 N.am      9 UNK        -0.5000 
     30 C           0.5055  -21.9488  -39.8152 C.2       8 UNK         0.5000 
     31 O           0.7680  -23.1235  -40.0773 O.2       8 UNK        -0.5000 
     32 CA          1.2131  -21.2514  -38.6268 C.3       8 UNK         0.1400 
     33 CB          2.6551  -21.7619  -38.4246 C.3       8 UNK        -0.1800 
     34 N           1.1947  -19.7816  -38.7019 N.am      8 UNK        -0.5000 
     35 C           1.6939  -19.0157  -39.6841 C.2       7 UNK         0.5000 
     36 O           2.3026  -19.4545  -40.6609 O.2       7 UNK        -0.5000 
     37 CA          1.3549  -17.5148  -39.6121 C.3       7 UNK         0.1400 
     38 CB          2.6129  -16.6502  -39.7877 C.3       7 UNK        -0.1800 
     39 N           0.3738  -17.1482  -40.6358 N.am      7 UNK        -0.5000 
     40 C          -0.8491  -17.6817  -40.7774 C.2       6 UNK         0.5000 
     41 O          -1.3259  -18.5143  -40.0058 O.2       6 UNK        -0.5000 
     42 CA         -1.6777  -17.2361  -41.9912 C.3       6 UNK         0.1400 
     43 CB         -2.6049  -16.0726  -41.6104 C.3       6 UNK        -0.1800 
     44 N          -0.8344  -16.8224  -43.1073 N.am      6 UNK        -0.5000 
     45 C          -0.3535  -17.6342  -44.0575 C.2       5 UNK         0.5000 
     46 O          -0.5550  -18.8500  -44.1197 O.2       5 UNK        -0.5000 
     47 CA          0.4698  -16.9505  -45.1576 C.3       5 UNK         0.1400 
     48 CB         -0.4893  -16.3874  -46.2132 C.3       5 UNK        -0.1800 
     49 N           1.3142  -15.8706  -44.6483 N.am      5 UNK        -0.5000 
     50 C           2.3923  -16.0557  -43.8708 C.2       4 UNK         0.5000 
     51 O           2.8257  -17.1667  -43.5730 O.2       4 UNK        -0.5000 
     52 CA          3.1060  -14.8044  -43.3153 C.3       4 UNK         0.1400 
     53 CB          4.3739  -14.5079  -44.1305 C.3       4 UNK        -0.1800 
     54 N           2.2759  -13.6000  -43.2865 N.am      4 UNK        -0.5000 
     55 C           1.1292  -13.4482  -42.6092 C.2       3 UNK         0.5000 
     56 O           0.6568  -14.3080  -41.8638 O.2       3 UNK        -0.5000 
     57 CA          0.3458  -12.1441  -42.8741 C.3       3 UNK         0.1400 
     58 CB          0.6771  -11.0943  -41.8034 C.3       3 UNK        -0.1800 
     59 N           0.5733  -11.5641  -44.2080 N.am      3 UNK        -0.5000 
     60 C           0.3432  -12.1981  -45.3667 C.2       2 UNK         0.5000 
     61 O          -0.0695  -13.3583  -45.4295 O.2       2 UNK        -0.5000 
     62 CA          0.6750  -11.4446  -46.6635 C.3       2 UNK         0.1400 
     63 CB          2.1964  -11.2716  -46.8302 C.3       2 UNK        -0.1800 
     64 N           0.1395  -12.2202  -47.7771 N.am      2 UNK        -0.5000 
     65 C          -0.1416  -11.7738  -49.0033 C.2       1 UNK         0.5000 
     66 O           0.0467  -10.6099  -49.3683 O.2       1 UNK        -0.5000 
     67 C          -0.9875  -21.2535  -47.0528 C.2       11 UNK         0.5000 
     68 O          -1.4407  -22.0369  -47.8859 O.2       11 UNK        -0.5000 
     69 N          -1.7249  -20.7259  -46.0605 N.am      12 UNK        -0.5000 
     70 CA         -3.1749  -20.8833  -45.9095 C.3       12 UNK         0.1400 
     71 CB         -3.6463  -20.0640  -44.6995 C.3       12 UNK        -0.1800 
     72 C          -3.6779  -22.3380  -45.8067 C.2       12 UNK         0.5000 
     73 O          -4.8083  -22.6062  -46.2156 O.2       12 UNK        -0.5000 
     74 N          -2.8407  -23.2582  -45.3054 N.am      13 UNK        -0.5000 
     75 CA         -3.1431  -24.6900  -45.2212 C.3       13 UNK         0.1400 
     76 CB         -2.0478  -25.4022  -44.4139 C.3       13 UNK        -0.1800 
     77 C          -3.3210  -25.3740  -46.5916 C.2       13 UNK         0.5000 
     78 O          -4.0199  -26.3857  -46.6706 O.2       13 UNK        -0.5000 
     79 N          -2.7227  -24.8129  -47.6524 N.am      14 UNK        -0.5000 
     80 CA         -2.8158  -25.3059  -49.0269 C.3       14 UNK         0.1400 
     81 CB         -1.5632  -24.8598  -49.8000 C.3       14 UNK        -0.1800 
     82 C          -4.1260  -24.8511  -49.7020 C.2       14 UNK         0.5000 
     83 O          -4.0858  -24.1735  -50.7297 O.2       14 UNK        -0.5000 
     84 N          -5.2641  -25.2199  -49.0962 N.am      15 UNK        -0.5000 
     85 CA         -6.6381  -24.9451  -49.5331 C.3       15 UNK         0.1400 
     86 CB         -6.9532  -25.7291  -50.8250 C.3       15 UNK        -0.1800 
     87 C          -6.9230  -23.4350  -49.6673 C.2       15 UNK         0.5000 
     88 O          -7.3181  -22.9725  -50.7380 O.2       15 UNK        -0.5000 
     89 N          -6.6614  -22.6843  -48.5854 N.am      16 UNK        -0.5000 
     90 CA         -6.7065  -21.2158  -48.5140 C.3       16 UNK         0.1400 
     91 CB         -8.1393  -20.6829  -48.7281 C.3       16 UNK        -0.1800 
     92 C          -5.6642  -20.5635  -49.4477 C.2       16 UNK         0.5000 
     93 O          -5.9294  -19.5218  -50.0473 O.2       16 UNK        -0.5000 
     94 N          -4.5079  -21.2323  -49.5637 N.am      17 UNK        -0.5000 
     95 CA         -3.3492  -20.9492  -50.4163 C.3       17 UNK         0.1400 
     96 CB         -2.7905  -19.5409  -50.1585 C.3       17 UNK        -0.1800 
     97 C          -3.5540  -21.2111  -51.9203 C.2       17 UNK         0.5000 
     98 O          -2.5695  -21.1816  -52.6583 O.2       17 UNK        -0.5000 
     99 N          -4.7852  -21.5154  -52.3545 N.am      18 UNK        -0.5000 
    100 CA        -5.1544  -21.7179  -53.7568 C.3       18 UNK         0.1400 
    101 CB        -6.6797  -21.8604  -53.8622 C.3       18 UNK        -0.1800 
    102 C         -4.4562  -22.9126  -54.4351 C.2       18 UNK         0.5000 
    103 O         -4.2922  -22.8941  -55.6560 O.2       18 UNK        -0.5000 
    104 N         -4.0553  -23.9238  -53.6511 N.am      19 UNK        -0.5000 
    105 CA        -3.2964  -25.0749  -54.1402 C.3       19 UNK         0.1400 
    106 CB        -3.6063  -26.3027  -53.2694 C.3       19 UNK        -0.1800 
    107 C         -1.7796  -24.8055  -54.1890 C.2       19 UNK         0.5000 
    108 O         -1.0705  -25.5396  -54.8787 O.2       19 UNK        -0.5000 
    109 N         -1.2995  -23.7808  -53.4685 N.am      20 UNK        -0.5000 
    110 CA         0.1072  -23.3801  -53.4566 C.3       20 UNK         0.1400 
    111 CB         0.4669  -22.7359  -52.1072 C.3       20 UNK        -0.1800 
    112 C          0.4349  -22.4307  -54.6190 C.2       20 UNK         0.5000 
    113 O          1.4539  -22.6220  -55.2845 O.2       20 UNK        -0.5000 
    114 N         -0.4262  -21.4327  -54.8485 N.am      21 UNK        -0.5000 
    115 CA        -0.2616  -20.3949  -55.8636 C.3       21 UNK         0.1400 
    116 CB         0.8339  -19.4032  -55.4198 C.3       21 UNK        -0.1800 
    117 C         -1.5994  -19.6747  -56.0933 C.2       21 UNK         0.5000 
    118 O         -2.5731  -19.9619  -55.3985 O.2       21 UNK        -0.5000 
    119 N         -1.6112  -18.7557  -57.0685 N.am      22 UNK        -0.5000 
    120 CA        -2.6608  -17.7765  -57.4325 C.3       22 UNK         0.1400 
    121 C         -4.1249  -18.2697  -57.6685 C.2       22 UNK         0.5000 
    122 N         -4.4858  -19.5050  -57.3585 N.am      22 UNK        -0.7600 
    123 O         -4.9427  -17.5207  -58.1971 O.2       22 UNK        -0.5000 
    124 C124       -2.5958  -16.4702  -56.5869 C.3       23 UNK        -0.0398 
    125 S125       -2.8755  -16.6776  -54.7919 S.3       23 UNK        -0.2404 
    126 C126       -1.2754  -16.1190  -54.1155 C.3       23 UNK        -0.0205 
    127 H127        0.9633  -13.0279  -54.0884 H         1 UNK         0.0600 
    128 H128       -0.2568  -11.7838  -53.8055 H         1 UNK         0.0600 
    129 H129        1.4547  -11.4054  -53.5889 H         1 UNK         0.0600 
    130 H130       -1.3023  -12.0161  -51.8537 H         1 UNK         0.3000 
    131 H131       -0.2787  -13.7603  -49.7975 H         1 UNK         0.0600 
    132 H132       -2.7642  -12.0446  -49.3890 H         1 UNK         0.0800 
    133 H133       -2.8170  -13.2898  -50.5930 H         1 UNK         0.0800 
    134 H134       -4.0144  -15.4361  -49.9499 H         1 UNK         0.0800 
    135 H135       -3.3597  -16.5004  -48.7342 H         1 UNK         0.0800 
    136 H136       -2.9788  -15.3709  -52.1159 H         1 UNK         0.1150 
    137 H137        0.7241  -17.4231  -52.7870 H         1 UNK         0.1150 
    138 H138       -0.8117  -17.0207  -48.8191 H         1 UNK         0.1150 
    139 H139        2.0796  -18.1064  -50.9612 H         1 UNK         0.0800 
    140 H140        1.7392  -17.4880  -49.3703 H         1 UNK         0.0800 
    141 H141        1.6822  -19.0983  -47.5191 H         1 UNK         0.0800 
    142 H142       -0.0343  -18.8231  -47.6496 H         1 UNK         0.0800 
    143 H143        0.9920  -21.6753  -47.6723 H         1 UNK         0.0600 
    144 H144        0.5694  -20.2810  -45.0607 H         1 UNK         0.3000 
    145 H145        2.5390  -22.7393  -43.5352 H         1 UNK         0.0600 
    146 H146        3.7919  -20.9628  -42.4043 H         1 UNK         0.0600 
    147 H147        4.3458  -21.0690  -44.0668 H         1 UNK         0.0600 
    148 H148        3.2602  -19.7696  -43.5875 H         1 UNK         0.0600 
    149 H149        1.3561  -20.6643  -42.1980 H         1 UNK         0.3000 
    150 H150       -1.5137  -20.6229  -42.1136 H         1 UNK         0.0600 
    151 H151       -2.7375  -22.7384  -42.4335 H         1 UNK         0.0600 
    152 H152       -2.8078  -22.2746  -40.7436 H         1 UNK         0.0600 
    153 H153       -1.7137  -23.5572  -41.2599 H         1 UNK         0.0600 
    154 H154       -0.5334  -20.2570  -40.1936 H         1 UNK         0.3000 
    155 H155        0.6398  -21.5183  -37.7381 H         1 UNK         0.0600 
    156 H156        3.1363  -21.2623  -37.5838 H         1 UNK         0.0600 
    157 H157        3.2704  -21.5976  -39.3098 H         1 UNK         0.0600 
    158 H158        2.6671  -22.8317  -38.2133 H         1 UNK         0.0600 
    159 H159        0.6608  -19.3254  -37.9747 H         1 UNK         0.3000 
    160 H160        0.9206  -17.2899  -38.6361 H         1 UNK         0.0600 
    161 H161        3.1037  -16.8457  -40.7415 H         1 UNK         0.0600 
    162 H162        3.3382  -16.8552  -38.9996 H         1 UNK         0.0600 
    163 H163        2.3736  -15.5874  -39.7439 H         1 UNK         0.0600 
    164 H164        0.6615  -16.4391  -41.2977 H         1 UNK         0.3000 
    165 H165       -2.2981  -18.0796  -42.3020 H         1 UNK         0.0600 
    166 H166       -2.0407  -15.1947  -41.2924 H         1 UNK         0.0600 
    167 H167       -3.2346  -15.7801  -42.4508 H         1 UNK         0.0600 
    168 H168       -3.2671  -16.3531  -40.7902 H         1 UNK         0.0600 
    169 H169       -0.5803  -15.8442  -43.1380 H         1 UNK         0.3000 
    170 H170        1.1121  -17.7006  -45.6206 H         1 UNK         0.0600 
    171 H171       -1.1397  -17.1658  -46.6108 H         1 UNK         0.0600 
    172 H172       -1.1505  -15.6293  -45.7937 H         1 UNK         0.0600 
    173 H173        0.0562  -15.9337  -47.0402 H         1 UNK         0.0600 
    174 H174        1.0051  -14.9257  -44.8547 H         1 UNK         0.3000 
    175 H175        3.4025  -15.0244  -42.2886 H         1 UNK         0.0600 
    176 H176        4.1362  -14.2518  -45.1639 H         1 UNK         0.0600 
    177 H177        4.9369  -13.6800  -43.6992 H         1 UNK         0.0600 
    178 H178        5.0374  -15.3736  -44.1510 H         1 UNK         0.0600 
    179 H179        2.5736  -12.8386  -43.8778 H         1 UNK         0.3000 
    180 H180       -0.7160  -12.3868  -42.7981 H         1 UNK         0.0600 
    181 H181        0.4966  -11.4871  -40.8018 H         1 UNK         0.0600 
    182 H182        1.7223  -10.7861  -41.8519 H         1 UNK         0.0600 
    183 H183        0.0579  -10.2044  -41.9177 H         1 UNK         0.0600 
    184 H184        0.9215  -10.6162  -44.2301 H         1 UNK         0.3000 
    185 H185        0.1867  -10.4686  -46.6310 H         1 UNK         0.0600 
    186 H186        2.6214  -10.6884  -46.0127 H         1 UNK         0.0600 
    187 H187        2.7091  -12.2343  -46.8505 H         1 UNK         0.0600 
    188 H188        2.4367  -10.7476  -47.7554 H         1 UNK         0.0600 
    189 H189       -0.1205  -13.1642  -47.5131 H         1 UNK         0.3000 
    190 H190       -1.2852  -20.1072  -45.3877 H         1 UNK         0.3000 
    191 H191       -3.6329  -20.4538  -46.8025 H         1 UNK         0.0600 
    192 H192       -4.7298  -20.1202  -44.5863 H         1 UNK         0.0600 
    193 H193       -3.3866  -19.0107  -44.8087 H         1 UNK         0.0600 
    194 H194       -3.2010  -20.4252  -43.7732 H         1 UNK         0.0600 
    195 H195       -1.9279  -22.9694  -44.9639 H         1 UNK         0.3000 
    196 H196       -4.0858  -24.7988  -44.6811 H         1 UNK         0.0600 
    197 H197       -2.2465  -26.4721  -44.3390 H         1 UNK         0.0600 
    198 H198       -1.9906  -25.0143  -43.3974 H         1 UNK         0.0600 
    199 H199       -1.0669  -25.2808  -44.8754 H         1 UNK         0.0600 
    200 H200       -2.2130  -23.9449  -47.5244 H         1 UNK         0.3000 
    201 H201       -2.8205  -26.3978  -49.0155 H         1 UNK         0.0600 
    202 H202       -0.6522  -25.1976  -49.3060 H         1 UNK         0.0600 
    203 H203       -1.5117  -23.7753  -49.8884 H         1 UNK         0.0600 
    204 H204       -1.5547  -25.2707  -50.8095 H         1 UNK         0.0600 
    205 H205       -5.1697  -25.7518  -48.2370 H         1 UNK         0.3000 
    206 H206       -7.2980  -25.3185  -48.7488 H         1 UNK         0.0600 
    207 H207       -6.7626  -26.7945  -50.6969 H         1 UNK         0.0600 
    208 H208       -8.0020  -25.6175  -51.1023 H         1 UNK         0.0600 
    209 H209       -6.3551  -25.3809  -51.6678 H         1 UNK         0.0600 
    210 H210       -6.2911  -23.1355  -47.7566 H         1 UNK         0.3000 
    211 H211       -6.4134  -20.9452  -47.4992 H         1 UNK         0.0600 
    212 H212       -8.4823  -20.8288  -49.7526 H         1 UNK         0.0600 
    213 H213       -8.1908  -19.6139  -48.5191 H         1 UNK         0.0600 
    214 H214       -8.8472  -21.1772  -48.0629 H         1 UNK         0.0600 
    215 H215       -4.4422  -22.1039  -49.0581 H         1 UNK         0.3000 
    216 H216       -2.5832  -21.6611  -50.1146 H         1 UNK         0.0600 
    217 H217       -3.4834  -18.7594  -50.4684 H         1 UNK         0.0600 
    218 H218       -1.8721  -19.3913  -50.7250 H         1 UNK         0.0600 
    219 H219       -2.5532  -19.3911  -49.1056 H         1 UNK         0.0600 
    220 H220       -5.5300  -21.5941  -51.6756 H         1 UNK         0.3000 
    221 H221       -4.8626  -20.8171  -54.2996 H         1 UNK         0.0600 
    222 H222       -7.0311  -22.7711  -53.3763 H         1 UNK         0.0600 
    223 H223       -7.1910  -21.0141  -53.4029 H         1 UNK         0.0600 
    224 H224       -6.9948  -21.9048  -54.9055 H         1 UNK         0.0600 
    225 H225       -4.2083  -23.8698  -52.6466 H         1 UNK         0.3000 
    226 H226       -3.6180  -25.3089  -55.1573 H         1 UNK         0.0600 
    227 H227       -4.6782  -26.4941  -53.2211 H         1 UNK         0.0600 
    228 H228       -3.1353  -27.1969  -53.6794 H         1 UNK         0.0600 
    229 H229       -3.2393  -26.1831  -52.2516 H         1 UNK         0.0600 
    230 H230       -1.9493  -23.1667  -52.9920 H         1 UNK         0.3000 
    231 H231        0.7352  -24.2667  -53.5680 H         1 UNK         0.0600 
    232 H232       -0.1773  -21.8900  -51.8685 H         1 UNK         0.0600 
    233 H233        0.3921  -23.4568  -51.2951 H         1 UNK         0.0600 
    234 H234        1.4939  -22.3684  -52.1117 H         1 UNK         0.0600 
    235 H235       -1.2630  -21.3349  -54.2765 H         1 UNK         0.3000 
    236 H236        0.0279  -20.8640  -56.8060 H         1 UNK         0.0600 
    237 H237        1.8028  -19.8925  -55.3220 H         1 UNK         0.0600 
    238 H238        0.9610  -18.5911  -56.1359 H         1 UNK         0.0600 
    239 H239        0.5885  -18.9590  -54.4563 H         1 UNK         0.0600 
    240 H240       -0.7631  -18.6567  -57.6073 H         1 UNK         0.3000 
    241 H241       -2.3586  -17.4773  -58.4370 H         1 UNK         0.0600 
    242 H242       -5.4264  -19.8181  -57.5353 H         1 UNK         0.3800 
    243 H243       -3.8559  -20.0592  -56.7866 H         1 UNK         0.3800 
    244 H244       -1.6234  -16.0009  -56.7401 H         1 UNK         0.0800 
    245 H245       -3.3181  -15.7403  -56.9560 H         1 UNK         0.0800 
    246 H246       -0.4718  -16.6219  -54.6552 H         1 UNK         0.0800 
    247 H247       -1.1582  -15.0507  -54.3020 H         1 UNK         0.0800 
@<TRIPOS>BOND
     1    1    2 1    
     2    1  127 1    
     3    1  128 1    
     4    1  129 1    
     5    2    3 2    
     6    2    4 am   BACKBONE|DICT|INTERRES
     7    4    5 1    
     8    4  130 1    
     9    5    6 1    
    10    5   65 1    
    11    5  131 1    
    12    6    7 1    
    13    6  132 1    
    14    6  133 1    
    15    7    8 1    
    16    8    9 1    
    17    8  134 1    
    18    8  135 1    
    19    9   10 ar   
    20    9   14 ar   
    21   10   11 ar   
    22   10  136 1    
    23   11   12 ar   
    24   11  126 1    
    25   12   13 ar   
    26   12  137 1    
    27   13   14 ar   
    28   13   15 1    
    29   14  138 1    
    30   15   16 1    
    31   15  139 1    
    32   15  140 1    
    33   16   17 1    
    34   17   18 1    
    35   17  141 1    
    36   17  142 1    
    37   18   19 1    
    38   18   67 1    
    39   18  143 1    
    40   19   20 am   BACKBONE|DICT|INTERRES
    41   19  144 1    
    42   20   21 2    
    43   20   22 1    
    44   22   23 1    
    45   22   24 1    
    46   22  145 1    
    47   23  146 1    
    48   23  147 1    
    49   23  148 1    
    50   24   25 am   BACKBONE|DICT|INTERRES
    51   24  149 1    
    52   25   26 2    
    53   25   27 1    
    54   27   28 1    
    55   27   29 1    
    56   27  150 1    
    57   28  151 1    
    58   28  152 1    
    59   28  153 1    
    60   29   30 am   BACKBONE|DICT|INTERRES
    61   29  154 1    
    62   30   31 2    
    63   30   32 1    
    64   32   33 1    
    65   32   34 1    
    66   32  155 1    
    67   33  156 1    
    68   33  157 1    
    69   33  158 1    
    70   34   35 am   BACKBONE|DICT|INTERRES
    71   34  159 1    
    72   35   36 2    
    73   35   37 1    
    74   37   38 1    
    75   37   39 1    
    76   37  160 1    
    77   38  161 1    
    78   38  162 1    
    79   38  163 1    
    80   39   40 am   BACKBONE|DICT|INTERRES
    81   39  164 1    
    82   40   41 2    
    83   40   42 1    
    84   42   43 1    
    85   42   44 1    
    86   42  165 1    
    87   43  166 1    
    88   43  167 1    
    89   43  168 1    
    90   44   45 am   BACKBONE|DICT|INTERRES
    91   44  169 1    
    92   45   46 2    
    93   45   47 1    
    94   47   48 1    
    95   47   49 1    
    96   47  170 1    
    97   48  171 1    
    98   48  172 1    
    99   48  173 1    
   100   49   50 am   BACKBONE|DICT|INTERRES
   101   49  174 1    
   102   50   51 2    
   103   50   52 1    
   104   52   53 1    
   105   52   54 1    
   106   52  175 1    
   107   53  176 1    
   108   53  177 1    
   109   53  178 1    
   110   54   55 am   BACKBONE|DICT|INTERRES
   111   54  179 1    
   112   55   56 2    
   113   55   57 1    
   114   57   58 1    
   115   57   59 1    
   116   57  180 1    
   117   58  181 1    
   118   58  182 1    
   119   58  183 1    
   120   59   60 am   BACKBONE|DICT|INTERRES
   121   59  184 1    
   122   60   61 2    
   123   60   62 1    
   124   62   63 1    
   125   62   64 1    
   126   62  185 1    
   127   63  186 1    
   128   63  187 1    
   129   63  188 1    
   130   64   65 am   BACKBONE|DICT|INTERRES
   131   64  189 1    
   132   65   66 2    
   133   67   68 2    
   134   67   69 am   BACKBONE|DICT|INTERRES
   135   69   70 1    
   136   69  190 1    
   137   70   71 1    
   138   70   72 1    
   139   70  191 1    
   140   71  192 1    
   141   71  193 1    
   142   71  194 1    
   143   72   73 2    
   144   72   74 am   BACKBONE|DICT|INTERRES
   145   74   75 1    
   146   74  195 1    
   147   75   76 1    
   148   75   77 1    
   149   75  196 1    
   150   76  197 1    
   151   76  198 1    
   152   76  199 1    
   153   77   78 2    
   154   77   79 am   BACKBONE|DICT|INTERRES
   155   79   80 1    
   156   79  200 1    
   157   80   81 1    
   158   80   82 1    
   159   80  201 1    
   160   81  202 1    
   161   81  203 1    
   162   81  204 1    
   163   82   83 2    
   164   82   84 am   BACKBONE|DICT|INTERRES
   165   84   85 1    
   166   84  205 1    
   167   85   86 1    
   168   85   87 1    
   169   85  206 1    
   170   86  207 1    
   171   86  208 1    
   172   86  209 1    
   173   87   88 2    
   174   87   89 am   BACKBONE|DICT|INTERRES
   175   89   90 1    
   176   89  210 1    
   177   90   91 1    
   178   90   92 1    
   179   90  211 1    
   180   91  212 1    
   181   91  213 1    
   182   91  214 1    
   183   92   93 2    
   184   92   94 am   BACKBONE|DICT|INTERRES
   185   94   95 1    
   186   94  215 1    
   187   95   96 1    
   188   95   97 1    
   189   95  216 1    
   190   96  217 1    
   191   96  218 1    
   192   96  219 1    
   193   97   98 2    
   194   97   99 am   BACKBONE|DICT|INTERRES
   195   99  100 1    
   196   99  220 1    
   197  100  101 1    
   198  100  102 1    
   199  100  221 1    
   200  101  222 1    
   201  101  223 1    
   202  101  224 1    
   203  102  103 2    
   204  102  104 am   BACKBONE|DICT|INTERRES
   205  104  105 1    
   206  104  225 1    
   207  105  106 1    
   208  105  107 1    
   209  105  226 1    
   210  106  227 1    
   211  106  228 1    
   212  106  229 1    
   213  107  108 2    
   214  107  109 am   BACKBONE|DICT|INTERRES
   215  109  110 1    
   216  109  230 1    
   217  110  111 1    
   218  110  112 1    
   219  110  231 1    
   220  111  232 1    
   221  111  233 1    
   222  111  234 1    
   223  112  113 2    
   224  112  114 am   BACKBONE|DICT|INTERRES
   225  114  115 1    
   226  114  235 1    
   227  115  116 1    
   228  115  117 1    
   229  115  236 1    
   230  116  237 1    
   231  116  238 1    
   232  116  239 1    
   233  117  118 2    
   234  117  119 am   BACKBONE|DICT|INTERRES
   235  119  120 1    
   236  119  240 1    
   237  120  121 1    
   238  120  124 1    
   239  120  241 1    
   240  121  122 am   BACKBONE|DICT|INTERRES
   241  121  123 2    
   242  122  242 1    
   243  122  243 1    
   244  124  125 1    
   245  124  244 1    
   246  124  245 1    
   247  125  126 1    
   248  126  246 1    
   249  126  247 1    
@<TRIPOS>SUBSTRUCTURE
     1 UNK         1 GROUP             0       ****    0 ROOT    
