@<TRIPOS>MOLECULE
3R540
247   249    1
SMALL
USER_CHARGES


@<TRIPOS>ATOM
      1 CA          4.8380  -13.4892  -51.5409 C.3       0 UNK        -0.1800 
      2 C           4.4475  -13.6372  -50.0776 C.2       0 UNK         0.5000 
      3 O           5.0277  -14.4577  -49.3657 O.2       0 UNK        -0.5000 
      4 N           3.4791  -12.8367  -49.6160 N.am      1 UNK        -0.5000 
      5 CA          2.9270  -12.8434  -48.2541 C.3       1 UNK         0.1400 
      6 C6          1.4821  -12.2795  -48.2148 C.3       23 UNK        -0.0398 
      7 S7          0.3344  -13.2461  -49.2477 S.3       23 UNK        -0.2404 
      8 C8         -0.2636  -14.4372  -48.0135 C.3       23 UNK        -0.0205 
      9 C9         -0.9712  -15.6063  -48.6724 C.ar      23 UNK        -0.0193 
     10 C10        -2.3640  -15.7059  -48.6348 C.ar      23 UNK        -0.1150 
     11 C11        -3.0148  -16.8177  -49.1775 C.ar      23 UNK        -0.0193 
     12 C12        -2.2504  -17.8267  -49.7782 C.ar      23 UNK        -0.1150 
     13 C13        -0.8594  -17.7161  -49.8602 C.ar      23 UNK        -0.0193 
     14 C14        -0.2246  -16.6095  -49.2938 C.ar      23 UNK        -0.1150 
     15 C15        -0.0393  -18.7841  -50.5674 C.3       23 UNK        -0.0205 
     16 S16         0.6848  -19.9743  -49.3992 S.3       23 UNK        -0.2404 
     17 C17        -0.8195  -20.7969  -48.7886 C.3       23 UNK        -0.0398 
     18 CA         -0.5014  -22.0504  -47.9463 C.3       11 UNK         0.1400 
     19 N           0.1554  -21.7264  -46.6738 N.am      11 UNK        -0.5000 
     20 C           0.6570  -22.6367  -45.8270 C.2       10 UNK         0.5000 
     21 O           0.6537  -23.8461  -46.0484 O.2       10 UNK        -0.5000 
     22 CA          1.1901  -22.1293  -44.4766 C.3       10 UNK         0.1400 
     23 CB          2.5938  -21.5241  -44.6235 C.3       10 UNK        -0.1800 
     24 N           0.2826  -21.1696  -43.8479 N.am      10 UNK        -0.5000 
     25 C          -0.9629  -21.4653  -43.4465 C.2       9 UNK         0.5000 
     26 O          -1.4495  -22.5941  -43.5102 O.2       9 UNK        -0.5000 
     27 CA         -1.8267  -20.3038  -42.9232 C.3       9 UNK         0.1400 
     28 CB         -1.5337  -20.0367  -41.4399 C.3       9 UNK        -0.1800 
     29 N          -1.6524  -19.0710  -43.6920 N.am      9 UNK        -0.5000 
     30 C          -1.9556  -18.9313  -44.9909 C.2       8 UNK         0.5000 
     31 O          -2.4562  -19.8228  -45.6767 O.2       8 UNK        -0.5000 
     32 CA         -1.5840  -17.5883  -45.6464 C.3       8 UNK         0.1400 
     33 CB         -2.6060  -16.4984  -45.2886 C.3       8 UNK        -0.1800 
     34 N          -0.2367  -17.1415  -45.2867 N.am      8 UNK        -0.5000 
     35 C           0.8820  -17.8244  -45.5716 C.2       7 UNK         0.5000 
     36 O           0.8976  -18.8780  -46.2059 O.2       7 UNK        -0.5000 
     37 CA          2.1940  -17.2799  -44.9811 C.3       7 UNK         0.1400 
     38 CB          2.7816  -16.1520  -45.8461 C.3       7 UNK        -0.1800 
     39 N           2.0086  -16.8278  -43.6005 N.am      7 UNK        -0.5000 
     40 C           1.7909  -17.6592  -42.5695 C.2       6 UNK         0.5000 
     41 O           1.8199  -18.8853  -42.6672 O.2       6 UNK        -0.5000 
     42 CA          1.4206  -17.0242  -41.2172 C.3       6 UNK         0.1400 
     43 CB          2.6659  -16.7763  -40.3562 C.3       6 UNK        -0.1800 
     44 N           0.6645  -15.7815  -41.3786 N.am      6 UNK        -0.5000 
     45 C          -0.6188  -15.7502  -41.7676 C.2       5 UNK         0.5000 
     46 O          -1.2810  -16.7627  -41.9901 O.2       5 UNK        -0.5000 
     47 CA         -1.2693  -14.3714  -41.9829 C.3       5 UNK         0.1400 
     48 CB         -1.9753  -13.9053  -40.7014 C.3       5 UNK        -0.1800 
     49 N          -0.3308  -13.3374  -42.4172 N.am      5 UNK        -0.5000 
     50 C           0.3643  -13.3550  -43.5619 C.2       4 UNK         0.5000 
     51 O           0.2886  -14.2660  -44.3889 O.2       4 UNK        -0.5000 
     52 CA          1.3274  -12.1761  -43.8180 C.3       4 UNK         0.1400 
     53 CB          1.1568  -10.9964  -42.8349 C.3       4 UNK        -0.1800 
     54 N           2.7321  -12.5950  -43.8509 N.am      4 UNK        -0.5000 
     55 C           3.4041  -13.2783  -42.9092 C.2       3 UNK         0.5000 
     56 O           2.8805  -13.7044  -41.8789 O.2       3 UNK        -0.5000 
     57 CA          4.9073  -13.5369  -43.1520 C.3       3 UNK         0.1400 
     58 CB          5.2937  -14.9959  -42.8560 C.3       3 UNK        -0.1800 
     59 N           5.3092  -13.2121  -44.5224 N.am      3 UNK        -0.5000 
     60 C           5.9668  -12.1048  -44.8910 C.2       2 UNK         0.5000 
     61 O           6.3604  -11.2426  -44.1049 O.2       2 UNK        -0.5000 
     62 CA          6.1975  -11.9150  -46.4030 C.3       2 UNK         0.1400 
     63 CB          7.5523  -12.5062  -46.8206 C.3       2 UNK        -0.1800 
     64 N           5.1443  -12.4983  -47.2401 N.am      2 UNK        -0.5000 
     65 C           3.8577  -12.1256  -47.2487 C.2       1 UNK         0.5000 
     66 O           3.4060  -11.2628  -46.4943 O.2       1 UNK        -0.5000 
     67 C          -1.7800  -22.8867  -47.7427 C.2       11 UNK         0.5000 
     68 O          -1.9808  -23.8675  -48.4610 O.2       11 UNK        -0.5000 
     69 N          -2.6040  -22.5135  -46.7541 N.am      12 UNK        -0.5000 
     70 CA         -3.8269  -23.2284  -46.3837 C.3       12 UNK         0.1400 
     71 CB         -4.5992  -22.4141  -45.3356 C.3       12 UNK        -0.1800 
     72 C          -3.5715  -24.6628  -45.8806 C.2       12 UNK         0.5000 
     73 O          -4.4157  -25.5322  -46.0930 O.2       12 UNK        -0.5000 
     74 N          -2.4176  -24.8872  -45.2406 N.am      13 UNK        -0.5000 
     75 CA         -1.9683  -26.1996  -44.7893 C.3       13 UNK         0.1400 
     76 CB         -0.9968  -26.0257  -43.6105 C.3       13 UNK        -0.1800 
     77 C          -1.3172  -27.0118  -45.9235 C.2       13 UNK         0.5000 
     78 O          -1.6924  -28.1659  -46.1333 O.2       13 UNK        -0.5000 
     79 N          -0.3287  -26.4154  -46.6041 N.am      14 UNK        -0.5000 
     80 CA          0.5423  -27.1013  -47.5580 C.3       14 UNK         0.1400 
     81 CB          1.8557  -26.3175  -47.7113 C.3       14 UNK        -0.1800 
     82 C          -0.1089  -27.3309  -48.9299 C.2       14 UNK         0.5000 
     83 O          -0.0372  -28.4456  -49.4499 O.2       14 UNK        -0.5000 
     84 N          -0.7052  -26.2778  -49.5030 N.am      15 UNK        -0.5000 
     85 CA         -1.3405  -26.3225  -50.8196 C.3       15 UNK         0.1400 
     86 CB         -1.1403  -24.9814  -51.5479 C.3       15 UNK        -0.1800 
     87 C          -2.8299  -26.6617  -50.6867 C.2       15 UNK         0.5000 
     88 O          -3.3155  -27.5451  -51.3934 O.2       15 UNK        -0.5000 
     89 N          -3.5180  -25.9483  -49.7807 N.am      16 UNK        -0.5000 
     90 CA         -4.9423  -26.0788  -49.4419 C.3       16 UNK         0.1400 
     91 CB         -5.2104  -27.4402  -48.7668 C.3       16 UNK        -0.1800 
     92 C          -5.9021  -25.8106  -50.6249 C.2       16 UNK         0.5000 
     93 O          -7.0488  -26.2602  -50.6005 O.2       16 UNK        -0.5000 
     94 N          -5.4220  -25.0783  -51.6393 N.am      17 UNK        -0.5000 
     95 CA         -6.1247  -24.8240  -52.8997 C.3       17 UNK         0.1400 
     96 CB         -5.0832  -24.7431  -54.0278 C.3       17 UNK        -0.1800 
     97 C          -7.0081  -23.5601  -52.8630 C.2       17 UNK         0.5000 
     98 O          -7.6387  -23.2404  -53.8722 O.2       17 UNK        -0.5000 
     99 N          -7.0323  -22.8600  -51.7180 N.am      18 UNK        -0.5000 
    100 CA        -7.7736  -21.6243  -51.4497 C.3       18 UNK         0.1400 
    101 CB        -9.2929  -21.9030  -51.3985 C.3       18 UNK        -0.1800 
    102 C         -7.3625  -20.5063  -52.4280 C.2       18 UNK         0.5000 
    103 O         -6.1722  -20.2037  -52.5152 O.2       18 UNK        -0.5000 
    104 N         -8.3215  -19.9366  -53.1704 N.am      19 UNK        -0.5000 
    105 CA        -8.1232  -18.8490  -54.1337 C.3       19 UNK         0.1400 
    106 CB        -9.4740  -18.4908  -54.7704 C.3       19 UNK        -0.1800 
    107 C         -7.0734  -19.1370  -55.2261 C.2       19 UNK         0.5000 
    108 O         -6.4171  -18.2037  -55.6881 O.2       19 UNK        -0.5000 
    109 N         -6.8956  -20.4149  -55.5898 N.am      20 UNK        -0.5000 
    110 CA        -5.8688  -20.8604  -56.5330 C.3       20 UNK         0.1400 
    111 CB        -6.2013  -22.2804  -57.0109 C.3       20 UNK        -0.1800 
    112 C         -4.4367  -20.7861  -55.9621 C.2       20 UNK         0.5000 
    113 O         -3.4909  -20.6850  -56.7445 O.2       20 UNK        -0.5000 
    114 N         -4.2948  -20.8167  -54.6287 N.am      21 UNK        -0.5000 
    115 CA        -3.0315  -20.5722  -53.9331 C.3       21 UNK         0.1400 
    116 CB        -2.9658  -21.4090  -52.6427 C.3       21 UNK        -0.1800 
    117 C         -2.8620  -19.0756  -53.6216 C.2       21 UNK         0.5000 
    118 O         -1.7689  -18.5417  -53.8115 O.2       21 UNK        -0.5000 
    119 N         -3.9367  -18.4323  -53.1443 N.am      22 UNK        -0.5000 
    120 CA        -3.9434  -17.0156  -52.7402 C.3       22 UNK         0.1400 
    121 C         -3.8474  -16.0026  -53.9157 C.2       22 UNK         0.5000 
    122 N         -4.3284  -16.3216  -55.1104 N.am      22 UNK        -0.7600 
    123 O         -3.3234  -14.9060  -53.7412 O.2       22 UNK        -0.5000 
    124 C124       -5.1412  -16.6612  -51.8199 C.3       23 UNK        -0.0398 
    125 S125       -5.3640  -17.8027  -50.4103 S.3       23 UNK        -0.2404 
    126 C126       -4.5334  -16.9186  -49.0487 C.3       23 UNK        -0.0205 
    127 H127        5.8891  -13.2122  -51.6224 H         1 UNK         0.0600 
    128 H128        4.2443  -12.7253  -52.0436 H         1 UNK         0.0600 
    129 H129        4.6911  -14.4336  -52.0649 H         1 UNK         0.0600 
    130 H130        3.0543  -12.1721  -50.2471 H         1 UNK         0.3000 
    131 H131        2.8753  -13.8815  -47.9199 H         1 UNK         0.0600 
    132 H132        1.4662  -11.2443  -48.5598 H         1 UNK         0.0800 
    133 H133        1.0937  -12.2644  -47.1953 H         1 UNK         0.0800 
    134 H134        0.5739  -14.8188  -47.4301 H         1 UNK         0.0800 
    135 H135       -0.9227  -13.9306  -47.3066 H         1 UNK         0.0800 
    136 H136       -2.9409  -14.9293  -48.1526 H         1 UNK         0.1150 
    137 H137       -2.7356  -18.6971  -50.1959 H         1 UNK         0.1150 
    138 H138        0.8529  -16.5305  -49.3330 H         1 UNK         0.1150 
    139 H139       -0.6486  -19.3130  -51.3010 H         1 UNK         0.0800 
    140 H140        0.7652  -18.3097  -51.1312 H         1 UNK         0.0800 
    141 H141       -1.4283  -21.0593  -49.6560 H         1 UNK         0.0800 
    142 H142       -1.4007  -20.0821  -48.2039 H         1 UNK         0.0800 
    143 H143        0.1903  -22.6737  -48.5174 H         1 UNK         0.0600 
    144 H144        0.2361  -20.7401  -46.4417 H         1 UNK         0.3000 
    145 H145        1.2686  -22.9910  -43.8103 H         1 UNK         0.0600 
    146 H146        3.2849  -22.2478  -45.0571 H         1 UNK         0.0600 
    147 H147        2.5940  -20.6463  -45.2684 H         1 UNK         0.0600 
    148 H148        2.9985  -21.2284  -43.6555 H         1 UNK         0.0600 
    149 H149        0.6336  -20.2275  -43.7173 H         1 UNK         0.3000 
    150 H150       -2.8730  -20.6020  -43.0124 H         1 UNK         0.0600 
    151 H151       -1.6942  -20.9353  -40.8428 H         1 UNK         0.0600 
    152 H152       -2.1872  -19.2606  -41.0415 H         1 UNK         0.0600 
    153 H153       -0.5025  -19.7198  -41.2849 H         1 UNK         0.0600 
    154 H154       -1.3026  -18.2647  -43.1820 H         1 UNK         0.3000 
    155 H155       -1.6005  -17.7368  -46.7270 H         1 UNK         0.0600 
    156 H156       -2.7109  -16.3766  -44.2112 H         1 UNK         0.0600 
    157 H157       -2.3205  -15.5327  -45.7051 H         1 UNK         0.0600 
    158 H158       -3.5904  -16.7483  -45.6858 H         1 UNK         0.0600 
    159 H159       -0.1574  -16.2630  -44.7871 H         1 UNK         0.3000 
    160 H160        2.9140  -18.1012  -44.9792 H         1 UNK         0.0600 
    161 H161        2.2064  -15.2315  -45.7694 H         1 UNK         0.0600 
    162 H162        2.8040  -16.4384  -46.8987 H         1 UNK         0.0600 
    163 H163        3.8069  -15.9282  -45.5561 H         1 UNK         0.0600 
    164 H164        1.8993  -15.8348  -43.4518 H         1 UNK         0.3000 
    165 H165        0.7928  -17.7389  -40.6811 H         1 UNK         0.0600 
    166 H166        2.3944  -16.3936  -39.3723 H         1 UNK         0.0600 
    167 H167        3.2250  -17.7003  -40.2038 H         1 UNK         0.0600 
    168 H168        3.3396  -16.0589  -40.8188 H         1 UNK         0.0600 
    169 H169        1.1760  -14.9133  -41.2667 H         1 UNK         0.3000 
    170 H170       -2.0223  -14.4830  -42.7654 H         1 UNK         0.0600 
    171 H171       -2.7025  -14.6457  -40.3649 H         1 UNK         0.0600 
    172 H172       -1.2673  -13.7466  -39.8869 H         1 UNK         0.0600 
    173 H173       -2.5155  -12.9726  -40.8647 H         1 UNK         0.0600 
    174 H174       -0.1860  -12.5655  -41.7830 H         1 UNK         0.3000 
    175 H175        1.0901  -11.8059  -44.8156 H         1 UNK         0.0600 
    176 H176        1.4183  -11.2693  -41.8118 H         1 UNK         0.0600 
    177 H177        1.7952  -10.1607  -43.1224 H         1 UNK         0.0600 
    178 H178        0.1309  -10.6256  -42.8340 H         1 UNK         0.0600 
    179 H179        3.2485  -12.2705  -44.6596 H         1 UNK         0.3000 
    180 H180        5.4499  -12.9057  -42.4457 H         1 UNK         0.0600 
    181 H181        4.6590  -15.7057  -43.3849 H         1 UNK         0.0600 
    182 H182        5.2115  -15.2078  -41.7905 H         1 UNK         0.0600 
    183 H183        6.3276  -15.1960  -43.1377 H         1 UNK         0.0600 
    184 H184        5.0341  -13.8636  -45.2426 H         1 UNK         0.3000 
    185 H185        6.2183  -10.8408  -46.5981 H         1 UNK         0.0600 
    186 H186        8.3651  -12.0756  -46.2340 H         1 UNK         0.0600 
    187 H187        7.5803  -13.5873  -46.6781 H         1 UNK         0.0600 
    188 H188        7.7657  -12.3006  -47.8698 H         1 UNK         0.0600 
    189 H189        5.4222  -13.2248  -47.8937 H         1 UNK         0.3000 
    190 H190       -2.3989  -21.6633  -46.2351 H         1 UNK         0.3000 
    191 H191       -4.4480  -23.3010  -47.2785 H         1 UNK         0.0600 
    192 H192       -4.0266  -22.2987  -44.4155 H         1 UNK         0.0600 
    193 H193       -5.5399  -22.9019  -45.0776 H         1 UNK         0.0600 
    194 H194       -4.8400  -21.4182  -45.7079 H         1 UNK         0.0600 
    195 H195       -1.8054  -24.1022  -45.0527 H         1 UNK         0.3000 
    196 H196       -2.8300  -26.7638  -44.4257 H         1 UNK         0.0600 
    197 H197       -0.6434  -26.9921  -43.2489 H         1 UNK         0.0600 
    198 H198       -1.4822  -25.5222  -42.7742 H         1 UNK         0.0600 
    199 H199       -0.1216  -25.4372  -43.8878 H         1 UNK         0.0600 
    200 H200       -0.0712  -25.4577  -46.3703 H         1 UNK         0.3000 
    201 H201        0.7933  -28.0806  -47.1443 H         1 UNK         0.0600 
    202 H202        2.3605  -26.2034  -46.7518 H         1 UNK         0.0600 
    203 H203        1.6866  -25.3205  -48.1199 H         1 UNK         0.0600 
    204 H204        2.5433  -26.8344  -48.3817 H         1 UNK         0.0600 
    205 H205       -0.7998  -25.4136  -48.9815 H         1 UNK         0.3000 
    206 H206       -0.8723  -27.0969  -51.4312 H         1 UNK         0.0600 
    207 H207       -1.5751  -25.0152  -52.5477 H         1 UNK         0.0600 
    208 H208       -1.6040  -24.1479  -51.0210 H         1 UNK         0.0600 
    209 H209       -0.0808  -24.7529  -51.6632 H         1 UNK         0.0600 
    210 H210       -3.0090  -25.2345  -49.2642 H         1 UNK         0.3000 
    211 H211       -5.1507  -25.2994  -48.7090 H         1 UNK         0.0600 
    212 H212       -5.1174  -28.2674  -49.4709 H         1 UNK         0.0600 
    213 H213       -6.2161  -27.4781  -48.3470 H         1 UNK         0.0600 
    214 H214       -4.5129  -27.6179  -47.9479 H         1 UNK         0.0600 
    215 H215       -4.4731  -24.7413  -51.5742 H         1 UNK         0.3000 
    216 H216       -6.7810  -25.6696  -53.1157 H         1 UNK         0.0600 
    217 H217       -4.5205  -23.8106  -53.9985 H         1 UNK         0.0600 
    218 H218       -5.5666  -24.8063  -55.0022 H         1 UNK         0.0600 
    219 H219       -4.3726  -25.5684  -53.9742 H         1 UNK         0.0600 
    220 H220       -6.4483  -23.1915  -50.9651 H         1 UNK         0.3000 
    221 H221       -7.4653  -21.2854  -50.4597 H         1 UNK         0.0600 
    222 H222       -9.6849  -22.2418  -52.3581 H         1 UNK         0.0600 
    223 H223       -9.5192  -22.6748  -50.6627 H         1 UNK         0.0600 
    224 H224       -9.8486  -21.0118  -51.1043 H         1 UNK         0.0600 
    225 H225       -9.2683  -20.2690  -53.0599 H         1 UNK         0.3000 
    226 H226       -7.7720  -17.9817  -53.5721 H         1 UNK         0.0600 
    227 H227      -10.1967  -18.1795  -54.0159 H         1 UNK         0.0600 
    228 H228       -9.3675  -17.6653  -55.4757 H         1 UNK         0.0600 
    229 H229       -9.8978  -19.3356  -55.3149 H         1 UNK         0.0600 
    230 H230       -7.4479  -21.1340  -55.1404 H         1 UNK         0.3000 
    231 H231       -5.9004  -20.2022  -57.4039 H         1 UNK         0.0600 
    232 H232       -5.4501  -22.6462  -57.7121 H         1 UNK         0.0600 
    233 H233       -7.1640  -22.3084  -57.5213 H         1 UNK         0.0600 
    234 H234       -6.2449  -22.9805  -56.1793 H         1 UNK         0.0600 
    235 H235       -5.1253  -20.8364  -54.0464 H         1 UNK         0.3000 
    236 H236       -2.1959  -20.8798  -54.5655 H         1 UNK         0.0600 
    237 H237       -3.0103  -22.4751  -52.8596 H         1 UNK         0.0600 
    238 H238       -2.0288  -21.2318  -52.1144 H         1 UNK         0.0600 
    239 H239       -3.7777  -21.1706  -51.9554 H         1 UNK         0.0600 
    240 H240       -4.7846  -18.9598  -52.9588 H         1 UNK         0.3000 
    241 H241       -3.0372  -16.8551  -52.1558 H         1 UNK         0.0600 
    242 H242       -4.8597  -17.1748  -55.2565 H         1 UNK         0.3800 
    243 H243       -4.2524  -15.6564  -55.8629 H         1 UNK         0.3800 
    244 H244       -5.0378  -15.6442  -51.4375 H         1 UNK         0.0800 
    245 H245       -6.0678  -16.6724  -52.3953 H         1 UNK         0.0800 
    246 H246       -4.7574  -17.4394  -48.1170 H         1 UNK         0.0800 
    247 H247       -4.9755  -15.9251  -48.9589 H         1 UNK         0.0800 
@<TRIPOS>BOND
     1    1    2 1    
     2    1  127 1    
     3    1  128 1    
     4    1  129 1    
     5    2    3 2    
     6    2    4 am   BACKBONE|DICT|INTERRES
     7    4    5 1    
     8    4  130 1    
     9    5    6 1    
    10    5   65 1    
    11    5  131 1    
    12    6    7 1    
    13    6  132 1    
    14    6  133 1    
    15    7    8 1    
    16    8    9 1    
    17    8  134 1    
    18    8  135 1    
    19    9   10 ar   
    20    9   14 ar   
    21   10   11 ar   
    22   10  136 1    
    23   11   12 ar   
    24   11  126 1    
    25   12   13 ar   
    26   12  137 1    
    27   13   14 ar   
    28   13   15 1    
    29   14  138 1    
    30   15   16 1    
    31   15  139 1    
    32   15  140 1    
    33   16   17 1    
    34   17   18 1    
    35   17  141 1    
    36   17  142 1    
    37   18   19 1    
    38   18   67 1    
    39   18  143 1    
    40   19   20 am   BACKBONE|DICT|INTERRES
    41   19  144 1    
    42   20   21 2    
    43   20   22 1    
    44   22   23 1    
    45   22   24 1    
    46   22  145 1    
    47   23  146 1    
    48   23  147 1    
    49   23  148 1    
    50   24   25 am   BACKBONE|DICT|INTERRES
    51   24  149 1    
    52   25   26 2    
    53   25   27 1    
    54   27   28 1    
    55   27   29 1    
    56   27  150 1    
    57   28  151 1    
    58   28  152 1    
    59   28  153 1    
    60   29   30 am   BACKBONE|DICT|INTERRES
    61   29  154 1    
    62   30   31 2    
    63   30   32 1    
    64   32   33 1    
    65   32   34 1    
    66   32  155 1    
    67   33  156 1    
    68   33  157 1    
    69   33  158 1    
    70   34   35 am   BACKBONE|DICT|INTERRES
    71   34  159 1    
    72   35   36 2    
    73   35   37 1    
    74   37   38 1    
    75   37   39 1    
    76   37  160 1    
    77   38  161 1    
    78   38  162 1    
    79   38  163 1    
    80   39   40 am   BACKBONE|DICT|INTERRES
    81   39  164 1    
    82   40   41 2    
    83   40   42 1    
    84   42   43 1    
    85   42   44 1    
    86   42  165 1    
    87   43  166 1    
    88   43  167 1    
    89   43  168 1    
    90   44   45 am   BACKBONE|DICT|INTERRES
    91   44  169 1    
    92   45   46 2    
    93   45   47 1    
    94   47   48 1    
    95   47   49 1    
    96   47  170 1    
    97   48  171 1    
    98   48  172 1    
    99   48  173 1    
   100   49   50 am   BACKBONE|DICT|INTERRES
   101   49  174 1    
   102   50   51 2    
   103   50   52 1    
   104   52   53 1    
   105   52   54 1    
   106   52  175 1    
   107   53  176 1    
   108   53  177 1    
   109   53  178 1    
   110   54   55 am   BACKBONE|DICT|INTERRES
   111   54  179 1    
   112   55   56 2    
   113   55   57 1    
   114   57   58 1    
   115   57   59 1    
   116   57  180 1    
   117   58  181 1    
   118   58  182 1    
   119   58  183 1    
   120   59   60 am   BACKBONE|DICT|INTERRES
   121   59  184 1    
   122   60   61 2    
   123   60   62 1    
   124   62   63 1    
   125   62   64 1    
   126   62  185 1    
   127   63  186 1    
   128   63  187 1    
   129   63  188 1    
   130   64   65 am   BACKBONE|DICT|INTERRES
   131   64  189 1    
   132   65   66 2    
   133   67   68 2    
   134   67   69 am   BACKBONE|DICT|INTERRES
   135   69   70 1    
   136   69  190 1    
   137   70   71 1    
   138   70   72 1    
   139   70  191 1    
   140   71  192 1    
   141   71  193 1    
   142   71  194 1    
   143   72   73 2    
   144   72   74 am   BACKBONE|DICT|INTERRES
   145   74   75 1    
   146   74  195 1    
   147   75   76 1    
   148   75   77 1    
   149   75  196 1    
   150   76  197 1    
   151   76  198 1    
   152   76  199 1    
   153   77   78 2    
   154   77   79 am   BACKBONE|DICT|INTERRES
   155   79   80 1    
   156   79  200 1    
   157   80   81 1    
   158   80   82 1    
   159   80  201 1    
   160   81  202 1    
   161   81  203 1    
   162   81  204 1    
   163   82   83 2    
   164   82   84 am   BACKBONE|DICT|INTERRES
   165   84   85 1    
   166   84  205 1    
   167   85   86 1    
   168   85   87 1    
   169   85  206 1    
   170   86  207 1    
   171   86  208 1    
   172   86  209 1    
   173   87   88 2    
   174   87   89 am   BACKBONE|DICT|INTERRES
   175   89   90 1    
   176   89  210 1    
   177   90   91 1    
   178   90   92 1    
   179   90  211 1    
   180   91  212 1    
   181   91  213 1    
   182   91  214 1    
   183   92   93 2    
   184   92   94 am   BACKBONE|DICT|INTERRES
   185   94   95 1    
   186   94  215 1    
   187   95   96 1    
   188   95   97 1    
   189   95  216 1    
   190   96  217 1    
   191   96  218 1    
   192   96  219 1    
   193   97   98 2    
   194   97   99 am   BACKBONE|DICT|INTERRES
   195   99  100 1    
   196   99  220 1    
   197  100  101 1    
   198  100  102 1    
   199  100  221 1    
   200  101  222 1    
   201  101  223 1    
   202  101  224 1    
   203  102  103 2    
   204  102  104 am   BACKBONE|DICT|INTERRES
   205  104  105 1    
   206  104  225 1    
   207  105  106 1    
   208  105  107 1    
   209  105  226 1    
   210  106  227 1    
   211  106  228 1    
   212  106  229 1    
   213  107  108 2    
   214  107  109 am   BACKBONE|DICT|INTERRES
   215  109  110 1    
   216  109  230 1    
   217  110  111 1    
   218  110  112 1    
   219  110  231 1    
   220  111  232 1    
   221  111  233 1    
   222  111  234 1    
   223  112  113 2    
   224  112  114 am   BACKBONE|DICT|INTERRES
   225  114  115 1    
   226  114  235 1    
   227  115  116 1    
   228  115  117 1    
   229  115  236 1    
   230  116  237 1    
   231  116  238 1    
   232  116  239 1    
   233  117  118 2    
   234  117  119 am   BACKBONE|DICT|INTERRES
   235  119  120 1    
   236  119  240 1    
   237  120  121 1    
   238  120  124 1    
   239  120  241 1    
   240  121  122 am   BACKBONE|DICT|INTERRES
   241  121  123 2    
   242  122  242 1    
   243  122  243 1    
   244  124  125 1    
   245  124  244 1    
   246  124  245 1    
   247  125  126 1    
   248  126  246 1    
   249  126  247 1    
@<TRIPOS>SUBSTRUCTURE
     1 UNK         1 GROUP             0       ****    0 ROOT    
