@<TRIPOS>MOLECULE
3R540
247   249    1
SMALL
USER_CHARGES


@<TRIPOS>ATOM
      1 CA          3.9742  -15.2613  -45.5965 C.3       0 UNK        -0.1800 
      2 C           4.3578  -14.5542  -46.8862 C.2       0 UNK         0.5000 
      3 O           5.4201  -13.9373  -46.9606 O.2       0 UNK        -0.5000 
      4 N           3.4740  -14.6043  -47.8909 N.am      1 UNK        -0.5000 
      5 CA          3.5682  -13.9609  -49.2105 C.3       1 UNK         0.1400 
      6 C6          4.8905  -14.2598  -49.9740 C.3       23 UNK        -0.0398 
      7 S7          4.6191  -14.5625  -51.7524 S.3       23 UNK        -0.2404 
      8 C8          4.7378  -16.3800  -51.8362 C.3       23 UNK        -0.0205 
      9 C9          3.5089  -17.0608  -51.2498 C.ar      23 UNK        -0.0193 
     10 C10         2.4128  -17.3525  -52.0658 C.ar      23 UNK        -0.1150 
     11 C11         1.2834  -17.9866  -51.5401 C.ar      23 UNK        -0.0193 
     12 C12         1.2430  -18.3015  -50.1781 C.ar      23 UNK        -0.1150 
     13 C13         2.3357  -18.0207  -49.3510 C.ar      23 UNK        -0.0193 
     14 C14         3.4700  -17.4139  -49.8978 C.ar      23 UNK        -0.1150 
     15 C15         2.2937  -18.3457  -47.8646 C.3       23 UNK        -0.0205 
     16 S16         2.5884  -20.1119  -47.5291 S.3       23 UNK        -0.2404 
     17 C17         0.8818  -20.7515  -47.4746 C.3       23 UNK        -0.0398 
     18 CA          0.7968  -22.2316  -47.0420 C.3       11 UNK         0.1400 
     19 N           1.4212  -22.4857  -45.7420 N.am      11 UNK        -0.5000 
     20 C           1.6881  -23.7068  -45.2582 C.2       10 UNK         0.5000 
     21 O           1.4584  -24.7500  -45.8686 O.2       10 UNK        -0.5000 
     22 CA          2.2668  -23.7724  -43.8340 C.3       10 UNK         0.1400 
     23 CB          3.7938  -23.6132  -43.8629 C.3       10 UNK        -0.1800 
     24 N           1.6937  -22.7635  -42.9428 N.am      10 UNK        -0.5000 
     25 C           0.4039  -22.6780  -42.5962 C.2       9 UNK         0.5000 
     26 O          -0.4585  -23.4641  -42.9881 O.2       9 UNK        -0.5000 
     27 CA         -0.0038  -21.4950  -41.7023 C.3       9 UNK         0.1400 
     28 CB          0.3402  -21.7535  -40.2243 C.3       9 UNK        -0.1800 
     29 N           0.5113  -20.2020  -42.1643 N.am      9 UNK        -0.5000 
     30 C           1.7662  -19.7295  -42.1876 C.2       8 UNK         0.5000 
     31 O           2.7542  -20.3678  -41.8230 O.2       8 UNK        -0.5000 
     32 CA          1.9404  -18.2989  -42.7333 C.3       8 UNK         0.1400 
     33 CB          2.1122  -18.3385  -44.2586 C.3       8 UNK        -0.1800 
     34 N           0.8076  -17.4320  -42.4020 N.am      8 UNK        -0.5000 
     35 C           0.4783  -17.0428  -41.1610 C.2       7 UNK         0.5000 
     36 O           1.1640  -17.2710  -40.1639 O.2       7 UNK        -0.5000 
     37 CA         -0.8698  -16.3176  -41.0057 C.3       7 UNK         0.1400 
     38 CB         -0.7272  -14.8122  -41.2839 C.3       7 UNK        -0.1800 
     39 N          -1.8862  -16.8948  -41.8881 N.am      7 UNK        -0.5000 
     40 C          -2.5224  -18.0522  -41.6506 C.2       6 UNK         0.5000 
     41 O          -2.3759  -18.7134  -40.6230 O.2       6 UNK        -0.5000 
     42 CA         -3.4664  -18.5752  -42.7505 C.3       6 UNK         0.1400 
     43 CB         -4.9039  -18.0966  -42.4999 C.3       6 UNK        -0.1800 
     44 N          -3.0545  -18.1664  -44.0933 N.am      6 UNK        -0.5000 
     45 C          -2.0064  -18.6734  -44.7558 C.2       5 UNK         0.5000 
     46 O          -1.3044  -19.5924  -44.3338 O.2       5 UNK        -0.5000 
     47 CA         -1.6599  -18.0172  -46.1033 C.3       5 UNK         0.1400 
     48 CB         -2.3637  -18.7443  -47.2554 C.3       5 UNK        -0.1800 
     49 N          -1.9719  -16.5876  -46.1652 N.am      5 UNK        -0.5000 
     50 C          -1.4045  -15.6585  -45.3863 C.2       4 UNK         0.5000 
     51 O          -0.5887  -15.9220  -44.4996 O.2       4 UNK        -0.5000 
     52 CA         -1.8934  -14.2126  -45.5878 C.3       4 UNK         0.1400 
     53 CB         -3.1754  -13.9780  -44.7728 C.3       4 UNK        -0.1800 
     54 N          -0.9043  -13.2074  -45.1972 N.am      4 UNK        -0.5000 
     55 C           0.2970  -13.0447  -45.7634 C.2       3 UNK         0.5000 
     56 O           0.7235  -13.7370  -46.6933 O.2       3 UNK        -0.5000 
     57 CA          1.1637  -11.9140  -45.1860 C.3       3 UNK         0.1400 
     58 CB          1.7847  -12.3356  -43.8438 C.3       3 UNK        -0.1800 
     59 N           2.2350  -11.6200  -46.1299 N.am      3 UNK        -0.5000 
     60 C           2.5367  -10.4287  -46.6596 C.2       2 UNK         0.5000 
     61 O           1.9909   -9.3749  -46.3308 O.2       2 UNK        -0.5000 
     62 CA          3.6377  -10.4106  -47.7437 C.3       2 UNK         0.1400 
     63 CB          4.9193   -9.7594  -47.2010 C.3       2 UNK        -0.1800 
     64 N           3.9634  -11.7573  -48.2183 N.am      2 UNK        -0.5000 
     65 C           3.2577  -12.4523  -49.1199 C.2       1 UNK         0.5000 
     66 O           2.3532  -11.9670  -49.8000 O.2       1 UNK        -0.5000 
     67 C          -0.6646  -22.7210  -47.0558 C.2       11 UNK         0.5000 
     68 O          -1.0612  -23.4033  -47.9987 O.2       11 UNK        -0.5000 
     69 N          -1.4247  -22.4196  -45.9906 N.am      12 UNK        -0.5000 
     70 CA         -2.7990  -22.8933  -45.8086 C.3       12 UNK         0.1400 
     71 CB         -3.4496  -22.1901  -44.6086 C.3       12 UNK        -0.1800 
     72 C          -2.8909  -24.4235  -45.6711 C.2       12 UNK         0.5000 
     73 O          -3.7802  -25.0274  -46.2702 O.2       12 UNK        -0.5000 
     74 N          -1.9428  -25.0296  -44.9420 N.am      13 UNK        -0.5000 
     75 CA         -1.8017  -26.4823  -44.8011 C.3       13 UNK         0.1400 
     76 CB         -0.7238  -26.7922  -43.7518 C.3       13 UNK        -0.1800 
     77 C          -1.4886  -27.1936  -46.1338 C.2       13 UNK         0.5000 
     78 O          -1.9717  -28.3034  -46.3593 O.2       13 UNK        -0.5000 
     79 N          -0.7228  -26.5252  -47.0064 N.am      14 UNK        -0.5000 
     80 CA         -0.4158  -26.9594  -48.3711 C.3       14 UNK         0.1400 
     81 CB          0.8942  -26.2870  -48.8148 C.3       14 UNK        -0.1800 
     82 C          -1.5464  -26.6658  -49.3827 C.2       14 UNK         0.5000 
     83 O          -1.4166  -27.0498  -50.5457 O.2       14 UNK        -0.5000 
     84 N          -2.6142  -25.9828  -48.9403 N.am      15 UNK        -0.5000 
     85 CA         -3.7633  -25.5018  -49.7173 C.3       15 UNK         0.1400 
     86 CB         -4.5571  -26.6732  -50.3323 C.3       15 UNK        -0.1800 
     87 C          -3.4004  -24.4112  -50.7492 C.2       15 UNK         0.5000 
     88 O          -4.1323  -24.2123  -51.7196 O.2       15 UNK        -0.5000 
     89 N          -2.2997  -23.6923  -50.5037 N.am      16 UNK        -0.5000 
     90 CA         -1.8313  -22.5484  -51.2767 C.3       16 UNK         0.1400 
     91 CB         -0.2924  -22.5921  -51.3270 C.3       16 UNK        -0.1800 
     92 C          -2.3719  -21.2676  -50.6188 C.2       16 UNK         0.5000 
     93 O          -1.6086  -20.4940  -50.0416 O.2       16 UNK        -0.5000 
     94 N          -3.6974  -21.1028  -50.6659 N.am      17 UNK        -0.5000 
     95 CA         -4.4364  -20.0112  -50.0388 C.3       17 UNK         0.1400 
     96 CB         -5.2006  -20.5697  -48.8270 C.3       17 UNK        -0.1800 
     97 C          -5.3968  -19.3752  -51.0506 C.2       17 UNK         0.5000 
     98 O          -5.6193  -19.9346  -52.1277 O.2       17 UNK        -0.5000 
     99 N          -5.9632  -18.2174  -50.6844 N.am      18 UNK        -0.5000 
    100 CA        -6.8386  -17.3855  -51.5199 C.3       18 UNK         0.1400 
    101 CB        -7.2477  -16.1349  -50.7283 C.3       18 UNK        -0.1800 
    102 C         -8.0860  -18.1044  -52.0713 C.2       18 UNK         0.5000 
    103 O         -8.5347  -17.7728  -53.1683 O.2       18 UNK        -0.5000 
    104 N         -8.5808  -19.1157  -51.3437 N.am      19 UNK        -0.5000 
    105 CA        -9.6661  -20.0079  -51.7654 C.3       19 UNK         0.1400 
    106 CB       -10.0486  -20.9141  -50.5853 C.3       19 UNK        -0.1800 
    107 C         -9.3261  -20.8591  -53.0089 C.2       19 UNK         0.5000 
    108 O        -10.2372  -21.2591  -53.7342 O.2       19 UNK        -0.5000 
    109 N         -8.0291  -21.0987  -53.2408 N.am      20 UNK        -0.5000 
    110 CA        -7.4747  -21.7836  -54.4087 C.3       20 UNK         0.1400 
    111 CB        -6.5170  -22.8808  -53.9118 C.3       20 UNK        -0.1800 
    112 C         -6.7485  -20.7975  -55.3496 C.2       20 UNK         0.5000 
    113 O         -6.0198  -21.2406  -56.2379 O.2       20 UNK        -0.5000 
    114 N         -6.9370  -19.4851  -55.1296 N.am      21 UNK        -0.5000 
    115 CA        -6.2814  -18.3585  -55.8053 C.3       21 UNK         0.1400 
    116 CB        -6.6724  -18.3010  -57.2968 C.3       21 UNK        -0.1800 
    117 C         -4.7537  -18.3147  -55.5778 C.2       21 UNK         0.5000 
    118 O         -4.0129  -17.8431  -56.4428 O.2       21 UNK        -0.5000 
    119 N         -4.3070  -18.8092  -54.4152 N.am      22 UNK        -0.5000 
    120 CA        -2.9140  -18.9288  -53.9507 C.3       22 UNK         0.1400 
    121 C         -2.0624  -19.9631  -54.7439 C.2       22 UNK         0.5000 
    122 N         -2.1078  -19.9690  -56.0682 N.am      22 UNK        -0.7600 
    123 O         -1.3670  -20.7804  -54.1510 O.2       22 UNK        -0.5000 
    124 C124       -2.1933  -17.5534  -53.8208 C.3       23 UNK        -0.0398 
    125 S125       -1.3277  -17.3123  -52.2300 S.3       23 UNK        -0.2404 
    126 C126        0.1322  -18.3721  -52.4563 C.3       23 UNK        -0.0205 
    127 H127        4.3735  -14.7259  -44.7351 H         1 UNK         0.0600 
    128 H128        2.8908  -15.3108  -45.4867 H         1 UNK         0.0600 
    129 H129        4.3754  -16.2746  -45.5867 H         1 UNK         0.0600 
    130 H130        2.5855  -15.0578  -47.7215 H         1 UNK         0.3000 
    131 H131        2.7444  -14.4072  -49.7706 H         1 UNK         0.0600 
    132 H132        5.6135  -13.4496  -49.8635 H         1 UNK         0.0800 
    133 H133        5.3891  -15.1326  -49.5532 H         1 UNK         0.0800 
    134 H134        4.8546  -16.6729  -52.8807 H         1 UNK         0.0800 
    135 H135        5.6420  -16.7193  -51.3285 H         1 UNK         0.0800 
    136 H136        2.4462  -17.0968  -53.1157 H         1 UNK         0.1150 
    137 H137        0.3609  -18.7719  -49.7694 H         1 UNK         0.1150 
    138 H138        4.3192  -17.2021  -49.2642 H         1 UNK         0.1150 
    139 H139        3.0551  -17.7703  -47.3364 H         1 UNK         0.0800 
    140 H140        1.3402  -18.0268  -47.4463 H         1 UNK         0.0800 
    141 H141        0.4429  -20.6281  -48.4640 H         1 UNK         0.0800 
    142 H142        0.3039  -20.1316  -46.7917 H         1 UNK         0.0800 
    143 H143        1.3391  -22.8210  -47.7850 H         1 UNK         0.0600 
    144 H144        1.6518  -21.6802  -45.1806 H         1 UNK         0.3000 
    145 H145        2.0306  -24.7556  -43.4227 H         1 UNK         0.0600 
    146 H146        4.2214  -23.7360  -42.8676 H         1 UNK         0.0600 
    147 H147        4.0896  -22.6318  -44.2360 H         1 UNK         0.0600 
    148 H148        4.2527  -24.3633  -44.5084 H         1 UNK         0.0600 
    149 H149        2.3225  -22.0562  -42.5717 H         1 UNK         0.3000 
    150 H150       -1.0898  -21.4125  -41.7725 H         1 UNK         0.0600 
    151 H151       -0.1423  -22.6645  -39.8683 H         1 UNK         0.0600 
    152 H152       -0.0052  -20.9341  -39.5935 H         1 UNK         0.0600 
    153 H153        1.4124  -21.8706  -40.0657 H         1 UNK         0.0600 
    154 H154       -0.1907  -19.6219  -42.6089 H         1 UNK         0.3000 
    155 H155        2.8408  -17.8685  -42.2904 H         1 UNK         0.0600 
    156 H156        3.0311  -18.8571  -44.5348 H         1 UNK         0.0600 
    157 H157        2.1624  -17.3354  -44.6766 H         1 UNK         0.0600 
    158 H158        1.2857  -18.8555  -44.7454 H         1 UNK         0.0600 
    159 H159        0.2281  -17.1162  -43.1737 H         1 UNK         0.3000 
    160 H160       -1.1982  -16.4365  -39.9708 H         1 UNK         0.0600 
    161 H161       -0.3570  -14.6129  -42.2889 H         1 UNK         0.0600 
    162 H162       -0.0258  -14.3553  -40.5848 H         1 UNK         0.0600 
    163 H163       -1.6812  -14.2976  -41.1696 H         1 UNK         0.0600 
    164 H164       -2.0138  -16.4413  -42.7811 H         1 UNK         0.3000 
    165 H165       -3.4568  -19.6663  -42.7020 H         1 UNK         0.0600 
    166 H166       -5.5926  -18.5179  -43.2325 H         1 UNK         0.0600 
    167 H167       -5.2519  -18.4056  -41.5133 H         1 UNK         0.0600 
    168 H168       -4.9820  -17.0097  -42.5503 H         1 UNK         0.0600 
    169 H169       -3.5825  -17.4227  -44.5250 H         1 UNK         0.3000 
    170 H170       -0.5837  -18.1151  -46.2362 H         1 UNK         0.0600 
    171 H171       -3.4451  -18.6133  -47.2114 H         1 UNK         0.0600 
    172 H172       -2.1637  -19.8162  -47.2323 H         1 UNK         0.0600 
    173 H173       -2.0155  -18.3736  -48.2198 H         1 UNK         0.0600 
    174 H174       -2.6438  -16.3016  -46.8626 H         1 UNK         0.3000 
    175 H175       -2.1155  -14.0679  -46.6471 H         1 UNK         0.0600 
    176 H176       -2.9991  -14.0949  -43.7025 H         1 UNK         0.0600 
    177 H177       -3.5707  -12.9757  -44.9393 H         1 UNK         0.0600 
    178 H178       -3.9588  -14.6824  -45.0553 H         1 UNK         0.0600 
    179 H179       -1.1591  -12.6139  -44.4219 H         1 UNK         0.3000 
    180 H180        0.5318  -11.0361  -45.0364 H         1 UNK         0.0600 
    181 H181        2.4308  -11.5526  -43.4466 H         1 UNK         0.0600 
    182 H182        2.3809  -13.2433  -43.9416 H         1 UNK         0.0600 
    183 H183        1.0142  -12.5292  -43.0967 H         1 UNK         0.0600 
    184 H184        2.6638  -12.4363  -46.5409 H         1 UNK         0.3000 
    185 H185        3.2728   -9.8113  -48.5802 H         1 UNK         0.0600 
    186 H186        5.6892   -9.7038  -47.9707 H         1 UNK         0.0600 
    187 H187        4.7273   -8.7411  -46.8604 H         1 UNK         0.0600 
    188 H188        5.3275  -10.3172  -46.3572 H         1 UNK         0.0600 
    189 H189        4.6814  -12.2594  -47.7038 H         1 UNK         0.3000 
    190 H190       -1.0344  -21.8668  -45.2398 H         1 UNK         0.3000 
    191 H191       -3.3640  -22.6192  -46.7016 H         1 UNK         0.0600 
    192 H192       -3.5914  -21.1297  -44.8099 H         1 UNK         0.0600 
    193 H193       -2.8480  -22.2869  -43.7046 H         1 UNK         0.0600 
    194 H194       -4.4347  -22.6068  -44.3951 H         1 UNK         0.0600 
    195 H195       -1.2804  -24.4546  -44.4281 H         1 UNK         0.3000 
    196 H196       -2.7535  -26.8728  -44.4350 H         1 UNK         0.0600 
    197 H197       -0.9662  -26.3382  -42.7907 H         1 UNK         0.0600 
    198 H198        0.2544  -26.4230  -44.0590 H         1 UNK         0.0600 
    199 H199       -0.6332  -27.8671  -43.5911 H         1 UNK         0.0600 
    200 H200       -0.3185  -25.6418  -46.7173 H         1 UNK         0.3000 
    201 H201       -0.2569  -28.0396  -48.3680 H         1 UNK         0.0600 
    202 H202        1.7096  -26.5225  -48.1306 H         1 UNK         0.0600 
    203 H203        0.7959  -25.2019  -48.8562 H         1 UNK         0.0600 
    204 H204        1.1956  -26.6266  -49.8064 H         1 UNK         0.0600 
    205 H205       -2.6210  -25.7097  -47.9652 H         1 UNK         0.3000 
    206 H206       -4.4195  -25.0125  -48.9965 H         1 UNK         0.0600 
    207 H207       -4.0036  -27.1644  -51.1327 H         1 UNK         0.0600 
    208 H208       -4.7990  -27.4236  -49.5798 H         1 UNK         0.0600 
    209 H209       -5.4998  -26.3255  -50.7565 H         1 UNK         0.0600 
    210 H210       -1.8109  -23.8450  -49.6239 H         1 UNK         0.3000 
    211 H211       -2.2100  -22.5968  -52.2994 H         1 UNK         0.0600 
    212 H212        0.1504  -22.5348  -50.3322 H         1 UNK         0.0600 
    213 H213        0.1029  -21.7614  -51.9113 H         1 UNK         0.0600 
    214 H214        0.0577  -23.5125  -51.7943 H         1 UNK         0.0600 
    215 H215       -4.2534  -21.7552  -51.2037 H         1 UNK         0.3000 
    216 H216       -3.7535  -19.2270  -49.7097 H         1 UNK         0.0600 
    217 H217       -5.7552  -19.7870  -48.3082 H         1 UNK         0.0600 
    218 H218       -4.5146  -21.0094  -48.1035 H         1 UNK         0.0600 
    219 H219       -5.9137  -21.3409  -49.1213 H         1 UNK         0.0600 
    220 H220       -5.7374  -17.8368  -49.7769 H         1 UNK         0.3000 
    221 H221       -6.2493  -17.0638  -52.3811 H         1 UNK         0.0600 
    222 H222       -7.8058  -16.3939  -49.8276 H         1 UNK         0.0600 
    223 H223       -6.3753  -15.5539  -50.4285 H         1 UNK         0.0600 
    224 H224       -7.8800  -15.4800  -51.3295 H         1 UNK         0.0600 
    225 H225       -8.1464  -19.3207  -50.4561 H         1 UNK         0.3000 
    226 H226      -10.5295  -19.3891  -52.0182 H         1 UNK         0.0600 
    227 H227      -10.3699  -20.3275  -49.7245 H         1 UNK         0.0600 
    228 H228      -10.8739  -21.5758  -50.8519 H         1 UNK         0.0600 
    229 H229       -9.2127  -21.5414  -50.2728 H         1 UNK         0.0600 
    230 H230       -7.3373  -20.7067  -52.6090 H         1 UNK         0.3000 
    231 H231       -8.2688  -22.2576  -54.9884 H         1 UNK         0.0600 
    232 H232       -6.1308  -23.4743  -54.7412 H         1 UNK         0.0600 
    233 H233       -7.0205  -23.5675  -53.2312 H         1 UNK         0.0600 
    234 H234       -5.6607  -22.4575  -53.3852 H         1 UNK         0.0600 
    235 H235       -7.5772  -19.2204  -54.3905 H         1 UNK         0.3000 
    236 H236       -6.6754  -17.4577  -55.3329 H         1 UNK         0.0600 
    237 H237       -6.2467  -19.1308  -57.8615 H         1 UNK         0.0600 
    238 H238       -7.7548  -18.3293  -57.4217 H         1 UNK         0.0600 
    239 H239       -6.3183  -17.3785  -57.7581 H         1 UNK         0.0600 
    240 H240       -4.9875  -19.2208  -53.7835 H         1 UNK         0.3000 
    241 H241       -3.0148  -19.3453  -52.9488 H         1 UNK         0.0600 
    242 H242       -1.5701  -20.6409  -56.5919 H         1 UNK         0.3800 
    243 H243       -2.6926  -19.2906  -56.5449 H         1 UNK         0.3800 
    244 H244       -1.5043  -17.3707  -54.6476 H         1 UNK         0.0800 
    245 H245       -2.9209  -16.7431  -53.8816 H         1 UNK         0.0800 
    246 H246       -0.1491  -19.4048  -52.2520 H         1 UNK         0.0800 
    247 H247        0.4541  -18.3404  -53.4983 H         1 UNK         0.0800 
@<TRIPOS>BOND
     1    1    2 1    
     2    1  127 1    
     3    1  128 1    
     4    1  129 1    
     5    2    3 2    
     6    2    4 am   BACKBONE|DICT|INTERRES
     7    4    5 1    
     8    4  130 1    
     9    5    6 1    
    10    5   65 1    
    11    5  131 1    
    12    6    7 1    
    13    6  132 1    
    14    6  133 1    
    15    7    8 1    
    16    8    9 1    
    17    8  134 1    
    18    8  135 1    
    19    9   10 ar   
    20    9   14 ar   
    21   10   11 ar   
    22   10  136 1    
    23   11   12 ar   
    24   11  126 1    
    25   12   13 ar   
    26   12  137 1    
    27   13   14 ar   
    28   13   15 1    
    29   14  138 1    
    30   15   16 1    
    31   15  139 1    
    32   15  140 1    
    33   16   17 1    
    34   17   18 1    
    35   17  141 1    
    36   17  142 1    
    37   18   19 1    
    38   18   67 1    
    39   18  143 1    
    40   19   20 am   BACKBONE|DICT|INTERRES
    41   19  144 1    
    42   20   21 2    
    43   20   22 1    
    44   22   23 1    
    45   22   24 1    
    46   22  145 1    
    47   23  146 1    
    48   23  147 1    
    49   23  148 1    
    50   24   25 am   BACKBONE|DICT|INTERRES
    51   24  149 1    
    52   25   26 2    
    53   25   27 1    
    54   27   28 1    
    55   27   29 1    
    56   27  150 1    
    57   28  151 1    
    58   28  152 1    
    59   28  153 1    
    60   29   30 am   BACKBONE|DICT|INTERRES
    61   29  154 1    
    62   30   31 2    
    63   30   32 1    
    64   32   33 1    
    65   32   34 1    
    66   32  155 1    
    67   33  156 1    
    68   33  157 1    
    69   33  158 1    
    70   34   35 am   BACKBONE|DICT|INTERRES
    71   34  159 1    
    72   35   36 2    
    73   35   37 1    
    74   37   38 1    
    75   37   39 1    
    76   37  160 1    
    77   38  161 1    
    78   38  162 1    
    79   38  163 1    
    80   39   40 am   BACKBONE|DICT|INTERRES
    81   39  164 1    
    82   40   41 2    
    83   40   42 1    
    84   42   43 1    
    85   42   44 1    
    86   42  165 1    
    87   43  166 1    
    88   43  167 1    
    89   43  168 1    
    90   44   45 am   BACKBONE|DICT|INTERRES
    91   44  169 1    
    92   45   46 2    
    93   45   47 1    
    94   47   48 1    
    95   47   49 1    
    96   47  170 1    
    97   48  171 1    
    98   48  172 1    
    99   48  173 1    
   100   49   50 am   BACKBONE|DICT|INTERRES
   101   49  174 1    
   102   50   51 2    
   103   50   52 1    
   104   52   53 1    
   105   52   54 1    
   106   52  175 1    
   107   53  176 1    
   108   53  177 1    
   109   53  178 1    
   110   54   55 am   BACKBONE|DICT|INTERRES
   111   54  179 1    
   112   55   56 2    
   113   55   57 1    
   114   57   58 1    
   115   57   59 1    
   116   57  180 1    
   117   58  181 1    
   118   58  182 1    
   119   58  183 1    
   120   59   60 am   BACKBONE|DICT|INTERRES
   121   59  184 1    
   122   60   61 2    
   123   60   62 1    
   124   62   63 1    
   125   62   64 1    
   126   62  185 1    
   127   63  186 1    
   128   63  187 1    
   129   63  188 1    
   130   64   65 am   BACKBONE|DICT|INTERRES
   131   64  189 1    
   132   65   66 2    
   133   67   68 2    
   134   67   69 am   BACKBONE|DICT|INTERRES
   135   69   70 1    
   136   69  190 1    
   137   70   71 1    
   138   70   72 1    
   139   70  191 1    
   140   71  192 1    
   141   71  193 1    
   142   71  194 1    
   143   72   73 2    
   144   72   74 am   BACKBONE|DICT|INTERRES
   145   74   75 1    
   146   74  195 1    
   147   75   76 1    
   148   75   77 1    
   149   75  196 1    
   150   76  197 1    
   151   76  198 1    
   152   76  199 1    
   153   77   78 2    
   154   77   79 am   BACKBONE|DICT|INTERRES
   155   79   80 1    
   156   79  200 1    
   157   80   81 1    
   158   80   82 1    
   159   80  201 1    
   160   81  202 1    
   161   81  203 1    
   162   81  204 1    
   163   82   83 2    
   164   82   84 am   BACKBONE|DICT|INTERRES
   165   84   85 1    
   166   84  205 1    
   167   85   86 1    
   168   85   87 1    
   169   85  206 1    
   170   86  207 1    
   171   86  208 1    
   172   86  209 1    
   173   87   88 2    
   174   87   89 am   BACKBONE|DICT|INTERRES
   175   89   90 1    
   176   89  210 1    
   177   90   91 1    
   178   90   92 1    
   179   90  211 1    
   180   91  212 1    
   181   91  213 1    
   182   91  214 1    
   183   92   93 2    
   184   92   94 am   BACKBONE|DICT|INTERRES
   185   94   95 1    
   186   94  215 1    
   187   95   96 1    
   188   95   97 1    
   189   95  216 1    
   190   96  217 1    
   191   96  218 1    
   192   96  219 1    
   193   97   98 2    
   194   97   99 am   BACKBONE|DICT|INTERRES
   195   99  100 1    
   196   99  220 1    
   197  100  101 1    
   198  100  102 1    
   199  100  221 1    
   200  101  222 1    
   201  101  223 1    
   202  101  224 1    
   203  102  103 2    
   204  102  104 am   BACKBONE|DICT|INTERRES
   205  104  105 1    
   206  104  225 1    
   207  105  106 1    
   208  105  107 1    
   209  105  226 1    
   210  106  227 1    
   211  106  228 1    
   212  106  229 1    
   213  107  108 2    
   214  107  109 am   BACKBONE|DICT|INTERRES
   215  109  110 1    
   216  109  230 1    
   217  110  111 1    
   218  110  112 1    
   219  110  231 1    
   220  111  232 1    
   221  111  233 1    
   222  111  234 1    
   223  112  113 2    
   224  112  114 am   BACKBONE|DICT|INTERRES
   225  114  115 1    
   226  114  235 1    
   227  115  116 1    
   228  115  117 1    
   229  115  236 1    
   230  116  237 1    
   231  116  238 1    
   232  116  239 1    
   233  117  118 2    
   234  117  119 am   BACKBONE|DICT|INTERRES
   235  119  120 1    
   236  119  240 1    
   237  120  121 1    
   238  120  124 1    
   239  120  241 1    
   240  121  122 am   BACKBONE|DICT|INTERRES
   241  121  123 2    
   242  122  242 1    
   243  122  243 1    
   244  124  125 1    
   245  124  244 1    
   246  124  245 1    
   247  125  126 1    
   248  126  246 1    
   249  126  247 1    
@<TRIPOS>SUBSTRUCTURE
     1 UNK         1 GROUP             0       ****    0 ROOT    
