@<TRIPOS>MOLECULE
3R540
247   249    1
SMALL
USER_CHARGES


@<TRIPOS>ATOM
      1 CA         -2.5140  -19.8125  -45.0497 C.3       0 UNK        -0.1800 
      2 C          -1.7473  -19.0335  -46.1055 C.2       0 UNK         0.5000 
      3 O          -2.2315  -18.8846  -47.2259 O.2       0 UNK        -0.5000 
      4 N          -0.5578  -18.5335  -45.7523 N.am      1 UNK        -0.5000 
      5 CA          0.2491  -17.6223  -46.5653 C.3       1 UNK         0.1400 
      6 C6          1.7100  -17.5549  -46.0411 C.3       23 UNK        -0.0398 
      7 S7          2.7245  -16.1620  -46.6603 S.3       23 UNK        -0.2404 
      8 C8          3.6211  -16.9312  -48.0425 C.3       23 UNK        -0.0205 
      9 C9          2.6889  -17.3705  -49.1622 C.ar      23 UNK        -0.0193 
     10 C10         2.0304  -16.4222  -49.9479 C.ar      23 UNK        -0.1150 
     11 C11         1.1867  -16.8084  -50.9934 C.ar      23 UNK        -0.0193 
     12 C12         1.0224  -18.1762  -51.2546 C.ar      23 UNK        -0.1150 
     13 C13         1.6857  -19.1368  -50.4854 C.ar      23 UNK        -0.0193 
     14 C14         2.5072  -18.7265  -49.4340 C.ar      23 UNK        -0.1150 
     15 C15         1.5709  -20.6138  -50.8312 C.3       23 UNK        -0.0205 
     16 S16        -0.1317  -21.2445  -50.7419 S.3       23 UNK        -0.2404 
     17 C17        -0.5144  -21.2064  -48.9616 C.3       23 UNK        -0.0398 
     18 CA         -0.0956  -22.5158  -48.2485 C.3       11 UNK         0.1400 
     19 N           1.3297  -22.4961  -47.8953 N.am      11 UNK        -0.5000 
     20 C           2.0399  -23.4951  -47.3524 C.2       10 UNK         0.5000 
     21 O           1.5722  -24.6034  -47.0926 O.2       10 UNK        -0.5000 
     22 CA          3.5076  -23.1869  -46.9916 C.3       10 UNK         0.1400 
     23 CB          4.1943  -22.2526  -48.0059 C.3       10 UNK        -0.1800 
     24 N           3.7036  -22.6640  -45.6320 N.am      10 UNK        -0.5000 
     25 C           3.0338  -21.6883  -44.9994 C.2       9 UNK         0.5000 
     26 O           2.0280  -21.1236  -45.4370 O.2       9 UNK        -0.5000 
     27 CA          3.6145  -21.2412  -43.6525 C.3       9 UNK         0.1400 
     28 CB          4.6072  -20.0833  -43.8500 C.3       9 UNK        -0.1800 
     29 N           2.5282  -20.8038  -42.7853 N.am      9 UNK        -0.5000 
     30 C           2.4934  -20.9334  -41.4566 C.2       8 UNK         0.5000 
     31 O           3.4297  -21.3873  -40.7957 O.2       8 UNK        -0.5000 
     32 CA          1.1976  -20.4732  -40.7535 C.3       8 UNK         0.1400 
     33 CB          1.1842  -20.8199  -39.2534 C.3       8 UNK        -0.1800 
     34 N           0.9486  -19.0391  -40.8996 N.am      8 UNK        -0.5000 
     35 C           0.5034  -18.4222  -42.0002 C.2       7 UNK         0.5000 
     36 O           0.3141  -18.9859  -43.0817 O.2       7 UNK        -0.5000 
     37 CA          0.2438  -16.9121  -41.8621 C.3       7 UNK         0.1400 
     38 CB          1.5290  -16.1117  -42.1041 C.3       7 UNK        -0.1800 
     39 N          -0.8126  -16.4411  -42.7611 N.am      7 UNK        -0.5000 
     40 C          -2.1079  -16.7468  -42.6051 C.2       6 UNK         0.5000 
     41 O          -2.5297  -17.4499  -41.6847 O.2       6 UNK        -0.5000 
     42 CA         -3.0918  -16.1109  -43.6021 C.3       6 UNK         0.1400 
     43 CB         -4.5643  -16.4378  -43.2602 C.3       6 UNK        -0.1800 
     44 N          -2.8507  -14.6690  -43.6316 N.am      6 UNK        -0.5000 
     45 C          -3.4244  -13.7734  -44.4400 C.2       5 UNK         0.5000 
     46 O          -4.2878  -14.0485  -45.2731 O.2       5 UNK        -0.5000 
     47 CA         -2.9442  -12.3166  -44.3148 C.3       5 UNK         0.1400 
     48 CB         -3.3714  -11.6835  -42.9757 C.3       5 UNK        -0.1800 
     49 N          -1.5101  -12.1450  -44.5719 N.am      5 UNK        -0.5000 
     50 C          -0.4591  -12.5493  -43.8427 C.2       4 UNK         0.5000 
     51 O          -0.5546  -13.1636  -42.7790 O.2       4 UNK        -0.5000 
     52 CA          0.9221  -12.2210  -44.4395 C.3       4 UNK         0.1400 
     53 CB          2.0921  -12.9246  -43.7341 C.3       4 UNK        -0.1800 
     54 N           0.9283  -12.5979  -45.8481 N.am      4 UNK        -0.5000 
     55 C           1.1943  -11.7841  -46.8765 C.2       3 UNK         0.5000 
     56 O           1.5578  -10.6146  -46.7498 O.2       3 UNK        -0.5000 
     57 CA          0.9906  -12.3641  -48.2912 C.3       3 UNK         0.1400 
     58 CB          2.3414  -12.7363  -48.9197 C.3       3 UNK        -0.1800 
     59 N           0.0977  -13.5285  -48.3164 N.am      3 UNK        -0.5000 
     60 C          -1.2161  -13.4803  -48.0490 C.2       2 UNK         0.5000 
     61 O          -1.8222  -12.4339  -47.8166 O.2       2 UNK        -0.5000 
     62 CA         -1.9773  -14.8173  -47.9903 C.3       2 UNK         0.1400 
     63 CB         -2.8126  -15.0296  -49.2606 C.3       2 UNK        -0.1800 
     64 N          -1.1311  -15.9906  -47.7637 N.am      2 UNK        -0.5000 
     65 C          -0.4672  -16.2553  -46.6301 C.2       1 UNK         0.5000 
     66 O          -0.4287  -15.4952  -45.6585 O.2       1 UNK        -0.5000 
     67 C          -1.0267  -22.8225  -47.0532 C.2       11 UNK         0.5000 
     68 O          -2.1593  -23.2532  -47.2741 O.2       11 UNK        -0.5000 
     69 N          -0.5355  -22.6658  -45.8159 N.am      12 UNK        -0.5000 
     70 CA         -1.1831  -23.1363  -44.5896 C.3       12 UNK         0.1400 
     71 CB         -0.3366  -22.7129  -43.3854 C.3       12 UNK        -0.1800 
     72 C          -1.4374  -24.6564  -44.5619 C.2       12 UNK         0.5000 
     73 O          -2.4556  -25.0817  -44.0167 O.2       12 UNK        -0.5000 
     74 N          -0.5568  -25.4465  -45.1960 N.am      13 UNK        -0.5000 
     75 CA         -0.7164  -26.8972  -45.3489 C.3       13 UNK         0.1400 
     76 CB          0.6179  -27.5131  -45.7957 C.3       13 UNK        -0.1800 
     77 C          -1.8435  -27.2768  -46.3312 C.2       13 UNK         0.5000 
     78 O          -2.3828  -28.3796  -46.2396 O.2       13 UNK        -0.5000 
     79 N          -2.1943  -26.3475  -47.2295 N.am      14 UNK        -0.5000 
     80 CA         -3.3131  -26.4419  -48.1658 C.3       14 UNK         0.1400 
     81 CB         -2.8662  -25.8560  -49.5166 C.3       14 UNK        -0.1800 
     82 C          -4.5656  -25.7116  -47.6387 C.2       14 UNK         0.5000 
     83 O          -5.5169  -25.5341  -48.3989 O.2       14 UNK        -0.5000 
     84 N          -4.5408  -25.2582  -46.3742 N.am      15 UNK        -0.5000 
     85 CA         -5.5903  -24.4966  -45.6853 C.3       15 UNK         0.1400 
     86 CB         -6.8134  -25.3958  -45.4110 C.3       15 UNK        -0.1800 
     87 C          -5.9611  -23.1805  -46.4056 C.2       15 UNK         0.5000 
     88 O          -7.1283  -22.7869  -46.4100 O.2       15 UNK        -0.5000 
     89 N          -4.9539  -22.5442  -47.0233 N.am      16 UNK        -0.5000 
     90 CA         -5.0190  -21.3263  -47.8380 C.3       16 UNK         0.1400 
     91 CB         -5.6174  -20.1433  -47.0475 C.3       16 UNK        -0.1800 
     92 C          -5.7145  -21.5054  -49.2047 C.2       16 UNK         0.5000 
     93 O          -5.8752  -20.5148  -49.9168 O.2       16 UNK        -0.5000 
     94 N          -6.0878  -22.7365  -49.5910 N.am      17 UNK        -0.5000 
     95 CA         -6.7355  -23.0189  -50.8782 C.3       17 UNK         0.1400 
     96 CB         -7.3086  -24.4433  -50.8740 C.3       17 UNK        -0.1800 
     97 C          -5.7832  -22.8229  -52.0721 C.2       17 UNK         0.5000 
     98 O          -6.2087  -22.3535  -53.1281 O.2       17 UNK        -0.5000 
     99 N          -4.4994  -23.1469  -51.8657 N.am      18 UNK        -0.5000 
    100 CA        -3.4252  -22.9588  -52.8416 C.3       18 UNK         0.1400 
    101 CB        -2.2077  -23.7908  -52.4133 C.3       18 UNK        -0.1800 
    102 C         -3.0395  -21.4804  -53.0479 C.2       18 UNK         0.5000 
    103 O         -2.4770  -21.1453  -54.0902 O.2       18 UNK        -0.5000 
    104 N         -3.3827  -20.6068  -52.0883 N.am      19 UNK        -0.5000 
    105 CA        -3.1002  -19.1684  -52.1305 C.3       19 UNK         0.1400 
    106 CB        -3.2107  -18.5734  -50.7200 C.3       19 UNK        -0.1800 
    107 C         -3.9685  -18.3937  -53.1453 C.2       19 UNK         0.5000 
    108 O         -3.7627  -17.1962  -53.3325 O.2       19 UNK        -0.5000 
    109 N         -4.8931  -19.0814  -53.8282 N.am      20 UNK        -0.5000 
    110 CA        -5.5626  -18.5799  -55.0267 C.3       20 UNK         0.1400 
    111 CB        -6.7260  -19.5200  -55.3758 C.3       20 UNK        -0.1800 
    112 C         -4.5995  -18.4418  -56.2266 C.2       20 UNK         0.5000 
    113 O         -4.8387  -17.6035  -57.0964 O.2       20 UNK        -0.5000 
    114 N         -3.5326  -19.2565  -56.2586 N.am      21 UNK        -0.5000 
    115 CA        -2.5601  -19.2985  -57.3513 C.3       21 UNK         0.1400 
    116 CB        -1.8750  -20.6739  -57.3615 C.3       21 UNK        -0.1800 
    117 C         -1.5051  -18.1783  -57.2856 C.2       21 UNK         0.5000 
    118 O         -0.9451  -17.8329  -58.3271 O.2       21 UNK        -0.5000 
    119 N         -1.2346  -17.6389  -56.0876 N.am      22 UNK        -0.5000 
    120 CA        -0.2327  -16.5777  -55.8713 C.3       22 UNK         0.1400 
    121 C         -0.7102  -15.1375  -56.2300 C.2       22 UNK         0.5000 
    122 N         -1.9730  -14.9205  -56.5788 N.am      22 UNK        -0.7600 
    123 O          0.0864  -14.2030  -56.2127 O.2       22 UNK        -0.5000 
    124 C124        0.4281  -16.6682  -54.4689 C.3       23 UNK        -0.0398 
    125 S125       -0.6831  -16.2569  -53.0789 S.3       23 UNK        -0.2404 
    126 C126        0.4995  -15.7048  -51.8017 C.3       23 UNK        -0.0205 
    127 H127       -3.3375  -19.2109  -44.6668 H         1 UNK         0.0600 
    128 H128       -1.8784  -20.0919  -44.2104 H         1 UNK         0.0600 
    129 H129       -2.9286  -20.7198  -45.4863 H         1 UNK         0.0600 
    130 H130       -0.2147  -18.7029  -44.8080 H         1 UNK         0.3000 
    131 H131        0.2921  -18.0258  -47.5787 H         1 UNK         0.0600 
    132 H132        2.2189  -18.4952  -46.2566 H         1 UNK         0.0800 
    133 H133        1.7042  -17.4780  -44.9553 H         1 UNK         0.0800 
    134 H134        4.2085  -17.7709  -47.6675 H         1 UNK         0.0800 
    135 H135        4.3381  -16.2112  -48.4394 H         1 UNK         0.0800 
    136 H136        2.1850  -15.3745  -49.7467 H         1 UNK         0.1150 
    137 H137        0.3921  -18.5147  -52.0626 H         1 UNK         0.1150 
    138 H138        3.0311  -19.4589  -48.8421 H         1 UNK         0.1150 
    139 H139        1.9330  -20.7549  -51.8503 H         1 UNK         0.0800 
    140 H140        2.2175  -21.2215  -50.1993 H         1 UNK         0.0800 
    141 H141       -1.5928  -21.0517  -48.8973 H         1 UNK         0.0800 
    142 H142       -0.0630  -20.3311  -48.4931 H         1 UNK         0.0800 
    143 H143       -0.2383  -23.3497  -48.9392 H         1 UNK         0.0600 
    144 H144        1.7887  -21.6025  -47.9824 H         1 UNK         0.3000 
    145 H145        4.0294  -24.1444  -47.0318 H         1 UNK         0.0600 
    146 H146        3.9926  -22.5578  -49.0335 H         1 UNK         0.0600 
    147 H147        3.8707  -21.2212  -47.8856 H         1 UNK         0.0600 
    148 H148        5.2761  -22.2686  -47.8737 H         1 UNK         0.0600 
    149 H149        4.4899  -23.0710  -45.1451 H         1 UNK         0.3000 
    150 H150        4.1300  -22.0904  -43.1989 H         1 UNK         0.0600 
    151 H151        5.4274  -20.3764  -44.5065 H         1 UNK         0.0600 
    152 H152        5.0450  -19.7732  -42.9012 H         1 UNK         0.0600 
    153 H153        4.1234  -19.2126  -44.2952 H         1 UNK         0.0600 
    154 H154        1.7285  -20.3964  -43.2629 H         1 UNK         0.3000 
    155 H155        0.3680  -21.0113  -41.2124 H         1 UNK         0.0600 
    156 H156        1.9729  -20.2973  -38.7107 H         1 UNK         0.0600 
    157 H157        1.3296  -21.8896  -39.0974 H         1 UNK         0.0600 
    158 H158        0.2305  -20.5552  -38.7962 H         1 UNK         0.0600 
    159 H159        1.1152  -18.4838  -40.0730 H         1 UNK         0.3000 
    160 H160       -0.0808  -16.7185  -40.8373 H         1 UNK         0.0600 
    161 H161        1.8653  -16.1833  -43.1367 H         1 UNK         0.0600 
    162 H162        2.3422  -16.4666  -41.4698 H         1 UNK         0.0600 
    163 H163        1.3754  -15.0595  -41.8675 H         1 UNK         0.0600 
    164 H164       -0.5295  -15.8926  -43.5658 H         1 UNK         0.3000 
    165 H165       -2.8648  -16.5174  -44.5888 H         1 UNK         0.0600 
    166 H166       -5.2500  -16.0911  -44.0321 H         1 UNK         0.0600 
    167 H167       -4.7172  -17.5141  -43.1720 H         1 UNK         0.0600 
    168 H168       -4.8650  -15.9834  -42.3156 H         1 UNK         0.0600 
    169 H169       -2.1051  -14.3341  -43.0258 H         1 UNK         0.3000 
    170 H170       -3.4457  -11.7569  -45.1062 H         1 UNK         0.0600 
    171 H171       -4.4538  -11.7354  -42.8522 H         1 UNK         0.0600 
    172 H172       -2.9243  -12.1863  -42.1181 H         1 UNK         0.0600 
    173 H173       -3.0897  -10.6316  -42.9309 H         1 UNK         0.0600 
    174 H174       -1.3018  -11.7095  -45.4607 H         1 UNK         0.3000 
    175 H175        1.0558  -11.1438  -44.3229 H         1 UNK         0.0600 
    176 H176        2.0666  -13.9990  -43.9085 H         1 UNK         0.0600 
    177 H177        3.0476  -12.5556  -44.1066 H         1 UNK         0.0600 
    178 H178        2.0750  -12.7516  -42.6575 H         1 UNK         0.0600 
    179 H179        0.6069  -13.5392  -46.0428 H         1 UNK         0.3000 
    180 H180        0.5387  -11.5792  -48.9013 H         1 UNK         0.0600 
    181 H181        2.2204  -13.0533  -49.9555 H         1 UNK         0.0600 
    182 H182        2.8360  -13.5367  -48.3687 H         1 UNK         0.0600 
    183 H183        3.0173  -11.8802  -48.9251 H         1 UNK         0.0600 
    184 H184        0.5221  -14.4309  -48.4679 H         1 UNK         0.3000 
    185 H185       -2.6679  -14.7511  -47.1507 H         1 UNK         0.0600 
    186 H186       -3.4792  -15.8846  -49.1482 H         1 UNK         0.0600 
    187 H187       -3.4399  -14.1615  -49.4679 H         1 UNK         0.0600 
    188 H188       -2.1874  -15.1988  -50.1369 H         1 UNK         0.0600 
    189 H189       -1.1512  -16.6991  -48.4836 H         1 UNK         0.3000 
    190 H190        0.3885  -22.2565  -45.7166 H         1 UNK         0.3000 
    191 H191       -2.1563  -22.6505  -44.5127 H         1 UNK         0.0600 
    192 H192       -0.8183  -22.9928  -42.4477 H         1 UNK         0.0600 
    193 H193       -0.2019  -21.6329  -43.3762 H         1 UNK         0.0600 
    194 H194        0.6507  -23.1759  -43.4031 H         1 UNK         0.0600 
    195 H195        0.2377  -25.0299  -45.6726 H         1 UNK         0.3000 
    196 H196       -0.9730  -27.3163  -44.3736 H         1 UNK         0.0600 
    197 H197        0.9038  -27.1757  -46.7924 H         1 UNK         0.0600 
    198 H198        1.4238  -27.2544  -45.1087 H         1 UNK         0.0600 
    199 H199        0.5528  -28.6014  -45.8264 H         1 UNK         0.0600 
    200 H200       -1.7211  -25.4543  -47.2044 H         1 UNK         0.3000 
    201 H201       -3.5870  -27.4872  -48.3210 H         1 UNK         0.0600 
    202 H202       -1.9757  -26.3611  -49.8907 H         1 UNK         0.0600 
    203 H203       -2.6393  -24.7929  -49.4375 H         1 UNK         0.0600 
    204 H204       -3.6435  -25.9718  -50.2730 H         1 UNK         0.0600 
    205 H205       -3.7090  -25.4327  -45.8250 H         1 UNK         0.3000 
    206 H206       -5.1719  -24.2047  -44.7211 H         1 UNK         0.0600 
    207 H207       -6.5224  -26.3076  -44.8894 H         1 UNK         0.0600 
    208 H208       -7.5437  -24.8841  -44.7833 H         1 UNK         0.0600 
    209 H209       -7.3190  -25.6837  -46.3333 H         1 UNK         0.0600 
    210 H210       -4.0318  -22.9723  -46.9873 H         1 UNK         0.3000 
    211 H211       -3.9817  -21.0733  -48.0610 H         1 UNK         0.0600 
    212 H212       -5.4028  -19.1978  -47.5471 H         1 UNK         0.0600 
    213 H213       -5.2040  -20.0793  -46.0426 H         1 UNK         0.0600 
    214 H214       -6.7009  -20.2231  -46.9559 H         1 UNK         0.0600 
    215 H215       -5.9342  -23.5260  -48.9735 H         1 UNK         0.3000 
    216 H216       -7.5677  -22.3218  -50.9974 H         1 UNK         0.0600 
    217 H217       -6.5208  -25.1959  -50.8294 H         1 UNK         0.0600 
    218 H218       -7.8869  -24.6313  -51.7794 H         1 UNK         0.0600 
    219 H219       -7.9727  -24.6011  -50.0240 H         1 UNK         0.0600 
    220 H220       -4.2410  -23.5250  -50.9668 H         1 UNK         0.3000 
    221 H221       -3.7684  -23.3374  -53.8068 H         1 UNK         0.0600 
    222 H222       -2.4393  -24.8559  -52.4157 H         1 UNK         0.0600 
    223 H223       -1.8694  -23.5242  -51.4125 H         1 UNK         0.0600 
    224 H224       -1.3689  -23.6405  -53.0944 H         1 UNK         0.0600 
    225 H225       -3.9078  -20.9373  -51.2921 H         1 UNK         0.3000 
    226 H226       -2.0633  -19.0496  -52.4513 H         1 UNK         0.0600 
    227 H227       -4.2418  -18.5376  -50.3700 H         1 UNK         0.0600 
    228 H228       -2.6245  -19.1409  -49.9984 H         1 UNK         0.0600 
    229 H229       -2.8265  -17.5542  -50.7123 H         1 UNK         0.0600 
    230 H230       -5.0381  -20.0546  -53.5984 H         1 UNK         0.3000 
    231 H231       -5.9718  -17.5912  -54.8088 H         1 UNK         0.0600 
    232 H232       -6.3760  -20.5307  -55.5905 H         1 UNK         0.0600 
    233 H233       -7.2662  -19.1646  -56.2542 H         1 UNK         0.0600 
    234 H234       -7.4423  -19.5820  -54.5563 H         1 UNK         0.0600 
    235 H235       -3.3757  -19.9057  -55.4952 H         1 UNK         0.3000 
    236 H236       -3.0966  -19.1883  -58.2963 H         1 UNK         0.0600 
    237 H237       -1.2757  -20.8324  -56.4644 H         1 UNK         0.0600 
    238 H238       -2.6056  -21.4805  -57.4248 H         1 UNK         0.0600 
    239 H239       -1.2087  -20.7707  -58.2196 H         1 UNK         0.0600 
    240 H240       -1.7560  -17.9396  -55.2774 H         1 UNK         0.3000 
    241 H241        0.5787  -16.7691  -56.5765 H         1 UNK         0.0600 
    242 H242       -2.2698  -13.9870  -56.8159 H         1 UNK         0.3800 
    243 H243       -2.6361  -15.6793  -56.5984 H         1 UNK         0.3800 
    244 H244        1.2965  -16.0087  -54.4339 H         1 UNK         0.0800 
    245 H245        0.8194  -17.6739  -54.3120 H         1 UNK         0.0800 
    246 H246        1.2590  -15.0722  -52.2630 H         1 UNK         0.0800 
    247 H247       -0.0420  -15.0615  -51.1082 H         1 UNK         0.0800 
@<TRIPOS>BOND
     1    1    2 1    
     2    1  127 1    
     3    1  128 1    
     4    1  129 1    
     5    2    3 2    
     6    2    4 am   BACKBONE|DICT|INTERRES
     7    4    5 1    
     8    4  130 1    
     9    5    6 1    
    10    5   65 1    
    11    5  131 1    
    12    6    7 1    
    13    6  132 1    
    14    6  133 1    
    15    7    8 1    
    16    8    9 1    
    17    8  134 1    
    18    8  135 1    
    19    9   10 ar   
    20    9   14 ar   
    21   10   11 ar   
    22   10  136 1    
    23   11   12 ar   
    24   11  126 1    
    25   12   13 ar   
    26   12  137 1    
    27   13   14 ar   
    28   13   15 1    
    29   14  138 1    
    30   15   16 1    
    31   15  139 1    
    32   15  140 1    
    33   16   17 1    
    34   17   18 1    
    35   17  141 1    
    36   17  142 1    
    37   18   19 1    
    38   18   67 1    
    39   18  143 1    
    40   19   20 am   BACKBONE|DICT|INTERRES
    41   19  144 1    
    42   20   21 2    
    43   20   22 1    
    44   22   23 1    
    45   22   24 1    
    46   22  145 1    
    47   23  146 1    
    48   23  147 1    
    49   23  148 1    
    50   24   25 am   BACKBONE|DICT|INTERRES
    51   24  149 1    
    52   25   26 2    
    53   25   27 1    
    54   27   28 1    
    55   27   29 1    
    56   27  150 1    
    57   28  151 1    
    58   28  152 1    
    59   28  153 1    
    60   29   30 am   BACKBONE|DICT|INTERRES
    61   29  154 1    
    62   30   31 2    
    63   30   32 1    
    64   32   33 1    
    65   32   34 1    
    66   32  155 1    
    67   33  156 1    
    68   33  157 1    
    69   33  158 1    
    70   34   35 am   BACKBONE|DICT|INTERRES
    71   34  159 1    
    72   35   36 2    
    73   35   37 1    
    74   37   38 1    
    75   37   39 1    
    76   37  160 1    
    77   38  161 1    
    78   38  162 1    
    79   38  163 1    
    80   39   40 am   BACKBONE|DICT|INTERRES
    81   39  164 1    
    82   40   41 2    
    83   40   42 1    
    84   42   43 1    
    85   42   44 1    
    86   42  165 1    
    87   43  166 1    
    88   43  167 1    
    89   43  168 1    
    90   44   45 am   BACKBONE|DICT|INTERRES
    91   44  169 1    
    92   45   46 2    
    93   45   47 1    
    94   47   48 1    
    95   47   49 1    
    96   47  170 1    
    97   48  171 1    
    98   48  172 1    
    99   48  173 1    
   100   49   50 am   BACKBONE|DICT|INTERRES
   101   49  174 1    
   102   50   51 2    
   103   50   52 1    
   104   52   53 1    
   105   52   54 1    
   106   52  175 1    
   107   53  176 1    
   108   53  177 1    
   109   53  178 1    
   110   54   55 am   BACKBONE|DICT|INTERRES
   111   54  179 1    
   112   55   56 2    
   113   55   57 1    
   114   57   58 1    
   115   57   59 1    
   116   57  180 1    
   117   58  181 1    
   118   58  182 1    
   119   58  183 1    
   120   59   60 am   BACKBONE|DICT|INTERRES
   121   59  184 1    
   122   60   61 2    
   123   60   62 1    
   124   62   63 1    
   125   62   64 1    
   126   62  185 1    
   127   63  186 1    
   128   63  187 1    
   129   63  188 1    
   130   64   65 am   BACKBONE|DICT|INTERRES
   131   64  189 1    
   132   65   66 2    
   133   67   68 2    
   134   67   69 am   BACKBONE|DICT|INTERRES
   135   69   70 1    
   136   69  190 1    
   137   70   71 1    
   138   70   72 1    
   139   70  191 1    
   140   71  192 1    
   141   71  193 1    
   142   71  194 1    
   143   72   73 2    
   144   72   74 am   BACKBONE|DICT|INTERRES
   145   74   75 1    
   146   74  195 1    
   147   75   76 1    
   148   75   77 1    
   149   75  196 1    
   150   76  197 1    
   151   76  198 1    
   152   76  199 1    
   153   77   78 2    
   154   77   79 am   BACKBONE|DICT|INTERRES
   155   79   80 1    
   156   79  200 1    
   157   80   81 1    
   158   80   82 1    
   159   80  201 1    
   160   81  202 1    
   161   81  203 1    
   162   81  204 1    
   163   82   83 2    
   164   82   84 am   BACKBONE|DICT|INTERRES
   165   84   85 1    
   166   84  205 1    
   167   85   86 1    
   168   85   87 1    
   169   85  206 1    
   170   86  207 1    
   171   86  208 1    
   172   86  209 1    
   173   87   88 2    
   174   87   89 am   BACKBONE|DICT|INTERRES
   175   89   90 1    
   176   89  210 1    
   177   90   91 1    
   178   90   92 1    
   179   90  211 1    
   180   91  212 1    
   181   91  213 1    
   182   91  214 1    
   183   92   93 2    
   184   92   94 am   BACKBONE|DICT|INTERRES
   185   94   95 1    
   186   94  215 1    
   187   95   96 1    
   188   95   97 1    
   189   95  216 1    
   190   96  217 1    
   191   96  218 1    
   192   96  219 1    
   193   97   98 2    
   194   97   99 am   BACKBONE|DICT|INTERRES
   195   99  100 1    
   196   99  220 1    
   197  100  101 1    
   198  100  102 1    
   199  100  221 1    
   200  101  222 1    
   201  101  223 1    
   202  101  224 1    
   203  102  103 2    
   204  102  104 am   BACKBONE|DICT|INTERRES
   205  104  105 1    
   206  104  225 1    
   207  105  106 1    
   208  105  107 1    
   209  105  226 1    
   210  106  227 1    
   211  106  228 1    
   212  106  229 1    
   213  107  108 2    
   214  107  109 am   BACKBONE|DICT|INTERRES
   215  109  110 1    
   216  109  230 1    
   217  110  111 1    
   218  110  112 1    
   219  110  231 1    
   220  111  232 1    
   221  111  233 1    
   222  111  234 1    
   223  112  113 2    
   224  112  114 am   BACKBONE|DICT|INTERRES
   225  114  115 1    
   226  114  235 1    
   227  115  116 1    
   228  115  117 1    
   229  115  236 1    
   230  116  237 1    
   231  116  238 1    
   232  116  239 1    
   233  117  118 2    
   234  117  119 am   BACKBONE|DICT|INTERRES
   235  119  120 1    
   236  119  240 1    
   237  120  121 1    
   238  120  124 1    
   239  120  241 1    
   240  121  122 am   BACKBONE|DICT|INTERRES
   241  121  123 2    
   242  122  242 1    
   243  122  243 1    
   244  124  125 1    
   245  124  244 1    
   246  124  245 1    
   247  125  126 1    
   248  126  246 1    
   249  126  247 1    
@<TRIPOS>SUBSTRUCTURE
     1 UNK         1 GROUP             0       ****    0 ROOT    
