@<TRIPOS>MOLECULE
3R540
247   249    1
SMALL
USER_CHARGES


@<TRIPOS>ATOM
      1 CA         -0.1301  -12.5384  -46.8372 C.3       0 UNK        -0.1800 
      2 C           1.2404  -13.1980  -46.7825 C.2       0 UNK         0.5000 
      3 O           1.4400  -14.1557  -46.0330 O.2       0 UNK        -0.5000 
      4 N           2.1809  -12.6696  -47.5741 N.am      1 UNK        -0.5000 
      5 CA          3.5810  -13.0848  -47.7501 C.3       1 UNK         0.1400 
      6 C6          3.7672  -14.5431  -48.2433 C.3       23 UNK        -0.0398 
      7 S7          2.9758  -14.8772  -49.8551 S.3       23 UNK        -0.2404 
      8 C8          1.4547  -15.7357  -49.3435 C.3       23 UNK        -0.0205 
      9 C9          1.1265  -16.9001  -50.2629 C.ar      23 UNK        -0.0193 
     10 C10         0.1150  -16.7861  -51.2213 C.ar      23 UNK        -0.1150 
     11 C11        -0.1957  -17.8657  -52.0536 C.ar      23 UNK        -0.0193 
     12 C12         0.5192  -19.0594  -51.9304 C.ar      23 UNK        -0.1150 
     13 C13         1.5269  -19.1870  -50.9713 C.ar      23 UNK        -0.0193 
     14 C14         1.8230  -18.1058  -50.1362 C.ar      23 UNK        -0.1150 
     15 C15         2.2912  -20.4955  -50.8408 C.3       23 UNK        -0.0205 
     16 S16         1.2475  -21.8237  -50.1645 S.3       23 UNK        -0.2404 
     17 C17         0.8886  -21.1765  -48.4967 C.3       23 UNK        -0.0398 
     18 CA          0.4993  -22.2926  -47.5003 C.3       11 UNK         0.1400 
     19 N           0.6060  -21.8539  -46.1091 N.am      11 UNK        -0.5000 
     20 C           0.5172  -22.6659  -45.0458 C.2       10 UNK         0.5000 
     21 O           0.4057  -23.8900  -45.1246 O.2       10 UNK        -0.5000 
     22 CA          0.5048  -21.9908  -43.6625 C.3       10 UNK         0.1400 
     23 CB          1.9305  -21.6367  -43.2148 C.3       10 UNK        -0.1800 
     24 N          -0.3342  -20.7914  -43.6310 N.am      10 UNK        -0.5000 
     25 C          -1.6596  -20.7879  -43.8350 C.2       9 UNK         0.5000 
     26 O          -2.3250  -21.8069  -44.0246 O.2       9 UNK        -0.5000 
     27 CA         -2.3508  -19.4128  -43.8830 C.3       9 UNK         0.1400 
     28 CB         -2.5891  -18.8679  -42.4671 C.3       9 UNK        -0.1800 
     29 N          -1.6062  -18.4305  -44.6732 N.am      9 UNK        -0.5000 
     30 C          -1.3610  -18.5439  -45.9868 C.2       8 UNK         0.5000 
     31 O          -1.7614  -19.4760  -46.6801 O.2       8 UNK        -0.5000 
     32 CA         -0.4807  -17.4628  -46.6325 C.3       8 UNK         0.1400 
     33 CB         -1.3016  -16.1969  -46.9075 C.3       8 UNK        -0.1800 
     34 N           0.6966  -17.1436  -45.8225 N.am      8 UNK        -0.5000 
     35 C           1.6667  -18.0248  -45.5365 C.2       7 UNK         0.5000 
     36 O           1.7062  -19.1666  -45.9933 O.2       7 UNK        -0.5000 
     37 CA          2.7364  -17.5893  -44.5210 C.3       7 UNK         0.1400 
     38 CB          3.8794  -16.8158  -45.1876 C.3       7 UNK        -0.1800 
     39 N           2.1746  -16.8025  -43.4244 N.am      7 UNK        -0.5000 
     40 C           1.3676  -17.3132  -42.4848 C.2       6 UNK         0.5000 
     41 O           1.0410  -18.4989  -42.4319 O.2       6 UNK        -0.5000 
     42 CA          0.8026  -16.3241  -41.4556 C.3       6 UNK         0.1400 
     43 CB          1.8267  -16.0570  -40.3437 C.3       6 UNK        -0.1800 
     44 N           0.4009  -15.0573  -42.0646 N.am      6 UNK        -0.5000 
     45 C          -0.6394  -14.9094  -42.8958 C.2       5 UNK         0.5000 
     46 O          -1.3345  -15.8499  -43.2836 O.2       5 UNK        -0.5000 
     47 CA         -0.9406  -13.4721  -43.3693 C.3       5 UNK         0.1400 
     48 CB         -2.3709  -13.2993  -43.9215 C.3       5 UNK        -0.1800 
     49 N          -0.6477  -12.4527  -42.3573 N.am      5 UNK        -0.5000 
     50 C          -1.1976  -12.3190  -41.1418 C.2       4 UNK         0.5000 
     51 O          -2.0960  -13.0431  -40.7097 O.2       4 UNK        -0.5000 
     52 CA         -0.6010  -11.2049  -40.2537 C.3       4 UNK         0.1400 
     53 CB         -1.2177  -11.1708  -38.8434 C.3       4 UNK        -0.1800 
     54 N           0.8511  -11.3503  -40.1266 N.am      4 UNK        -0.5000 
     55 C           1.7557  -10.9672  -41.0364 C.2       3 UNK         0.5000 
     56 O           1.4539  -10.3684  -42.0719 O.2       3 UNK        -0.5000 
     57 CA          3.2326  -11.3292  -40.7635 C.3       3 UNK         0.1400 
     58 CB          3.4153  -12.4600  -39.7276 C.3       3 UNK        -0.1800 
     59 N           3.9738  -11.6500  -41.9884 N.am      3 UNK        -0.5000 
     60 C           3.6764  -12.5785  -42.9094 C.2       2 UNK         0.5000 
     61 O           2.6972  -13.3304  -42.8642 O.2       2 UNK        -0.5000 
     62 CA          4.6869  -12.7148  -44.0545 C.3       2 UNK         0.1400 
     63 CB          5.7129  -13.8161  -43.7327 C.3       2 UNK        -0.1800 
     64 N           3.9899  -13.0107  -45.3030 N.am      2 UNK        -0.5000 
     65 C           4.4809  -12.7869  -46.5282 C.2       1 UNK         0.5000 
     66 O           5.6090  -12.3324  -46.7255 O.2       1 UNK        -0.5000 
     67 C          -0.8977  -22.8702  -47.8002 C.2       11 UNK         0.5000 
     68 O          -0.9863  -23.9653  -48.3506 O.2       11 UNK        -0.5000 
     69 N          -1.9604  -22.1612  -47.3924 N.am      12 UNK        -0.5000 
     70 CA         -3.3540  -22.5681  -47.5683 C.3       12 UNK         0.1400 
     71 CB         -4.2948  -21.4632  -47.0647 C.3       12 UNK        -0.1800 
     72 C          -3.6932  -23.9079  -46.8987 C.2       12 UNK         0.5000 
     73 O          -4.3832  -24.7231  -47.5100 O.2       12 UNK        -0.5000 
     74 N          -3.1692  -24.1266  -45.6860 N.am      13 UNK        -0.5000 
     75 CA         -3.3100  -25.3750  -44.9360 C.3       13 UNK         0.1400 
     76 CB         -2.7256  -25.1857  -43.5280 C.3       13 UNK        -0.1800 
     77 C          -2.6620  -26.5872  -45.6348 C.2       13 UNK         0.5000 
     78 O          -3.1756  -27.6998  -45.5108 O.2       13 UNK        -0.5000 
     79 N          -1.5590  -26.3528  -46.3575 N.am      14 UNK        -0.5000 
     80 CA         -0.8510  -27.3681  -47.1328 C.3       14 UNK         0.1400 
     81 CB          0.6289  -26.9698  -47.2540 C.3       14 UNK        -0.1800 
     82 C          -1.4782  -27.5751  -48.5232 C.2       14 UNK         0.5000 
     83 O          -1.6861  -28.7182  -48.9319 O.2       14 UNK        -0.5000 
     84 N          -1.7414  -26.4706  -49.2336 N.am      15 UNK        -0.5000 
     85 CA         -2.1936  -26.4592  -50.6240 C.3       15 UNK         0.1400 
     86 CB         -1.9553  -25.0623  -51.2230 C.3       15 UNK        -0.1800 
     87 C          -3.6662  -26.8606  -50.8007 C.2       15 UNK         0.5000 
     88 O          -3.9848  -27.5263  -51.7863 O.2       15 UNK        -0.5000 
     89 N          -4.5263  -26.4270  -49.8655 N.am      16 UNK        -0.5000 
     90 CA         -5.9916  -26.5158  -49.8942 C.3       16 UNK         0.1400 
     91 CB         -6.4370  -27.9702  -49.6371 C.3       16 UNK        -0.1800 
     92 C          -6.5910  -25.9202  -51.1949 C.2       16 UNK         0.5000 
     93 O          -7.1282  -26.6671  -52.0132 O.2       16 UNK        -0.5000 
     94 N          -6.4816  -24.6064  -51.4379 N.am      17 UNK        -0.5000 
     95 CA         -5.9733  -23.5484  -50.5662 C.3       17 UNK         0.1400 
     96 CB         -7.1421  -22.9727  -49.7464 C.3       17 UNK        -0.1800 
     97 C          -5.2879  -22.4653  -51.4157 C.2       17 UNK         0.5000 
     98 O          -5.2767  -22.5583  -52.6459 O.2       17 UNK        -0.5000 
     99 N          -4.7432  -21.4368  -50.7494 N.am      18 UNK        -0.5000 
    100 CA        -4.0027  -20.3260  -51.3600 C.3       18 UNK         0.1400 
    101 CB        -3.4739  -19.3956  -50.2575 C.3       18 UNK        -0.1800 
    102 C         -4.8125  -19.5365  -52.4082 C.2       18 UNK         0.5000 
    103 O         -4.2453  -19.0858  -53.4022 O.2       18 UNK        -0.5000 
    104 N         -6.1337  -19.4477  -52.2034 N.am      19 UNK        -0.5000 
    105 CA        -7.0900  -18.8455  -53.1349 C.3       19 UNK         0.1400 
    106 CB        -8.4592  -18.7519  -52.4438 C.3       19 UNK        -0.1800 
    107 C         -7.2151  -19.5934  -54.4800 C.2       19 UNK         0.5000 
    108 O         -7.6326  -18.9830  -55.4644 O.2       19 UNK        -0.5000 
    109 N         -6.8620  -20.8865  -54.5012 N.am      20 UNK        -0.5000 
    110 CA        -6.7896  -21.7062  -55.7094 C.3       20 UNK         0.1400 
    111 CB        -7.3114  -23.1181  -55.3971 C.3       20 UNK        -0.1800 
    112 C         -5.3523  -21.7703  -56.2561 C.2       20 UNK         0.5000 
    113 O         -5.1767  -21.8187  -57.4740 O.2       20 UNK        -0.5000 
    114 N         -4.3546  -21.7840  -55.3577 N.am      21 UNK        -0.5000 
    115 CA        -2.9313  -21.8670  -55.6932 C.3       21 UNK         0.1400 
    116 CB        -2.1103  -22.1264  -54.4202 C.3       21 UNK        -0.1800 
    117 C         -2.4114  -20.6200  -56.4325 C.2       21 UNK         0.5000 
    118 O         -1.7150  -20.7629  -57.4388 O.2       21 UNK        -0.5000 
    119 N         -2.7669  -19.4297  -55.9343 N.am      22 UNK        -0.5000 
    120 CA        -2.4938  -18.1466  -56.5946 C.3       22 UNK         0.1400 
    121 C         -3.6188  -17.8178  -57.6108 C.2       22 UNK         0.5000 
    122 N         -3.2728  -17.4588  -58.8396 N.am      22 UNK        -0.7600 
    123 O         -4.8024  -17.8442  -57.2835 O.2       22 UNK        -0.5000 
    124 C124       -2.3240  -16.9957  -55.5718 C.3       23 UNK        -0.0398 
    125 S125       -0.7482  -17.1026  -54.6552 S.3       23 UNK        -0.2404 
    126 C126       -1.3233  -17.7588  -53.0645 C.3       23 UNK        -0.0205 
    127 H127       -0.9177  -13.2639  -46.6404 H         1 UNK         0.0600 
    128 H128       -0.3188  -12.0978  -47.8163 H         1 UNK         0.0600 
    129 H129       -0.1973  -11.7500  -46.0878 H         1 UNK         0.0600 
    130 H130        1.9235  -11.8688  -48.1339 H         1 UNK         0.3000 
    131 H131        3.9558  -12.4383  -48.5455 H         1 UNK         0.0600 
    132 H132        3.4062  -15.2527  -47.5038 H         1 UNK         0.0800 
    133 H133        4.8295  -14.7624  -48.3651 H         1 UNK         0.0800 
    134 H134        1.5483  -16.1120  -48.3258 H         1 UNK         0.0800 
    135 H135        0.6377  -15.0135  -49.3306 H         1 UNK         0.0800 
    136 H136       -0.4352  -15.8606  -51.3174 H         1 UNK         0.1150 
    137 H137        0.2830  -19.8971  -52.5718 H         1 UNK         0.1150 
    138 H138        2.5987  -18.1976  -49.3887 H         1 UNK         0.1150 
    139 H139        2.6542  -20.7973  -51.8242 H         1 UNK         0.0800 
    140 H140        3.1752  -20.3719  -50.2131 H         1 UNK         0.0800 
    141 H141        0.1165  -20.4076  -48.5611 H         1 UNK         0.0800 
    142 H142        1.7888  -20.6733  -48.1423 H         1 UNK         0.0800 
    143 H143        1.2171  -23.1075  -47.6192 H         1 UNK         0.0600 
    144 H144        0.7483  -20.8594  -45.9581 H         1 UNK         0.3000 
    145 H145        0.0910  -22.7055  -42.9481 H         1 UNK         0.0600 
    146 H146        1.9354  -21.2248  -42.2054 H         1 UNK         0.0600 
    147 H147        2.5692  -22.5207  -43.2091 H         1 UNK         0.0600 
    148 H148        2.3901  -20.9028  -43.8771 H         1 UNK         0.0600 
    149 H149        0.1338  -19.9122  -43.4298 H         1 UNK         0.3000 
    150 H150       -3.3239  -19.5490  -44.3588 H         1 UNK         0.0600 
    151 H151       -3.1611  -19.5765  -41.8669 H         1 UNK         0.0600 
    152 H152       -3.1526  -17.9350  -42.4945 H         1 UNK         0.0600 
    153 H153       -1.6519  -18.6754  -41.9448 H         1 UNK         0.0600 
    154 H154       -1.2833  -17.6021  -44.1817 H         1 UNK         0.3000 
    155 H155       -0.1322  -17.8542  -47.5905 H         1 UNK         0.0600 
    156 H156       -2.1863  -16.4268  -47.5026 H         1 UNK         0.0600 
    157 H157       -1.6385  -15.7289  -45.9841 H         1 UNK         0.0600 
    158 H158       -0.7226  -15.4645  -47.4641 H         1 UNK         0.0600 
    159 H159        0.7584  -16.2060  -45.4462 H         1 UNK         0.3000 
    160 H160        3.1626  -18.5029  -44.1009 H         1 UNK         0.0600 
    161 H161        3.6065  -15.7767  -45.3584 H         1 UNK         0.0600 
    162 H162        4.1584  -17.2572  -46.1454 H         1 UNK         0.0600 
    163 H163        4.7691  -16.8266  -44.5589 H         1 UNK         0.0600 
    164 H164        2.3693  -15.8101  -43.4115 H         1 UNK         0.3000 
    165 H165       -0.0821  -16.7778  -41.0038 H         1 UNK         0.0600 
    166 H166        1.4235  -15.3817  -39.5890 H         1 UNK         0.0600 
    167 H167        2.1008  -16.9835  -39.8374 H         1 UNK         0.0600 
    168 H168        2.7432  -15.6174  -40.7392 H         1 UNK         0.0600 
    169 H169        0.9902  -14.2532  -41.8877 H         1 UNK         0.3000 
    170 H170       -0.2420  -13.2836  -44.1802 H         1 UNK         0.0600 
    171 H171       -3.1256  -13.5243  -43.1677 H         1 UNK         0.0600 
    172 H172       -2.5373  -12.2802  -44.2703 H         1 UNK         0.0600 
    173 H173       -2.5517  -13.9615  -44.7674 H         1 UNK         0.0600 
    174 H174        0.1059  -11.8121  -42.5862 H         1 UNK         0.3000 
    175 H175       -0.8253  -10.2514  -40.7365 H         1 UNK         0.0600 
    176 H176       -0.8050  -10.3528  -38.2528 H         1 UNK         0.0600 
    177 H177       -1.0375  -12.1001  -38.3015 H         1 UNK         0.0600 
    178 H178       -2.2971  -11.0210  -38.8915 H         1 UNK         0.0600 
    179 H179        1.1750  -11.8579  -39.3162 H         1 UNK         0.3000 
    180 H180        3.6927  -10.4283  -40.3557 H         1 UNK         0.0600 
    181 H181        2.8927  -13.3672  -40.0268 H         1 UNK         0.0600 
    182 H182        3.0449  -12.1673  -38.7446 H         1 UNK         0.0600 
    183 H183        4.4689  -12.7117  -39.6050 H         1 UNK         0.0600 
    184 H184        4.7924  -11.0793  -42.1457 H         1 UNK         0.3000 
    185 H185        5.2103  -11.7629  -44.1681 H         1 UNK         0.0600 
    186 H186        6.2893  -13.5604  -42.8429 H         1 UNK         0.0600 
    187 H187        5.2256  -14.7708  -43.5385 H         1 UNK         0.0600 
    188 H188        6.4225  -13.9585  -44.5476 H         1 UNK         0.0600 
    189 H189        3.0458  -13.3768  -45.2083 H         1 UNK         0.3000 
    190 H190       -1.8107  -21.2451  -46.9720 H         1 UNK         0.3000 
    191 H191       -3.5092  -22.6958  -48.6392 H         1 UNK         0.0600 
    192 H192       -4.1395  -20.5285  -47.6014 H         1 UNK         0.0600 
    193 H193       -5.3400  -21.7455  -47.1924 H         1 UNK         0.0600 
    194 H194       -4.1422  -21.2626  -46.0043 H         1 UNK         0.0600 
    195 H195       -2.6532  -23.3770  -45.2345 H         1 UNK         0.3000 
    196 H196       -4.3771  -25.5843  -44.8373 H         1 UNK         0.0600 
    197 H197       -2.8346  -26.0933  -42.9330 H         1 UNK         0.0600 
    198 H198       -3.2353  -24.3833  -42.9944 H         1 UNK         0.0600 
    199 H199       -1.6635  -24.9405  -43.5639 H         1 UNK         0.0600 
    200 H200       -1.2054  -25.4064  -46.4133 H         1 UNK         0.3000 
    201 H201       -0.8945  -28.3204  -46.5998 H         1 UNK         0.0600 
    202 H202        1.0938  -26.8844  -46.2716 H         1 UNK         0.0600 
    203 H203        0.7529  -26.0134  -47.7633 H         1 UNK         0.0600 
    204 H204        1.1897  -27.7171  -47.8165 H         1 UNK         0.0600 
    205 H205       -1.5089  -25.5629  -48.8309 H         1 UNK         0.3000 
    206 H206       -1.5853  -27.1730  -51.1837 H         1 UNK         0.0600 
    207 H207       -0.9012  -24.7874  -51.1774 H         1 UNK         0.0600 
    208 H208       -2.2554  -25.0286  -52.2710 H         1 UNK         0.0600 
    209 H209       -2.5219  -24.2944  -50.6949 H         1 UNK         0.0600 
    210 H210       -4.1549  -25.9039  -49.0782 H         1 UNK         0.3000 
    211 H211       -6.3649  -25.9169  -49.0630 H         1 UNK         0.0600 
    212 H212       -6.0949  -28.6473  -50.4204 H         1 UNK         0.0600 
    213 H213       -7.5243  -28.0425  -49.5930 H         1 UNK         0.0600 
    214 H214       -6.0481  -28.3364  -48.6869 H         1 UNK         0.0600 
    215 H215       -6.7565  -24.2676  -52.3492 H         1 UNK         0.3000 
    216 H216       -5.2135  -23.9327  -49.8906 H         1 UNK         0.0600 
    217 H217       -7.6126  -23.7420  -49.1341 H         1 UNK         0.0600 
    218 H218       -6.8128  -22.1861  -49.0680 H         1 UNK         0.0600 
    219 H219       -7.9116  -22.5475  -50.3921 H         1 UNK         0.0600 
    220 H220       -4.8337  -21.4015  -49.7464 H         1 UNK         0.3000 
    221 H221       -3.1399  -20.7554  -51.8683 H         1 UNK         0.0600 
    222 H222       -4.2828  -18.9853  -49.6521 H         1 UNK         0.0600 
    223 H223       -2.7860  -19.9204  -49.5937 H         1 UNK         0.0600 
    224 H224       -2.9254  -18.5541  -50.6816 H         1 UNK         0.0600 
    225 H225       -6.5168  -19.8533  -51.3628 H         1 UNK         0.3000 
    226 H226       -6.7473  -17.8327  -53.3573 H         1 UNK         0.0600 
    227 H227       -8.4027  -18.1540  -51.5340 H         1 UNK         0.0600 
    228 H228       -9.1951  -18.2794  -53.0958 H         1 UNK         0.0600 
    229 H229       -8.8425  -19.7375  -52.1765 H         1 UNK         0.0600 
    230 H230       -6.5059  -21.3114  -53.6536 H         1 UNK         0.3000 
    231 H231       -7.4252  -21.2821  -56.4896 H         1 UNK         0.0600 
    232 H232       -7.3156  -23.7371  -56.2951 H         1 UNK         0.0600 
    233 H233       -8.3336  -23.0859  -55.0199 H         1 UNK         0.0600 
    234 H234       -6.6953  -23.6258  -54.6548 H         1 UNK         0.0600 
    235 H235       -4.5927  -21.8111  -54.3733 H         1 UNK         0.3000 
    236 H236       -2.8026  -22.7265  -56.3544 H         1 UNK         0.0600 
    237 H237       -2.5105  -22.9638  -53.8482 H         1 UNK         0.0600 
    238 H238       -1.0764  -22.3664  -54.6708 H         1 UNK         0.0600 
    239 H239       -2.0877  -21.2519  -53.7722 H         1 UNK         0.0600 
    240 H240       -3.3704  -19.3911  -55.1178 H         1 UNK         0.3000 
    241 H241       -1.5562  -18.2288  -57.1487 H         1 UNK         0.0600 
    242 H242       -2.3072  -17.4254  -59.1294 H         1 UNK         0.3800 
    243 H243       -3.9956  -17.2284  -59.5039 H         1 UNK         0.3800 
    244 H244       -2.3192  -16.0315  -56.0834 H         1 UNK         0.0800 
    245 H245       -3.1676  -16.9620  -54.8801 H         1 UNK         0.0800 
    246 H246       -2.1225  -17.1296  -52.6697 H         1 UNK         0.0800 
    247 H247       -1.7510  -18.7466  -53.2306 H         1 UNK         0.0800 
@<TRIPOS>BOND
     1    1    2 1    
     2    1  127 1    
     3    1  128 1    
     4    1  129 1    
     5    2    3 2    
     6    2    4 am   BACKBONE|DICT|INTERRES
     7    4    5 1    
     8    4  130 1    
     9    5    6 1    
    10    5   65 1    
    11    5  131 1    
    12    6    7 1    
    13    6  132 1    
    14    6  133 1    
    15    7    8 1    
    16    8    9 1    
    17    8  134 1    
    18    8  135 1    
    19    9   10 ar   
    20    9   14 ar   
    21   10   11 ar   
    22   10  136 1    
    23   11   12 ar   
    24   11  126 1    
    25   12   13 ar   
    26   12  137 1    
    27   13   14 ar   
    28   13   15 1    
    29   14  138 1    
    30   15   16 1    
    31   15  139 1    
    32   15  140 1    
    33   16   17 1    
    34   17   18 1    
    35   17  141 1    
    36   17  142 1    
    37   18   19 1    
    38   18   67 1    
    39   18  143 1    
    40   19   20 am   BACKBONE|DICT|INTERRES
    41   19  144 1    
    42   20   21 2    
    43   20   22 1    
    44   22   23 1    
    45   22   24 1    
    46   22  145 1    
    47   23  146 1    
    48   23  147 1    
    49   23  148 1    
    50   24   25 am   BACKBONE|DICT|INTERRES
    51   24  149 1    
    52   25   26 2    
    53   25   27 1    
    54   27   28 1    
    55   27   29 1    
    56   27  150 1    
    57   28  151 1    
    58   28  152 1    
    59   28  153 1    
    60   29   30 am   BACKBONE|DICT|INTERRES
    61   29  154 1    
    62   30   31 2    
    63   30   32 1    
    64   32   33 1    
    65   32   34 1    
    66   32  155 1    
    67   33  156 1    
    68   33  157 1    
    69   33  158 1    
    70   34   35 am   BACKBONE|DICT|INTERRES
    71   34  159 1    
    72   35   36 2    
    73   35   37 1    
    74   37   38 1    
    75   37   39 1    
    76   37  160 1    
    77   38  161 1    
    78   38  162 1    
    79   38  163 1    
    80   39   40 am   BACKBONE|DICT|INTERRES
    81   39  164 1    
    82   40   41 2    
    83   40   42 1    
    84   42   43 1    
    85   42   44 1    
    86   42  165 1    
    87   43  166 1    
    88   43  167 1    
    89   43  168 1    
    90   44   45 am   BACKBONE|DICT|INTERRES
    91   44  169 1    
    92   45   46 2    
    93   45   47 1    
    94   47   48 1    
    95   47   49 1    
    96   47  170 1    
    97   48  171 1    
    98   48  172 1    
    99   48  173 1    
   100   49   50 am   BACKBONE|DICT|INTERRES
   101   49  174 1    
   102   50   51 2    
   103   50   52 1    
   104   52   53 1    
   105   52   54 1    
   106   52  175 1    
   107   53  176 1    
   108   53  177 1    
   109   53  178 1    
   110   54   55 am   BACKBONE|DICT|INTERRES
   111   54  179 1    
   112   55   56 2    
   113   55   57 1    
   114   57   58 1    
   115   57   59 1    
   116   57  180 1    
   117   58  181 1    
   118   58  182 1    
   119   58  183 1    
   120   59   60 am   BACKBONE|DICT|INTERRES
   121   59  184 1    
   122   60   61 2    
   123   60   62 1    
   124   62   63 1    
   125   62   64 1    
   126   62  185 1    
   127   63  186 1    
   128   63  187 1    
   129   63  188 1    
   130   64   65 am   BACKBONE|DICT|INTERRES
   131   64  189 1    
   132   65   66 2    
   133   67   68 2    
   134   67   69 am   BACKBONE|DICT|INTERRES
   135   69   70 1    
   136   69  190 1    
   137   70   71 1    
   138   70   72 1    
   139   70  191 1    
   140   71  192 1    
   141   71  193 1    
   142   71  194 1    
   143   72   73 2    
   144   72   74 am   BACKBONE|DICT|INTERRES
   145   74   75 1    
   146   74  195 1    
   147   75   76 1    
   148   75   77 1    
   149   75  196 1    
   150   76  197 1    
   151   76  198 1    
   152   76  199 1    
   153   77   78 2    
   154   77   79 am   BACKBONE|DICT|INTERRES
   155   79   80 1    
   156   79  200 1    
   157   80   81 1    
   158   80   82 1    
   159   80  201 1    
   160   81  202 1    
   161   81  203 1    
   162   81  204 1    
   163   82   83 2    
   164   82   84 am   BACKBONE|DICT|INTERRES
   165   84   85 1    
   166   84  205 1    
   167   85   86 1    
   168   85   87 1    
   169   85  206 1    
   170   86  207 1    
   171   86  208 1    
   172   86  209 1    
   173   87   88 2    
   174   87   89 am   BACKBONE|DICT|INTERRES
   175   89   90 1    
   176   89  210 1    
   177   90   91 1    
   178   90   92 1    
   179   90  211 1    
   180   91  212 1    
   181   91  213 1    
   182   91  214 1    
   183   92   93 2    
   184   92   94 am   BACKBONE|DICT|INTERRES
   185   94   95 1    
   186   94  215 1    
   187   95   96 1    
   188   95   97 1    
   189   95  216 1    
   190   96  217 1    
   191   96  218 1    
   192   96  219 1    
   193   97   98 2    
   194   97   99 am   BACKBONE|DICT|INTERRES
   195   99  100 1    
   196   99  220 1    
   197  100  101 1    
   198  100  102 1    
   199  100  221 1    
   200  101  222 1    
   201  101  223 1    
   202  101  224 1    
   203  102  103 2    
   204  102  104 am   BACKBONE|DICT|INTERRES
   205  104  105 1    
   206  104  225 1    
   207  105  106 1    
   208  105  107 1    
   209  105  226 1    
   210  106  227 1    
   211  106  228 1    
   212  106  229 1    
   213  107  108 2    
   214  107  109 am   BACKBONE|DICT|INTERRES
   215  109  110 1    
   216  109  230 1    
   217  110  111 1    
   218  110  112 1    
   219  110  231 1    
   220  111  232 1    
   221  111  233 1    
   222  111  234 1    
   223  112  113 2    
   224  112  114 am   BACKBONE|DICT|INTERRES
   225  114  115 1    
   226  114  235 1    
   227  115  116 1    
   228  115  117 1    
   229  115  236 1    
   230  116  237 1    
   231  116  238 1    
   232  116  239 1    
   233  117  118 2    
   234  117  119 am   BACKBONE|DICT|INTERRES
   235  119  120 1    
   236  119  240 1    
   237  120  121 1    
   238  120  124 1    
   239  120  241 1    
   240  121  122 am   BACKBONE|DICT|INTERRES
   241  121  123 2    
   242  122  242 1    
   243  122  243 1    
   244  124  125 1    
   245  124  244 1    
   246  124  245 1    
   247  125  126 1    
   248  126  246 1    
   249  126  247 1    
@<TRIPOS>SUBSTRUCTURE
     1 UNK         1 GROUP             0       ****    0 ROOT    
