@<TRIPOS>MOLECULE
3R540
247   249    1
SMALL
USER_CHARGES


@<TRIPOS>ATOM
      1 CA         -3.1683  -18.3825  -46.8362 C.3       0 UNK        -0.1800 
      2 C          -2.5967  -16.9992  -47.0985 C.2       0 UNK         0.5000 
      3 O          -2.6285  -16.1482  -46.2118 O.2       0 UNK        -0.5000 
      4 N          -2.0971  -16.7640  -48.3192 N.am      1 UNK        -0.5000 
      5 CA         -1.4127  -15.5437  -48.7723 C.3       1 UNK         0.1400 
      6 C6         -0.0117  -15.3713  -48.1151 C.3       23 UNK        -0.0398 
      7 S7          1.1914  -14.6259  -49.2705 S.3       23 UNK        -0.2404 
      8 C8          2.4318  -15.9477  -49.4766 C.3       23 UNK        -0.0205 
      9 C9          1.8391  -17.2993  -49.8564 C.ar      23 UNK        -0.0193 
     10 C10         0.9290  -17.4194  -50.9124 C.ar      23 UNK        -0.1150 
     11 C11         0.3853  -18.6639  -51.2456 C.ar      23 UNK        -0.0193 
     12 C12         0.7583  -19.7908  -50.5102 C.ar      23 UNK        -0.1150 
     13 C13         1.6784  -19.6882  -49.4660 C.ar      23 UNK        -0.0193 
     14 C14         2.2174  -18.4406  -49.1443 C.ar      23 UNK        -0.1150 
     15 C15         2.1002  -20.9340  -48.7050 C.3       23 UNK        -0.0205 
     16 S16         1.7206  -20.8437  -46.9296 S.3       23 UNK        -0.2404 
     17 C17        -0.1014  -20.7175  -46.9030 C.3       23 UNK        -0.0398 
     18 CA         -0.8386  -22.0814  -46.8149 C.3       11 UNK         0.1400 
     19 N          -0.2075  -23.0407  -45.9074 N.am      11 UNK        -0.5000 
     20 C          -0.4146  -24.3633  -45.9327 C.2       10 UNK         0.5000 
     21 O          -1.1025  -24.9287  -46.7841 O.2       10 UNK        -0.5000 
     22 CA          0.2454  -25.1959  -44.8172 C.3       10 UNK         0.1400 
     23 CB          1.5801  -25.7765  -45.3041 C.3       10 UNK        -0.1800 
     24 N           0.4677  -24.4351  -43.5842 N.am      10 UNK        -0.5000 
     25 C          -0.5137  -24.0017  -42.7803 C.2       9 UNK         0.5000 
     26 O          -1.7066  -24.2183  -42.9860 O.2       9 UNK        -0.5000 
     27 CA         -0.1003  -23.1280  -41.5808 C.3       9 UNK         0.1400 
     28 CB          0.2915  -24.0068  -40.3839 C.3       9 UNK        -0.1800 
     29 N           0.9878  -22.1878  -41.8725 N.am      9 UNK        -0.5000 
     30 C           0.9577  -21.2516  -42.8298 C.2       8 UNK         0.5000 
     31 O           0.0177  -21.1152  -43.6206 O.2       8 UNK        -0.5000 
     32 CA          2.1888  -20.3376  -42.9369 C.3       8 UNK         0.1400 
     33 CB          3.4290  -21.1186  -43.4051 C.3       8 UNK        -0.1800 
     34 N           1.8912  -19.2852  -43.8998 N.am      8 UNK        -0.5000 
     35 C           2.2645  -18.0069  -43.8246 C.2       7 UNK         0.5000 
     36 O           2.9880  -17.5512  -42.9355 O.2       7 UNK        -0.5000 
     37 CA          1.6611  -17.0848  -44.9033 C.3       7 UNK         0.1400 
     38 CB          0.2101  -16.7441  -44.5336 C.3       7 UNK        -0.1800 
     39 N           2.4058  -15.8372  -45.0795 N.am      7 UNK        -0.5000 
     40 C           3.6466  -15.7519  -45.5820 C.2       6 UNK         0.5000 
     41 O           4.2645  -16.7230  -46.0210 O.2       6 UNK        -0.5000 
     42 CA          4.3166  -14.3600  -45.6318 C.3       6 UNK         0.1400 
     43 CB          4.4857  -13.8831  -47.0832 C.3       6 UNK        -0.1800 
     44 N           3.5953  -13.3258  -44.8900 N.am      6 UNK        -0.5000 
     45 C           3.5698  -13.2008  -43.5568 C.2       5 UNK         0.5000 
     46 O           4.2263  -13.9105  -42.7946 O.2       5 UNK        -0.5000 
     47 CA          2.6519  -12.1055  -42.9705 C.3       5 UNK         0.1400 
     48 CB          3.4889  -10.9236  -42.4563 C.3       5 UNK        -0.1800 
     49 N           1.6293  -11.5916  -43.8921 N.am      5 UNK        -0.5000 
     50 C           0.6343  -12.3110  -44.4276 C.2       4 UNK         0.5000 
     51 O           0.5126  -13.5273  -44.2658 O.2       4 UNK        -0.5000 
     52 CA         -0.3461  -11.5461  -45.3380 C.3       4 UNK         0.1400 
     53 CB          0.2591  -11.3711  -46.7391 C.3       4 UNK        -0.1800 
     54 N          -1.6328  -12.2365  -45.4489 N.am      4 UNK        -0.5000 
     55 C          -2.5304  -12.3177  -44.4551 C.2       3 UNK         0.5000 
     56 O          -2.4135  -11.7008  -43.3940 O.2       3 UNK        -0.5000 
     57 CA         -3.7377  -13.2604  -44.6526 C.3       3 UNK         0.1400 
     58 CB         -5.0060  -12.7836  -43.9127 C.3       3 UNK        -0.1800 
     59 N          -4.0218  -13.5878  -46.0529 N.am      3 UNK        -0.5000 
     60 C          -4.4985  -12.7798  -47.0136 C.2       2 UNK         0.5000 
     61 O          -4.8160  -11.6044  -46.8263 O.2       2 UNK        -0.5000 
     62 CA         -4.6293  -13.4019  -48.4262 C.3       2 UNK         0.1400 
     63 CB         -4.6451  -12.3431  -49.5488 C.3       2 UNK        -0.1800 
     64 N          -3.6163  -14.4323  -48.6971 N.am      2 UNK        -0.5000 
     65 C          -2.2840  -14.2673  -48.6592 C.2       1 UNK         0.5000 
     66 O          -1.7509  -13.1726  -48.4834 O.2       1 UNK        -0.5000 
     67 C          -2.3019  -21.8690  -46.3887 C.2       11 UNK         0.5000 
     68 O          -3.1991  -21.9366  -47.2258 O.2       11 UNK        -0.5000 
     69 N          -2.5108  -21.6492  -45.0812 N.am      12 UNK        -0.5000 
     70 CA         -3.8180  -21.4405  -44.4538 C.3       12 UNK         0.1400 
     71 CB         -3.6118  -21.0322  -42.9879 C.3       12 UNK        -0.1800 
     72 C          -4.7462  -22.6655  -44.5591 C.2       12 UNK         0.5000 
     73 O          -5.9469  -22.5024  -44.7759 O.2       12 UNK        -0.5000 
     74 N          -4.1662  -23.8686  -44.4511 N.am      13 UNK        -0.5000 
     75 CA         -4.8358  -25.1527  -44.6757 C.3       13 UNK         0.1400 
     76 CB         -3.9671  -26.2708  -44.0770 C.3       13 UNK        -0.1800 
     77 C          -5.1238  -25.4474  -46.1633 C.2       13 UNK         0.5000 
     78 O          -5.8409  -26.4051  -46.4554 O.2       13 UNK        -0.5000 
     79 N          -4.5457  -24.6427  -47.0675 N.am      14 UNK        -0.5000 
     80 CA         -4.5843  -24.7519  -48.5268 C.3       14 UNK         0.1400 
     81 CB         -6.0086  -24.5134  -49.0677 C.3       14 UNK        -0.1800 
     82 C          -3.9351  -26.0505  -49.0533 C.2       14 UNK         0.5000 
     83 O          -4.3840  -26.6081  -50.0566 O.2       14 UNK        -0.5000 
     84 N          -2.8925  -26.5146  -48.3530 N.am      15 UNK        -0.5000 
     85 CA         -2.1376  -27.7226  -48.6734 C.3       15 UNK         0.1400 
     86 CB         -1.6896  -28.3925  -47.3643 C.3       15 UNK        -0.1800 
     87 C          -0.9238  -27.4033  -49.5601 C.2       15 UNK         0.5000 
     88 O          -0.6301  -28.1641  -50.4827 O.2       15 UNK        -0.5000 
     89 N          -0.2406  -26.2878  -49.2660 N.am      16 UNK        -0.5000 
     90 CA          0.9408  -25.8222  -49.9971 C.3       16 UNK         0.1400 
     91 CB          1.6727  -24.7751  -49.1450 C.3       16 UNK        -0.1800 
     92 C           0.5986  -25.2564  -51.3888 C.2       16 UNK         0.5000 
     93 O           1.3429  -25.4826  -52.3434 O.2       16 UNK        -0.5000 
     94 N          -0.5327  -24.5519  -51.4703 N.am      17 UNK        -0.5000 
     95 CA         -1.1484  -23.9694  -52.6582 C.3       17 UNK         0.1400 
     96 CB         -0.3157  -22.7906  -53.1973 C.3       17 UNK        -0.1800 
     97 C          -2.5597  -23.5198  -52.2501 C.2       17 UNK         0.5000 
     98 O          -2.8874  -23.5636  -51.0614 O.2       17 UNK        -0.5000 
     99 N          -3.3760  -23.0949  -53.2213 N.am      18 UNK        -0.5000 
    100 CA        -4.7799  -22.7070  -53.0429 C.3       18 UNK         0.1400 
    101 CB        -5.4868  -22.7653  -54.4089 C.3       18 UNK        -0.1800 
    102 C         -4.9746  -21.3535  -52.3176 C.2       18 UNK         0.5000 
    103 O         -5.5588  -20.4245  -52.8775 O.2       18 UNK        -0.5000 
    104 N         -4.4944  -21.2823  -51.0705 N.am      19 UNK        -0.5000 
    105 CA        -4.6464  -20.2074  -50.0888 C.3       19 UNK         0.1400 
    106 CB        -6.0956  -20.1563  -49.5621 C.3       19 UNK        -0.1800 
    107 C         -4.1347  -18.8398  -50.5793 C.2       19 UNK         0.5000 
    108 O         -2.9644  -18.5264  -50.3670 O.2       19 UNK        -0.5000 
    109 N         -5.0187  -18.0391  -51.1852 N.am      20 UNK        -0.5000 
    110 CA        -4.7476  -16.6822  -51.6614 C.3       20 UNK         0.1400 
    111 CB        -5.9348  -15.7893  -51.2658 C.3       20 UNK        -0.1800 
    112 C         -4.5025  -16.6094  -53.1816 C.2       20 UNK         0.5000 
    113 O         -4.1787  -15.5286  -53.6779 O.2       20 UNK        -0.5000 
    114 N         -4.6504  -17.7342  -53.9017 N.am      21 UNK        -0.5000 
    115 CA        -4.5732  -17.8275  -55.3683 C.3       21 UNK         0.1400 
    116 CB        -4.8778  -19.2696  -55.7958 C.3       21 UNK        -0.1800 
    117 C         -3.2406  -17.3692  -55.9964 C.2       21 UNK         0.5000 
    118 O         -3.2106  -17.0577  -57.1878 O.2       21 UNK        -0.5000 
    119 N         -2.1734  -17.3281  -55.1910 N.am      22 UNK        -0.5000 
    120 CA        -0.8472  -16.8073  -55.5589 C.3       22 UNK         0.1400 
    121 C         -0.8149  -15.2721  -55.8264 C.2       22 UNK         0.5000 
    122 N         -1.8013  -14.4980  -55.3849 N.am      22 UNK        -0.7600 
    123 O          0.1237  -14.7768  -56.4440 O.2       22 UNK        -0.5000 
    124 C124        0.2391  -17.1803  -54.5150 C.3       23 UNK        -0.0398 
    125 S125        0.2027  -18.9349  -54.0038 S.3       23 UNK        -0.2404 
    126 C126       -0.6159  -18.8022  -52.3825 C.3       23 UNK        -0.0205 
    127 H127       -2.8160  -18.7522  -45.8735 H         1 UNK         0.0600 
    128 H128       -2.8628  -19.0924  -47.6036 H         1 UNK         0.0600 
    129 H129       -4.2571  -18.3452  -46.8129 H         1 UNK         0.0600 
    130 H130       -2.1828  -17.4896  -49.0291 H         1 UNK         0.3000 
    131 H131       -1.2730  -15.7020  -49.8426 H         1 UNK         0.0600 
    132 H132        0.3738  -16.3364  -47.7862 H         1 UNK         0.0800 
    133 H133       -0.0615  -14.7645  -47.2095 H         1 UNK         0.0800 
    134 H134        2.9998  -16.0309  -48.5500 H         1 UNK         0.0800 
    135 H135        3.1426  -15.6465  -50.2467 H         1 UNK         0.0800 
    136 H136        0.6394  -16.5374  -51.4630 H         1 UNK         0.1150 
    137 H137        0.3349  -20.7533  -50.7511 H         1 UNK         0.1150 
    138 H138        2.9286  -18.3619  -48.3334 H         1 UNK         0.1150 
    139 H139        1.6256  -21.8193  -49.1251 H         1 UNK         0.0800 
    140 H140        3.1748  -21.0748  -48.8274 H         1 UNK         0.0800 
    141 H141       -0.3498  -20.0841  -46.0502 H         1 UNK         0.0800 
    142 H142       -0.4446  -20.1650  -47.7788 H         1 UNK         0.0800 
    143 H143       -0.8425  -22.5171  -47.8166 H         1 UNK         0.0600 
    144 H144        0.3403  -22.6440  -45.1566 H         1 UNK         0.3000 
    145 H145       -0.4246  -26.0273  -44.5886 H         1 UNK         0.0600 
    146 H146        2.0391  -26.4050  -44.5408 H         1 UNK         0.0600 
    147 H147        1.4338  -26.3987  -46.1881 H         1 UNK         0.0600 
    148 H148        2.2904  -24.9911  -45.5660 H         1 UNK         0.0600 
    149 H149        1.4227  -24.2080  -43.3493 H         1 UNK         0.3000 
    150 H150       -0.9725  -22.5367  -41.2949 H         1 UNK         0.0600 
    151 H151       -0.5087  -24.7045  -40.1330 H         1 UNK         0.0600 
    152 H152        0.4831  -23.4030  -39.4967 H         1 UNK         0.0600 
    153 H153        1.1868  -24.5945  -40.5907 H         1 UNK         0.0600 
    154 H154        1.7967  -22.2424  -41.2704 H         1 UNK         0.3000 
    155 H155        2.3741  -19.9032  -41.9525 H         1 UNK         0.0600 
    156 H156        3.2562  -21.6146  -44.3608 H         1 UNK         0.0600 
    157 H157        3.7120  -21.8848  -42.6827 H         1 UNK         0.0600 
    158 H158        4.2870  -20.4568  -43.5249 H         1 UNK         0.0600 
    159 H159        1.2427  -19.5734  -44.6200 H         1 UNK         0.3000 
    160 H160        1.6654  -17.6151  -45.8583 H         1 UNK         0.0600 
    161 H161       -0.4203  -17.6342  -44.5317 H         1 UNK         0.0600 
    162 H162       -0.2227  -16.0405  -45.2411 H         1 UNK         0.0600 
    163 H163        0.1443  -16.2909  -43.5435 H         1 UNK         0.0600 
    164 H164        1.9587  -14.9976  -44.7294 H         1 UNK         0.3000 
    165 H165        5.3110  -14.4690  -45.1941 H         1 UNK         0.0600 
    166 H166        3.5226  -13.7026  -47.5606 H         1 UNK         0.0600 
    167 H167        5.0592  -12.9572  -47.1284 H         1 UNK         0.0600 
    168 H168        5.0191  -14.6219  -47.6828 H         1 UNK         0.0600 
    169 H169        3.0248  -12.6959  -45.4336 H         1 UNK         0.3000 
    170 H170        2.1319  -12.5503  -42.1195 H         1 UNK         0.0600 
    171 H171        4.2395  -11.2569  -41.7382 H         1 UNK         0.0600 
    172 H172        4.0135  -10.4197  -43.2690 H         1 UNK         0.0600 
    173 H173        2.8644  -10.1871  -41.9502 H         1 UNK         0.0600 
    174 H174        1.6748  -10.6028  -44.0935 H         1 UNK         0.3000 
    175 H175       -0.5222  -10.5572  -44.9095 H         1 UNK         0.0600 
    176 H176       -0.4323  -10.8570  -47.4070 H         1 UNK         0.0600 
    177 H177        1.1739  -10.7787  -46.7022 H         1 UNK         0.0600 
    178 H178        0.5102  -12.3304  -47.1924 H         1 UNK         0.0600 
    179 H179       -1.7928  -12.7580  -46.3013 H         1 UNK         0.3000 
    180 H180       -3.4389  -14.2048  -44.1954 H         1 UNK         0.0600 
    181 H181       -4.8334  -12.7299  -42.8373 H         1 UNK         0.0600 
    182 H182       -5.3199  -11.7921  -44.2395 H         1 UNK         0.0600 
    183 H183       -5.8376  -13.4701  -44.0712 H         1 UNK         0.0600 
    184 H184       -3.7325  -14.5251  -46.3181 H         1 UNK         0.3000 
    185 H185       -5.5939  -13.9108  -48.4415 H         1 UNK         0.0600 
    186 H186       -3.7466  -11.7255  -49.5363 H         1 UNK         0.0600 
    187 H187       -4.7165  -12.8078  -50.5316 H         1 UNK         0.0600 
    188 H188       -5.5007  -11.6751  -49.4435 H         1 UNK         0.0600 
    189 H189       -3.9639  -15.3735  -48.8079 H         1 UNK         0.3000 
    190 H190       -1.7031  -21.5998  -44.4673 H         1 UNK         0.3000 
    191 H191       -4.3068  -20.6136  -44.9727 H         1 UNK         0.0600 
    192 H192       -4.5660  -20.8230  -42.5028 H         1 UNK         0.0600 
    193 H193       -3.0022  -20.1316  -42.9114 H         1 UNK         0.0600 
    194 H194       -3.1186  -21.8195  -42.4174 H         1 UNK         0.0600 
    195 H195       -3.1890  -23.9138  -44.1750 H         1 UNK         0.3000 
    196 H196       -5.7932  -25.1413  -44.1510 H         1 UNK         0.0600 
    197 H197       -4.4463  -27.2444  -44.1871 H         1 UNK         0.0600 
    198 H198       -3.7985  -26.1121  -43.0117 H         1 UNK         0.0600 
    199 H199       -2.9939  -26.3266  -44.5664 H         1 UNK         0.0600 
    200 H200       -3.9955  -23.8664  -46.7218 H         1 UNK         0.3000 
    201 H201       -3.9628  -23.9320  -48.8792 H         1 UNK         0.0600 
    202 H202       -6.4269  -23.5858  -48.6777 H         1 UNK         0.0600 
    203 H203       -6.6849  -25.3261  -48.8018 H         1 UNK         0.0600 
    204 H204       -6.0028  -24.4338  -50.1551 H         1 UNK         0.0600 
    205 H205       -2.5409  -25.9577  -47.5804 H         1 UNK         0.3000 
    206 H206       -2.7762  -28.4266  -49.2113 H         1 UNK         0.0600 
    207 H207       -2.5472  -28.6545  -46.7442 H         1 UNK         0.0600 
    208 H208       -1.1398  -29.3128  -47.5656 H         1 UNK         0.0600 
    209 H209       -1.0395  -27.7432  -46.7768 H         1 UNK         0.0600 
    210 H210       -0.5451  -25.7297  -48.4749 H         1 UNK         0.3000 
    211 H211        1.6145  -26.6692  -50.1439 H         1 UNK         0.0600 
    212 H212        0.9981  -23.9802  -48.8291 H         1 UNK         0.0600 
    213 H213        2.4952  -24.3175  -49.6965 H         1 UNK         0.0600 
    214 H214        2.0968  -25.2260  -48.2487 H         1 UNK         0.0600 
    215 H215       -1.1099  -24.4490  -50.6438 H         1 UNK         0.3000 
    216 H216       -1.2382  -24.7428  -53.4232 H         1 UNK         0.0600 
    217 H217       -0.7652  -22.3659  -54.0954 H         1 UNK         0.0600 
    218 H218        0.6952  -23.0978  -53.4637 H         1 UNK         0.0600 
    219 H219       -0.2378  -21.9903  -52.4654 H         1 UNK         0.0600 
    220 H220       -3.0255  -23.0577  -54.1674 H         1 UNK         0.3000 
    221 H221       -5.2559  -23.4591  -52.4102 H         1 UNK         0.0600 
    222 H222       -5.0152  -22.1089  -55.1386 H         1 UNK         0.0600 
    223 H223       -5.4706  -23.7771  -54.8144 H         1 UNK         0.0600 
    224 H224       -6.5336  -22.4701  -54.3257 H         1 UNK         0.0600 
    225 H225       -3.9548  -22.0856  -50.7567 H         1 UNK         0.3000 
    226 H226       -4.0094  -20.4813  -49.2485 H         1 UNK         0.0600 
    227 H227       -6.3537  -21.0849  -49.0531 H         1 UNK         0.0600 
    228 H228       -6.2222  -19.3494  -48.8390 H         1 UNK         0.0600 
    229 H229       -6.8232  -20.0053  -50.3599 H         1 UNK         0.0600 
    230 H230       -5.9454  -18.4024  -51.3612 H         1 UNK         0.3000 
    231 H231       -3.8525  -16.2870  -51.1768 H         1 UNK         0.0600 
    232 H232       -5.7675  -14.7545  -51.5660 H         1 UNK         0.0600 
    233 H233       -6.0896  -15.7930  -50.1870 H         1 UNK         0.0600 
    234 H234       -6.8609  -16.1207  -51.7371 H         1 UNK         0.0600 
    235 H235       -4.9196  -18.5868  -53.4196 H         1 UNK         0.3000 
    236 H236       -5.3538  -17.1808  -55.7736 H         1 UNK         0.0600 
    237 H237       -4.1382  -19.9617  -55.3926 H         1 UNK         0.0600 
    238 H238       -5.8633  -19.5856  -55.4535 H         1 UNK         0.0600 
    239 H239       -4.8662  -19.3714  -56.8818 H         1 UNK         0.0600 
    240 H240       -2.2916  -17.6186  -54.2338 H         1 UNK         0.3000 
    241 H241       -0.5730  -17.2879  -56.4999 H         1 UNK         0.0600 
    242 H242       -2.5824  -14.8896  -54.8704 H         1 UNK         0.3800 
    243 H243       -1.7716  -13.5072  -55.5660 H         1 UNK         0.3800 
    244 H244        1.2305  -16.9767  -54.9230 H         1 UNK         0.0800 
    245 H245        0.1476  -16.5442  -53.6352 H         1 UNK         0.0800 
    246 H246       -1.3070  -17.9590  -52.3714 H         1 UNK         0.0800 
    247 H247       -1.2310  -19.6904  -52.2303 H         1 UNK         0.0800 
@<TRIPOS>BOND
     1    1    2 1    
     2    1  127 1    
     3    1  128 1    
     4    1  129 1    
     5    2    3 2    
     6    2    4 am   BACKBONE|DICT|INTERRES
     7    4    5 1    
     8    4  130 1    
     9    5    6 1    
    10    5   65 1    
    11    5  131 1    
    12    6    7 1    
    13    6  132 1    
    14    6  133 1    
    15    7    8 1    
    16    8    9 1    
    17    8  134 1    
    18    8  135 1    
    19    9   10 ar   
    20    9   14 ar   
    21   10   11 ar   
    22   10  136 1    
    23   11   12 ar   
    24   11  126 1    
    25   12   13 ar   
    26   12  137 1    
    27   13   14 ar   
    28   13   15 1    
    29   14  138 1    
    30   15   16 1    
    31   15  139 1    
    32   15  140 1    
    33   16   17 1    
    34   17   18 1    
    35   17  141 1    
    36   17  142 1    
    37   18   19 1    
    38   18   67 1    
    39   18  143 1    
    40   19   20 am   BACKBONE|DICT|INTERRES
    41   19  144 1    
    42   20   21 2    
    43   20   22 1    
    44   22   23 1    
    45   22   24 1    
    46   22  145 1    
    47   23  146 1    
    48   23  147 1    
    49   23  148 1    
    50   24   25 am   BACKBONE|DICT|INTERRES
    51   24  149 1    
    52   25   26 2    
    53   25   27 1    
    54   27   28 1    
    55   27   29 1    
    56   27  150 1    
    57   28  151 1    
    58   28  152 1    
    59   28  153 1    
    60   29   30 am   BACKBONE|DICT|INTERRES
    61   29  154 1    
    62   30   31 2    
    63   30   32 1    
    64   32   33 1    
    65   32   34 1    
    66   32  155 1    
    67   33  156 1    
    68   33  157 1    
    69   33  158 1    
    70   34   35 am   BACKBONE|DICT|INTERRES
    71   34  159 1    
    72   35   36 2    
    73   35   37 1    
    74   37   38 1    
    75   37   39 1    
    76   37  160 1    
    77   38  161 1    
    78   38  162 1    
    79   38  163 1    
    80   39   40 am   BACKBONE|DICT|INTERRES
    81   39  164 1    
    82   40   41 2    
    83   40   42 1    
    84   42   43 1    
    85   42   44 1    
    86   42  165 1    
    87   43  166 1    
    88   43  167 1    
    89   43  168 1    
    90   44   45 am   BACKBONE|DICT|INTERRES
    91   44  169 1    
    92   45   46 2    
    93   45   47 1    
    94   47   48 1    
    95   47   49 1    
    96   47  170 1    
    97   48  171 1    
    98   48  172 1    
    99   48  173 1    
   100   49   50 am   BACKBONE|DICT|INTERRES
   101   49  174 1    
   102   50   51 2    
   103   50   52 1    
   104   52   53 1    
   105   52   54 1    
   106   52  175 1    
   107   53  176 1    
   108   53  177 1    
   109   53  178 1    
   110   54   55 am   BACKBONE|DICT|INTERRES
   111   54  179 1    
   112   55   56 2    
   113   55   57 1    
   114   57   58 1    
   115   57   59 1    
   116   57  180 1    
   117   58  181 1    
   118   58  182 1    
   119   58  183 1    
   120   59   60 am   BACKBONE|DICT|INTERRES
   121   59  184 1    
   122   60   61 2    
   123   60   62 1    
   124   62   63 1    
   125   62   64 1    
   126   62  185 1    
   127   63  186 1    
   128   63  187 1    
   129   63  188 1    
   130   64   65 am   BACKBONE|DICT|INTERRES
   131   64  189 1    
   132   65   66 2    
   133   67   68 2    
   134   67   69 am   BACKBONE|DICT|INTERRES
   135   69   70 1    
   136   69  190 1    
   137   70   71 1    
   138   70   72 1    
   139   70  191 1    
   140   71  192 1    
   141   71  193 1    
   142   71  194 1    
   143   72   73 2    
   144   72   74 am   BACKBONE|DICT|INTERRES
   145   74   75 1    
   146   74  195 1    
   147   75   76 1    
   148   75   77 1    
   149   75  196 1    
   150   76  197 1    
   151   76  198 1    
   152   76  199 1    
   153   77   78 2    
   154   77   79 am   BACKBONE|DICT|INTERRES
   155   79   80 1    
   156   79  200 1    
   157   80   81 1    
   158   80   82 1    
   159   80  201 1    
   160   81  202 1    
   161   81  203 1    
   162   81  204 1    
   163   82   83 2    
   164   82   84 am   BACKBONE|DICT|INTERRES
   165   84   85 1    
   166   84  205 1    
   167   85   86 1    
   168   85   87 1    
   169   85  206 1    
   170   86  207 1    
   171   86  208 1    
   172   86  209 1    
   173   87   88 2    
   174   87   89 am   BACKBONE|DICT|INTERRES
   175   89   90 1    
   176   89  210 1    
   177   90   91 1    
   178   90   92 1    
   179   90  211 1    
   180   91  212 1    
   181   91  213 1    
   182   91  214 1    
   183   92   93 2    
   184   92   94 am   BACKBONE|DICT|INTERRES
   185   94   95 1    
   186   94  215 1    
   187   95   96 1    
   188   95   97 1    
   189   95  216 1    
   190   96  217 1    
   191   96  218 1    
   192   96  219 1    
   193   97   98 2    
   194   97   99 am   BACKBONE|DICT|INTERRES
   195   99  100 1    
   196   99  220 1    
   197  100  101 1    
   198  100  102 1    
   199  100  221 1    
   200  101  222 1    
   201  101  223 1    
   202  101  224 1    
   203  102  103 2    
   204  102  104 am   BACKBONE|DICT|INTERRES
   205  104  105 1    
   206  104  225 1    
   207  105  106 1    
   208  105  107 1    
   209  105  226 1    
   210  106  227 1    
   211  106  228 1    
   212  106  229 1    
   213  107  108 2    
   214  107  109 am   BACKBONE|DICT|INTERRES
   215  109  110 1    
   216  109  230 1    
   217  110  111 1    
   218  110  112 1    
   219  110  231 1    
   220  111  232 1    
   221  111  233 1    
   222  111  234 1    
   223  112  113 2    
   224  112  114 am   BACKBONE|DICT|INTERRES
   225  114  115 1    
   226  114  235 1    
   227  115  116 1    
   228  115  117 1    
   229  115  236 1    
   230  116  237 1    
   231  116  238 1    
   232  116  239 1    
   233  117  118 2    
   234  117  119 am   BACKBONE|DICT|INTERRES
   235  119  120 1    
   236  119  240 1    
   237  120  121 1    
   238  120  124 1    
   239  120  241 1    
   240  121  122 am   BACKBONE|DICT|INTERRES
   241  121  123 2    
   242  122  242 1    
   243  122  243 1    
   244  124  125 1    
   245  124  244 1    
   246  124  245 1    
   247  125  126 1    
   248  126  246 1    
   249  126  247 1    
@<TRIPOS>SUBSTRUCTURE
     1 UNK         1 GROUP             0       ****    0 ROOT    
