@<TRIPOS>MOLECULE
3R540
247   249    1
SMALL
USER_CHARGES


@<TRIPOS>ATOM
      1 CA         -0.7689  -15.4907  -50.0016 C.3       0 UNK        -0.1800 
      2 C          -0.4888  -14.9319  -48.6174 C.2       0 UNK         0.5000 
      3 O           0.6537  -14.9894  -48.1610 O.2       0 UNK        -0.5000 
      4 N          -1.5055  -14.3612  -47.9548 N.am      1 UNK        -0.5000 
      5 CA         -1.4344  -13.7380  -46.6224 C.3       1 UNK         0.1400 
      6 C6         -2.8223  -13.6790  -45.9262 C.3       23 UNK        -0.0398 
      7 S7         -3.2748  -15.2811  -45.1733 S.3       23 UNK        -0.2404 
      8 C8         -5.0122  -15.5187  -45.6737 C.3       23 UNK        -0.0205 
      9 C9         -5.1709  -16.6035  -46.7316 C.ar      23 UNK        -0.0193 
     10 C10        -4.6208  -16.4259  -48.0027 C.ar      23 UNK        -0.1150 
     11 C11        -4.7845  -17.3975  -48.9923 C.ar      23 UNK        -0.0193 
     12 C12        -5.5187  -18.5505  -48.7071 C.ar      23 UNK        -0.1150 
     13 C13        -6.0685  -18.7513  -47.4388 C.ar      23 UNK        -0.0193 
     14 C14        -5.8897  -17.7736  -46.4534 C.ar      23 UNK        -0.1150 
     15 C15        -6.8993  -19.9996  -47.1658 C.3       23 UNK        -0.0205 
     16 S16        -5.9444  -21.5473  -47.3331 S.3       23 UNK        -0.2404 
     17 C17        -5.3159  -21.8215  -45.6406 C.3       23 UNK        -0.0398 
     18 CA         -3.7877  -22.0861  -45.5682 C.3       11 UNK         0.1400 
     19 N          -3.2362  -21.9021  -44.2222 N.am      11 UNK        -0.5000 
     20 C          -3.6337  -22.4457  -43.0639 C.2       10 UNK         0.5000 
     21 O          -4.5126  -23.3034  -42.9784 O.2       10 UNK        -0.5000 
     22 CA         -2.9262  -21.9468  -41.7888 C.3       10 UNK         0.1400 
     23 CB         -1.7687  -22.8811  -41.4086 C.3       10 UNK        -0.1800 
     24 N          -2.4118  -20.5856  -41.9571 N.am      10 UNK        -0.5000 
     25 C          -3.1391  -19.4744  -41.7691 C.2       9 UNK         0.5000 
     26 O          -4.2725  -19.4736  -41.2872 O.2       9 UNK        -0.5000 
     27 CA         -2.5076  -18.1404  -42.2205 C.3       9 UNK         0.1400 
     28 CB         -1.7013  -17.5121  -41.0747 C.3       9 UNK        -0.1800 
     29 N          -1.6555  -18.2747  -43.4062 N.am      9 UNK        -0.5000 
     30 C          -2.1048  -18.6569  -44.6121 C.2       8 UNK         0.5000 
     31 O          -3.2905  -18.8675  -44.8549 O.2       8 UNK        -0.5000 
     32 CA         -1.0656  -18.9274  -45.7157 C.3       8 UNK         0.1400 
     33 CB         -0.9030  -17.7146  -46.6369 C.3       8 UNK        -0.1800 
     34 N           0.2440  -19.3426  -45.2130 N.am      8 UNK        -0.5000 
     35 C           0.4737  -20.4742  -44.5341 C.2       7 UNK         0.5000 
     36 O          -0.4186  -21.2532  -44.2014 O.2       7 UNK        -0.5000 
     37 CA          1.9272  -20.7779  -44.1446 C.3       7 UNK         0.1400 
     38 CB          2.6870  -21.3725  -45.3381 C.3       7 UNK        -0.1800 
     39 N           2.6085  -19.5707  -43.6843 N.am      7 UNK        -0.5000 
     40 C           2.8115  -19.2598  -42.3969 C.2       6 UNK         0.5000 
     41 O           2.5033  -19.9938  -41.4573 O.2       6 UNK        -0.5000 
     42 CA          3.4592  -17.8920  -42.0978 C.3       6 UNK         0.1400 
     43 CB          4.9824  -18.0381  -41.9617 C.3       6 UNK        -0.1800 
     44 N           3.1670  -16.8645  -43.0995 N.am      6 UNK        -0.5000 
     45 C           1.9440  -16.3937  -43.3769 C.2       5 UNK         0.5000 
     46 O           0.9186  -16.7724  -42.8123 O.2       5 UNK        -0.5000 
     47 CA          1.8379  -15.3628  -44.5141 C.3       5 UNK         0.1400 
     48 CB          2.0150  -13.9381  -43.9693 C.3       5 UNK        -0.1800 
     49 N           2.7549  -15.5669  -45.6411 N.am      5 UNK        -0.5000 
     50 C           2.9194  -16.7002  -46.3412 C.2       4 UNK         0.5000 
     51 O           2.4268  -17.7817  -46.0169 O.2       4 UNK        -0.5000 
     52 CA          3.7585  -16.5925  -47.6246 C.3       4 UNK         0.1400 
     53 CB          3.4970  -17.7557  -48.6010 C.3       4 UNK        -0.1800 
     54 N           3.4737  -15.3256  -48.2956 N.am      4 UNK        -0.5000 
     55 C           4.3752  -14.5484  -48.9058 C.2       3 UNK         0.5000 
     56 O           5.5822  -14.7917  -48.9346 O.2       3 UNK        -0.5000 
     57 CA          3.8419  -13.2891  -49.6137 C.3       3 UNK         0.1400 
     58 CB          3.4119  -13.6304  -51.0491 C.3       3 UNK        -0.1800 
     59 N           2.7153  -12.6619  -48.9205 N.am      3 UNK        -0.5000 
     60 C           2.8161  -11.9116  -47.8135 C.2       2 UNK         0.5000 
     61 O           3.8721  -11.7023  -47.2172 O.2       2 UNK        -0.5000 
     62 CA          1.5042  -11.3222  -47.2749 C.3       2 UNK         0.1400 
     63 CB          1.0064  -10.1792  -48.1820 C.3       2 UNK        -0.1800 
     64 N           0.5274  -12.4005  -47.1749 N.am      2 UNK        -0.5000 
     65 C          -0.7054  -12.3709  -46.6626 C.2       1 UNK         0.5000 
     66 O          -1.2476  -11.3505  -46.2362 O.2       1 UNK        -0.5000 
     67 C          -3.3598  -23.4349  -46.1818 C.2       11 UNK         0.5000 
     68 O          -2.8195  -23.4564  -47.2865 O.2       11 UNK        -0.5000 
     69 N          -3.5542  -24.5289  -45.4361 N.am      12 UNK        -0.5000 
     70 CA         -3.2042  -25.8941  -45.8324 C.3       12 UNK         0.1400 
     71 CB         -4.0463  -26.8705  -44.9960 C.3       12 UNK        -0.1800 
     72 C          -1.7027  -26.2218  -45.6924 C.2       12 UNK         0.5000 
     73 O          -1.2678  -27.2602  -46.1915 O.2       12 UNK        -0.5000 
     74 N          -0.9378  -25.3605  -45.0049 N.am      13 UNK        -0.5000 
     75 CA          0.4888  -25.5529  -44.7206 C.3       13 UNK         0.1400 
     76 CB          0.8993  -24.6264  -43.5681 C.3       13 UNK        -0.1800 
     77 C           1.4139  -25.3523  -45.9389 C.2       13 UNK         0.5000 
     78 O           2.5732  -25.7649  -45.8838 O.2       13 UNK        -0.5000 
     79 N           0.8978  -24.7406  -47.0095 N.am      14 UNK        -0.5000 
     80 CA          1.5470  -24.6233  -48.3105 C.3       14 UNK         0.1400 
     81 CB          2.0176  -23.1759  -48.5287 C.3       14 UNK        -0.1800 
     82 C           0.5401  -25.0417  -49.3876 C.2       14 UNK         0.5000 
     83 O          -0.6688  -24.9410  -49.1618 O.2       14 UNK        -0.5000 
     84 N           1.0545  -25.4872  -50.5415 N.am      15 UNK        -0.5000 
     85 CA          0.2826  -25.9141  -51.7104 C.3       15 UNK         0.1400 
     86 CB          1.2494  -26.4186  -52.7941 C.3       15 UNK        -0.1800 
     87 C          -0.6082  -24.7757  -52.2380 C.2       15 UNK         0.5000 
     88 O          -0.0961  -23.8315  -52.8432 O.2       15 UNK        -0.5000 
     89 N          -1.9083  -24.8538  -51.9187 N.am      16 UNK        -0.5000 
     90 CA         -2.9404  -23.8419  -52.1686 C.3       16 UNK         0.1400 
     91 CB         -3.2765  -23.7915  -53.6722 C.3       16 UNK        -0.1800 
     92 C          -2.5632  -22.4626  -51.5831 C.2       16 UNK         0.5000 
     93 O          -2.7167  -21.4391  -52.2546 O.2       16 UNK        -0.5000 
     94 N          -1.9957  -22.4701  -50.3661 N.am      17 UNK        -0.5000 
     95 CA         -1.4705  -21.3139  -49.6261 C.3       17 UNK         0.1400 
     96 CB         -2.6227  -20.3731  -49.2262 C.3       17 UNK        -0.1800 
     97 C          -0.3347  -20.5564  -50.3540 C.2       17 UNK         0.5000 
     98 O          -0.0448  -19.4146  -49.9979 O.2       17 UNK        -0.5000 
     99 N           0.2675  -21.1951  -51.3711 N.am      18 UNK        -0.5000 
    100 CA         1.2490  -20.6554  -52.3160 C.3       18 UNK         0.1400 
    101 CB         2.5598  -20.2770  -51.5940 C.3       18 UNK        -0.1800 
    102 C          0.7006  -19.5086  -53.1976 C.2       18 UNK         0.5000 
    103 O          1.4937  -18.7358  -53.7390 O.2       18 UNK        -0.5000 
    104 N         -0.6301  -19.4094  -53.3433 N.am      19 UNK        -0.5000 
    105 CA        -1.2999  -18.3120  -54.0457 C.3       19 UNK         0.1400 
    106 CB        -1.3693  -17.0710  -53.1342 C.3       19 UNK        -0.1800 
    107 C         -2.6762  -18.7324  -54.5921 C.2       19 UNK         0.5000 
    108 O         -3.6139  -17.9328  -54.5737 O.2       19 UNK        -0.5000 
    109 N         -2.7822  -19.9847  -55.0649 N.am      20 UNK        -0.5000 
    110 CA        -3.9632  -20.5876  -55.7064 C.3       20 UNK         0.1400 
    111 CB        -4.1647  -19.9866  -57.1127 C.3       20 UNK        -0.1800 
    112 C         -5.2459  -20.5208  -54.8445 C.2       20 UNK         0.5000 
    113 O         -6.3434  -20.3238  -55.3701 O.2       20 UNK        -0.5000 
    114 N         -5.0645  -20.6466  -53.5225 N.am      21 UNK        -0.5000 
    115 CA        -6.0601  -20.5430  -52.4527 C.3       21 UNK         0.1400 
    116 CB        -7.0923  -21.6843  -52.5518 C.3       21 UNK        -0.1800 
    117 C         -6.7198  -19.1515  -52.3333 C.2       21 UNK         0.5000 
    118 O         -7.7292  -19.0260  -51.6390 O.2       21 UNK        -0.5000 
    119 N         -6.1331  -18.1314  -52.9798 N.am      22 UNK        -0.5000 
    120 CA        -6.5852  -16.7300  -52.9909 C.3       22 UNK         0.1400 
    121 C         -7.9928  -16.5115  -53.6310 C.2       22 UNK         0.5000 
    122 N         -8.4724  -17.4125  -54.4812 N.am      22 UNK        -0.7600 
    123 O         -8.6480  -15.5009  -53.3900 O.2       22 UNK        -0.5000 
    124 C124       -6.4075  -16.0433  -51.6050 C.3       23 UNK        -0.0398 
    125 S125       -4.6521  -15.7120  -51.2223 S.3       23 UNK        -0.2404 
    126 C126       -4.1310  -17.2255  -50.3530 C.3       23 UNK        -0.0205 
    127 H127       -0.7242  -16.5797  -49.9787 H         1 UNK         0.0600 
    128 H128       -1.7477  -15.1854  -50.3696 H         1 UNK         0.0600 
    129 H129       -0.0185  -15.1357  -50.7077 H         1 UNK         0.0600 
    130 H130       -2.4049  -14.3032  -48.4078 H         1 UNK         0.3000 
    131 H131       -0.7978  -14.3683  -46.0022 H         1 UNK         0.0600 
    132 H132       -3.5889  -13.3407  -46.6240 H         1 UNK         0.0800 
    133 H133       -2.8267  -12.9617  -45.1038 H         1 UNK         0.0800 
    134 H134       -5.4414  -14.5862  -46.0411 H         1 UNK         0.0800 
    135 H135       -5.5839  -15.7799  -44.7822 H         1 UNK         0.0800 
    136 H136       -4.0620  -15.5292  -48.2218 H         1 UNK         0.1150 
    137 H137       -5.6559  -19.3053  -49.4671 H         1 UNK         0.1150 
    138 H138       -6.3172  -17.9191  -45.4716 H         1 UNK         0.1150 
    139 H139       -7.3695  -19.9544  -46.1824 H         1 UNK         0.0800 
    140 H140       -7.7177  -20.0255  -47.8866 H         1 UNK         0.0800 
    141 H141       -5.8783  -22.6421  -45.1933 H         1 UNK         0.0800 
    142 H142       -5.5475  -20.9387  -45.0429 H         1 UNK         0.0800 
    143 H143       -3.3047  -21.3146  -46.1688 H         1 UNK         0.0600 
    144 H144       -2.4243  -21.2973  -44.1818 H         1 UNK         0.3000 
    145 H145       -3.6554  -21.9654  -40.9762 H         1 UNK         0.0600 
    146 H146       -1.3212  -22.5852  -40.4598 H         1 UNK         0.0600 
    147 H147       -2.1130  -23.9104  -41.2996 H         1 UNK         0.0600 
    148 H148       -0.9834  -22.8740  -42.1628 H         1 UNK         0.0600 
    149 H149       -1.4990  -20.5007  -42.3847 H         1 UNK         0.3000 
    150 H150       -3.3238  -17.4605  -42.4743 H         1 UNK         0.0600 
    151 H151       -2.3056  -17.4239  -40.1710 H         1 UNK         0.0600 
    152 H152       -1.3648  -16.5089  -41.3368 H         1 UNK         0.0600 
    153 H153       -0.8217  -18.1080  -40.8277 H         1 UNK         0.0600 
    154 H154       -0.6711  -18.0628  -43.2866 H         1 UNK         0.3000 
    155 H155       -1.4491  -19.7505  -46.3209 H         1 UNK         0.0600 
    156 H156       -0.5137  -16.8538  -46.0971 H         1 UNK         0.0600 
    157 H157       -1.8606  -17.4243  -47.0715 H         1 UNK         0.0600 
    158 H158       -0.2232  -17.9305  -47.4618 H         1 UNK         0.0600 
    159 H159        1.0339  -18.7552  -45.4737 H         1 UNK         0.3000 
    160 H160        1.9112  -21.5288  -43.3524 H         1 UNK         0.0600 
    161 H161        3.7130  -21.6220  -45.0675 H         1 UNK         0.0600 
    162 H162        2.7204  -20.6849  -46.1844 H         1 UNK         0.0600 
    163 H163        2.2078  -22.2916  -45.6753 H         1 UNK         0.0600 
    164 H164        2.8390  -18.8851  -44.3955 H         1 UNK         0.3000 
    165 H165        3.0618  -17.5453  -41.1416 H         1 UNK         0.0600 
    166 H166        5.4446  -17.0969  -41.6635 H         1 UNK         0.0600 
    167 H167        5.2377  -18.7786  -41.2025 H         1 UNK         0.0600 
    168 H168        5.4409  -18.3569  -42.8986 H         1 UNK         0.0600 
    169 H169        3.9486  -16.5084  -43.6296 H         1 UNK         0.3000 
    170 H170        0.8282  -15.4460  -44.9113 H         1 UNK         0.0600 
    171 H171        1.3175  -13.7413  -43.1540 H         1 UNK         0.0600 
    172 H172        3.0233  -13.7780  -43.5857 H         1 UNK         0.0600 
    173 H173        1.8286  -13.1913  -44.7401 H         1 UNK         0.0600 
    174 H174        3.2266  -14.7428  -45.9836 H         1 UNK         0.3000 
    175 H175        4.8041  -16.6272  -47.3130 H         1 UNK         0.0600 
    176 H176        2.4495  -17.7918  -48.9050 H         1 UNK         0.0600 
    177 H177        4.1037  -17.6607  -49.5015 H         1 UNK         0.0600 
    178 H178        3.7408  -18.7166  -48.1461 H         1 UNK         0.0600 
    179 H179        2.4892  -15.0660  -48.3164 H         1 UNK         0.3000 
    180 H180        4.6595  -12.5669  -49.6673 H         1 UNK         0.0600 
    181 H181        2.5815  -14.3377  -51.0636 H         1 UNK         0.0600 
    182 H182        4.2347  -14.0794  -51.6071 H         1 UNK         0.0600 
    183 H183        3.1025  -12.7369  -51.5916 H         1 UNK         0.0600 
    184 H184        1.8086  -12.7763  -49.3484 H         1 UNK         0.3000 
    185 H185        1.6905  -10.9298  -46.2734 H         1 UNK         0.0600 
    186 H186        1.7873   -9.4326  -48.3319 H         1 UNK         0.0600 
    187 H187        0.7065  -10.5439  -49.1649 H         1 UNK         0.0600 
    188 H188        0.1530   -9.6624  -47.7439 H         1 UNK         0.0600 
    189 H189        0.8494  -13.3112  -47.4962 H         1 UNK         0.3000 
    190 H190       -3.9826  -24.4069  -44.5233 H         1 UNK         0.3000 
    191 H191       -3.4678  -26.0295  -46.8836 H         1 UNK         0.0600 
    192 H192       -3.8316  -26.7748  -43.9308 H         1 UNK         0.0600 
    193 H193       -3.8478  -27.9047  -45.2802 H         1 UNK         0.0600 
    194 H194       -5.1125  -26.6950  -45.1405 H         1 UNK         0.0600 
    195 H195       -1.3684  -24.5252  -44.6377 H         1 UNK         0.3000 
    196 H196        0.6301  -26.5824  -44.3847 H         1 UNK         0.0600 
    197 H197        0.7267  -23.5820  -43.8196 H         1 UNK         0.0600 
    198 H198        1.9581  -24.7360  -43.3298 H         1 UNK         0.0600 
    199 H199        0.3400  -24.8556  -42.6613 H         1 UNK         0.0600 
    200 H200       -0.0882  -24.5105  -47.0097 H         1 UNK         0.3000 
    201 H201        2.4058  -25.2947  -48.3766 H         1 UNK         0.0600 
    202 H202        2.3613  -23.0216  -49.5520 H         1 UNK         0.0600 
    203 H203        2.8536  -22.9366  -47.8726 H         1 UNK         0.0600 
    204 H204        1.2225  -22.4562  -48.3352 H         1 UNK         0.0600 
    205 H205        2.0583  -25.5102  -50.6471 H         1 UNK         0.3000 
    206 H206       -0.3526  -26.7499  -51.4097 H         1 UNK         0.0600 
    207 H207        1.8262  -27.2738  -52.4415 H         1 UNK         0.0600 
    208 H208        0.7048  -26.7392  -53.6832 H         1 UNK         0.0600 
    209 H209        1.9528  -25.6438  -53.1022 H         1 UNK         0.0600 
    210 H210       -2.2055  -25.6403  -51.3577 H         1 UNK         0.3000 
    211 H211       -3.8347  -24.1692  -51.6366 H         1 UNK         0.0600 
    212 H212       -2.4700  -23.3441  -54.2542 H         1 UNK         0.0600 
    213 H213       -4.1800  -23.2107  -53.8487 H         1 UNK         0.0600 
    214 H214       -3.4596  -24.7901  -54.0688 H         1 UNK         0.0600 
    215 H215       -1.8655  -23.3653  -49.9034 H         1 UNK         0.3000 
    216 H216       -1.0352  -21.7102  -48.7083 H         1 UNK         0.0600 
    217 H217       -2.2752  -19.5548  -48.5961 H         1 UNK         0.0600 
    218 H218       -3.3871  -20.9090  -48.6665 H         1 UNK         0.0600 
    219 H219       -3.0979  -19.9305  -50.0998 H         1 UNK         0.0600 
    220 H220       -0.0641  -22.1240  -51.6061 H         1 UNK         0.3000 
    221 H221        1.4788  -21.4719  -53.0017 H         1 UNK         0.0600 
    222 H222        2.4315  -19.4056  -50.9518 H         1 UNK         0.0600 
    223 H223        2.9243  -21.0977  -50.9772 H         1 UNK         0.0600 
    224 H224        3.3469  -20.0387  -52.3101 H         1 UNK         0.0600 
    225 H225       -1.2324  -20.0831  -52.8803 H         1 UNK         0.3000 
    226 H226       -0.7115  -18.0482  -54.9268 H         1 UNK         0.0600 
    227 H227       -1.9332  -17.2842  -52.2283 H         1 UNK         0.0600 
    228 H228       -0.3748  -16.7382  -52.8373 H         1 UNK         0.0600 
    229 H229       -1.8516  -16.2310  -53.6354 H         1 UNK         0.0600 
    230 H230       -1.9663  -20.5776  -55.0078 H         1 UNK         0.3000 
    231 H231       -3.7386  -21.6473  -55.8321 H         1 UNK         0.0600 
    232 H232       -3.2570  -20.0691  -57.7105 H         1 UNK         0.0600 
    233 H233       -4.4401  -18.9325  -57.0649 H         1 UNK         0.0600 
    234 H234       -4.9553  -20.5079  -57.6537 H         1 UNK         0.0600 
    235 H235       -4.1129  -20.8048  -53.1942 H         1 UNK         0.3000 
    236 H236       -5.5059  -20.6871  -51.5243 H         1 UNK         0.0600 
    237 H237       -7.7355  -21.7081  -51.6714 H         1 UNK         0.0600 
    238 H238       -7.7373  -21.5729  -53.4236 H         1 UNK         0.0600 
    239 H239       -6.6010  -22.6550  -52.6181 H         1 UNK         0.0600 
    240 H240       -5.3030  -18.3137  -53.5345 H         1 UNK         0.3000 
    241 H241       -5.9155  -16.2229  -53.6864 H         1 UNK         0.0600 
    242 H242       -7.9396  -18.2415  -54.7011 H         1 UNK         0.3800 
    243 H243       -9.3755  -17.2675  -54.9043 H         1 UNK         0.3800 
    244 H244       -6.9031  -15.0720  -51.5854 H         1 UNK         0.0800 
    245 H245       -6.8685  -16.6249  -50.8062 H         1 UNK         0.0800 
    246 H246       -4.3111  -18.0887  -50.9916 H         1 UNK         0.0800 
    247 H247       -3.0541  -17.1948  -50.1982 H         1 UNK         0.0800 
@<TRIPOS>BOND
     1    1    2 1    
     2    1  127 1    
     3    1  128 1    
     4    1  129 1    
     5    2    3 2    
     6    2    4 am   BACKBONE|DICT|INTERRES
     7    4    5 1    
     8    4  130 1    
     9    5    6 1    
    10    5   65 1    
    11    5  131 1    
    12    6    7 1    
    13    6  132 1    
    14    6  133 1    
    15    7    8 1    
    16    8    9 1    
    17    8  134 1    
    18    8  135 1    
    19    9   10 ar   
    20    9   14 ar   
    21   10   11 ar   
    22   10  136 1    
    23   11   12 ar   
    24   11  126 1    
    25   12   13 ar   
    26   12  137 1    
    27   13   14 ar   
    28   13   15 1    
    29   14  138 1    
    30   15   16 1    
    31   15  139 1    
    32   15  140 1    
    33   16   17 1    
    34   17   18 1    
    35   17  141 1    
    36   17  142 1    
    37   18   19 1    
    38   18   67 1    
    39   18  143 1    
    40   19   20 am   BACKBONE|DICT|INTERRES
    41   19  144 1    
    42   20   21 2    
    43   20   22 1    
    44   22   23 1    
    45   22   24 1    
    46   22  145 1    
    47   23  146 1    
    48   23  147 1    
    49   23  148 1    
    50   24   25 am   BACKBONE|DICT|INTERRES
    51   24  149 1    
    52   25   26 2    
    53   25   27 1    
    54   27   28 1    
    55   27   29 1    
    56   27  150 1    
    57   28  151 1    
    58   28  152 1    
    59   28  153 1    
    60   29   30 am   BACKBONE|DICT|INTERRES
    61   29  154 1    
    62   30   31 2    
    63   30   32 1    
    64   32   33 1    
    65   32   34 1    
    66   32  155 1    
    67   33  156 1    
    68   33  157 1    
    69   33  158 1    
    70   34   35 am   BACKBONE|DICT|INTERRES
    71   34  159 1    
    72   35   36 2    
    73   35   37 1    
    74   37   38 1    
    75   37   39 1    
    76   37  160 1    
    77   38  161 1    
    78   38  162 1    
    79   38  163 1    
    80   39   40 am   BACKBONE|DICT|INTERRES
    81   39  164 1    
    82   40   41 2    
    83   40   42 1    
    84   42   43 1    
    85   42   44 1    
    86   42  165 1    
    87   43  166 1    
    88   43  167 1    
    89   43  168 1    
    90   44   45 am   BACKBONE|DICT|INTERRES
    91   44  169 1    
    92   45   46 2    
    93   45   47 1    
    94   47   48 1    
    95   47   49 1    
    96   47  170 1    
    97   48  171 1    
    98   48  172 1    
    99   48  173 1    
   100   49   50 am   BACKBONE|DICT|INTERRES
   101   49  174 1    
   102   50   51 2    
   103   50   52 1    
   104   52   53 1    
   105   52   54 1    
   106   52  175 1    
   107   53  176 1    
   108   53  177 1    
   109   53  178 1    
   110   54   55 am   BACKBONE|DICT|INTERRES
   111   54  179 1    
   112   55   56 2    
   113   55   57 1    
   114   57   58 1    
   115   57   59 1    
   116   57  180 1    
   117   58  181 1    
   118   58  182 1    
   119   58  183 1    
   120   59   60 am   BACKBONE|DICT|INTERRES
   121   59  184 1    
   122   60   61 2    
   123   60   62 1    
   124   62   63 1    
   125   62   64 1    
   126   62  185 1    
   127   63  186 1    
   128   63  187 1    
   129   63  188 1    
   130   64   65 am   BACKBONE|DICT|INTERRES
   131   64  189 1    
   132   65   66 2    
   133   67   68 2    
   134   67   69 am   BACKBONE|DICT|INTERRES
   135   69   70 1    
   136   69  190 1    
   137   70   71 1    
   138   70   72 1    
   139   70  191 1    
   140   71  192 1    
   141   71  193 1    
   142   71  194 1    
   143   72   73 2    
   144   72   74 am   BACKBONE|DICT|INTERRES
   145   74   75 1    
   146   74  195 1    
   147   75   76 1    
   148   75   77 1    
   149   75  196 1    
   150   76  197 1    
   151   76  198 1    
   152   76  199 1    
   153   77   78 2    
   154   77   79 am   BACKBONE|DICT|INTERRES
   155   79   80 1    
   156   79  200 1    
   157   80   81 1    
   158   80   82 1    
   159   80  201 1    
   160   81  202 1    
   161   81  203 1    
   162   81  204 1    
   163   82   83 2    
   164   82   84 am   BACKBONE|DICT|INTERRES
   165   84   85 1    
   166   84  205 1    
   167   85   86 1    
   168   85   87 1    
   169   85  206 1    
   170   86  207 1    
   171   86  208 1    
   172   86  209 1    
   173   87   88 2    
   174   87   89 am   BACKBONE|DICT|INTERRES
   175   89   90 1    
   176   89  210 1    
   177   90   91 1    
   178   90   92 1    
   179   90  211 1    
   180   91  212 1    
   181   91  213 1    
   182   91  214 1    
   183   92   93 2    
   184   92   94 am   BACKBONE|DICT|INTERRES
   185   94   95 1    
   186   94  215 1    
   187   95   96 1    
   188   95   97 1    
   189   95  216 1    
   190   96  217 1    
   191   96  218 1    
   192   96  219 1    
   193   97   98 2    
   194   97   99 am   BACKBONE|DICT|INTERRES
   195   99  100 1    
   196   99  220 1    
   197  100  101 1    
   198  100  102 1    
   199  100  221 1    
   200  101  222 1    
   201  101  223 1    
   202  101  224 1    
   203  102  103 2    
   204  102  104 am   BACKBONE|DICT|INTERRES
   205  104  105 1    
   206  104  225 1    
   207  105  106 1    
   208  105  107 1    
   209  105  226 1    
   210  106  227 1    
   211  106  228 1    
   212  106  229 1    
   213  107  108 2    
   214  107  109 am   BACKBONE|DICT|INTERRES
   215  109  110 1    
   216  109  230 1    
   217  110  111 1    
   218  110  112 1    
   219  110  231 1    
   220  111  232 1    
   221  111  233 1    
   222  111  234 1    
   223  112  113 2    
   224  112  114 am   BACKBONE|DICT|INTERRES
   225  114  115 1    
   226  114  235 1    
   227  115  116 1    
   228  115  117 1    
   229  115  236 1    
   230  116  237 1    
   231  116  238 1    
   232  116  239 1    
   233  117  118 2    
   234  117  119 am   BACKBONE|DICT|INTERRES
   235  119  120 1    
   236  119  240 1    
   237  120  121 1    
   238  120  124 1    
   239  120  241 1    
   240  121  122 am   BACKBONE|DICT|INTERRES
   241  121  123 2    
   242  122  242 1    
   243  122  243 1    
   244  124  125 1    
   245  124  244 1    
   246  124  245 1    
   247  125  126 1    
   248  126  246 1    
   249  126  247 1    
@<TRIPOS>SUBSTRUCTURE
     1 UNK         1 GROUP             0       ****    0 ROOT    
