@<TRIPOS>MOLECULE
3R540
247   249    1
SMALL
USER_CHARGES


@<TRIPOS>ATOM
      1 CA          6.3862  -16.3305  -46.5792 C.3       0 UNK        -0.1800 
      2 C           5.0843  -15.7993  -47.1603 C.2       0 UNK         0.5000 
      3 O           4.0312  -15.9544  -46.5431 O.2       0 UNK        -0.5000 
      4 N           5.1499  -15.1600  -48.3354 N.am      1 UNK        -0.5000 
      5 CA          4.0089  -14.6154  -49.0850 C.3       1 UNK         0.1400 
      6 C6          4.3133  -14.4958  -50.6018 C.3       23 UNK        -0.0398 
      7 S7          4.7219  -16.0884  -51.3955 S.3       23 UNK        -0.2404 
      8 C8          3.1774  -16.4691  -52.2851 C.3       23 UNK        -0.0205 
      9 C9          2.1663  -17.1606  -51.3839 C.ar      23 UNK        -0.0193 
     10 C10         1.2932  -16.4163  -50.5861 C.ar      23 UNK        -0.1150 
     11 C11         0.3801  -17.0557  -49.7416 C.ar      23 UNK        -0.0193 
     12 C12         0.3273  -18.4530  -49.7175 C.ar      23 UNK        -0.1150 
     13 C13         1.1897  -19.2073  -50.5197 C.ar      23 UNK        -0.0193 
     14 C14         2.1060  -18.5555  -51.3483 C.ar      23 UNK        -0.1150 
     15 C15         1.1346  -20.7264  -50.5066 C.3       23 UNK        -0.0205 
     16 S16         2.4985  -21.4565  -49.5409 S.3       23 UNK        -0.2404 
     17 C17         1.9996  -21.0927  -47.8221 C.3       23 UNK        -0.0398 
     18 CA          1.2841  -22.2832  -47.1387 C.3       11 UNK         0.1400 
     19 N           1.2535  -22.1479  -45.6811 N.am      11 UNK        -0.5000 
     20 C           0.8141  -23.0934  -44.8372 C.2       10 UNK         0.5000 
     21 O           0.4374  -24.2098  -45.1922 O.2       10 UNK        -0.5000 
     22 CA          0.7310  -22.7137  -43.3500 C.3       10 UNK         0.1400 
     23 CB          2.1117  -22.8157  -42.6855 C.3       10 UNK        -0.1800 
     24 N           0.1689  -21.3785  -43.1410 N.am      10 UNK        -0.5000 
     25 C          -1.0749  -21.0163  -43.4889 C.2       9 UNK         0.5000 
     26 O          -1.8933  -21.7823  -43.9958 O.2       9 UNK        -0.5000 
     27 CA         -1.4599  -19.5423  -43.2783 C.3       9 UNK         0.1400 
     28 CB         -1.7828  -19.2651  -41.8027 C.3       9 UNK        -0.1800 
     29 N          -0.4232  -18.6193  -43.7347 N.am      9 UNK        -0.5000 
     30 C          -0.0000  -18.5047  -45.0021 C.2       8 UNK         0.5000 
     31 O          -0.4585  -19.1484  -45.9469 O.2       8 UNK        -0.5000 
     32 CA          1.1755  -17.5427  -45.2373 C.3       8 UNK         0.1400 
     33 CB          0.7037  -16.0801  -45.2103 C.3       8 UNK        -0.1800 
     34 N           2.2382  -17.7328  -44.2503 N.am      8 UNK        -0.5000 
     35 C           2.9718  -18.8471  -44.1220 C.2       7 UNK         0.5000 
     36 O           2.8462  -19.8410  -44.8372 O.2       7 UNK        -0.5000 
     37 CA          3.9855  -18.8675  -42.9642 C.3       7 UNK         0.1400 
     38 CB          5.2594  -18.0989  -43.3472 C.3       7 UNK        -0.1800 
     39 N           3.4341  -18.3123  -41.7262 N.am      7 UNK        -0.5000 
     40 C           2.4293  -18.8610  -41.0267 C.2       6 UNK         0.5000 
     41 O           1.8732  -19.9126  -41.3369 O.2       6 UNK        -0.5000 
     42 CA          1.9239  -18.0709  -39.8049 C.3       6 UNK         0.1400 
     43 CB          2.7894  -18.3649  -38.5707 C.3       6 UNK        -0.1800 
     44 N           1.8863  -16.6263  -40.0456 N.am      6 UNK        -0.5000 
     45 C           1.1211  -16.0424  -40.9757 C.2       5 UNK         0.5000 
     46 O           0.3312  -16.6574  -41.6992 O.2       5 UNK        -0.5000 
     47 CA          1.3178  -14.5355  -41.1777 C.3       5 UNK         0.1400 
     48 CB          2.6475  -14.2860  -41.9201 C.3       5 UNK        -0.1800 
     49 N           0.1772  -14.0429  -41.9450 N.am      5 UNK        -0.5000 
     50 C          -0.0940  -12.7759  -42.2646 C.2       4 UNK         0.5000 
     51 O           0.6167  -11.8155  -41.9594 O.2       4 UNK        -0.5000 
     52 CA         -1.3752  -12.5333  -43.0713 C.3       4 UNK         0.1400 
     53 CB         -2.4588  -11.8519  -42.2167 C.3       4 UNK        -0.1800 
     54 N          -1.0155  -11.6997  -44.2086 N.am      4 UNK        -0.5000 
     55 C          -1.6969  -11.5877  -45.3542 C.2       3 UNK         0.5000 
     56 O          -2.8026  -12.0928  -45.5504 O.2       3 UNK        -0.5000 
     57 CA         -1.0003  -10.8035  -46.4854 C.3       3 UNK         0.1400 
     58 CB         -1.3451   -9.3087  -46.4016 C.3       3 UNK        -0.1800 
     59 N           0.4579  -10.9677  -46.4663 N.am      3 UNK        -0.5000 
     60 C           1.0831  -12.1245  -46.7242 C.2       2 UNK         0.5000 
     61 O           0.4998  -13.1489  -47.0854 O.2       2 UNK        -0.5000 
     62 CA          2.6024  -12.1495  -46.4775 C.3       2 UNK         0.1400 
     63 CB          2.8895  -12.3112  -44.9782 C.3       2 UNK        -0.1800 
     64 N           3.2301  -13.2605  -47.1879 N.am      2 UNK        -0.5000 
     65 C           3.5052  -13.2753  -48.4953 C.2       1 UNK         0.5000 
     66 O           3.3824  -12.2833  -49.2173 O.2       1 UNK        -0.5000 
     67 C          -0.1297  -22.5016  -47.7115 C.2       11 UNK         0.5000 
     68 O          -0.3343  -23.4493  -48.4699 O.2       11 UNK        -0.5000 
     69 N          -1.0833  -21.6451  -47.3161 N.am      12 UNK        -0.5000 
     70 CA         -2.4840  -21.7262  -47.7295 C.3       12 UNK         0.1400 
     71 CB         -3.2553  -20.5125  -47.1921 C.3       12 UNK        -0.1800 
     72 C          -3.1580  -23.0437  -47.3067 C.2       12 UNK         0.5000 
     73 O          -3.8705  -23.6381  -48.1149 O.2       12 UNK        -0.5000 
     74 N          -2.8867  -23.4984  -46.0755 N.am      13 UNK        -0.5000 
     75 CA         -3.3510  -24.7775  -45.5402 C.3       13 UNK         0.1400 
     76 CB         -3.0304  -24.8613  -44.0403 C.3       13 UNK        -0.1800 
     77 C          -2.7660  -25.9848  -46.2942 C.2       13 UNK         0.5000 
     78 O          -3.5196  -26.8880  -46.6574 O.2       13 UNK        -0.5000 
     79 N          -1.4492  -25.9664  -46.5489 N.am      14 UNK        -0.5000 
     80 CA         -0.7299  -27.0044  -47.2933 C.3       14 UNK         0.1400 
     81 CB          0.7822  -26.7488  -47.2044 C.3       14 UNK        -0.1800 
     82 C          -1.1756  -27.1102  -48.7634 C.2       14 UNK         0.5000 
     83 O          -1.2975  -28.2187  -49.2858 O.2       14 UNK        -0.5000 
     84 N          -1.4407  -25.9576  -49.3911 N.am      15 UNK        -0.5000 
     85 CA         -1.9680  -25.8463  -50.7511 C.3       15 UNK         0.1400 
     86 CB         -1.6943  -24.4231  -51.2640 C.3       15 UNK        -0.1800 
     87 C          -3.4736  -26.1634  -50.8563 C.2       15 UNK         0.5000 
     88 O          -3.9787  -26.2879  -51.9727 O.2       15 UNK        -0.5000 
     89 N          -4.1737  -26.2332  -49.7125 N.am      16 UNK        -0.5000 
     90 CA         -5.6307  -26.3458  -49.5638 C.3       16 UNK         0.1400 
     91 CB         -6.1185  -27.7378  -50.0143 C.3       16 UNK        -0.1800 
     92 C          -6.3730  -25.1837  -50.2611 C.2       16 UNK         0.5000 
     93 O          -7.3913  -25.3968  -50.9200 O.2       16 UNK        -0.5000 
     94 N          -5.7906  -23.9814  -50.1414 N.am      17 UNK        -0.5000 
     95 CA         -6.1293  -22.7147  -50.7993 C.3       17 UNK         0.1400 
     96 CB         -7.5508  -22.2536  -50.4211 C.3       17 UNK        -0.1800 
     97 C          -5.9114  -22.6918  -52.3288 C.2       17 UNK         0.5000 
     98 O          -6.1559  -21.6513  -52.9393 O.2       17 UNK        -0.5000 
     99 N          -5.4459  -23.7994  -52.9283 N.am      18 UNK        -0.5000 
    100 CA        -5.2327  -24.0093  -54.3641 C.3       18 UNK         0.1400 
    101 CB        -3.9660  -23.2565  -54.8272 C.3       18 UNK        -0.1800 
    102 C         -6.4998  -23.6845  -55.1894 C.2       18 UNK         0.5000 
    103 O         -7.5763  -24.1900  -54.8668 O.2       18 UNK        -0.5000 
    104 N         -6.3661  -22.8270  -56.2081 N.am      19 UNK        -0.5000 
    105 CA        -7.4591  -22.2882  -57.0177 C.3       19 UNK         0.1400 
    106 CB        -7.0139  -22.2650  -58.4917 C.3       19 UNK        -0.1800 
    107 C         -7.8705  -20.8956  -56.4950 C.2       19 UNK         0.5000 
    108 O         -7.9394  -19.9412  -57.2714 O.2       19 UNK        -0.5000 
    109 N         -8.1041  -20.8060  -55.1767 N.am      20 UNK        -0.5000 
    110 CA        -8.3853  -19.5935  -54.3977 C.3       20 UNK         0.1400 
    111 CB        -9.7354  -18.9671  -54.8063 C.3       20 UNK        -0.1800 
    112 C         -7.2066  -18.5975  -54.4361 C.2       20 UNK         0.5000 
    113 O         -7.3908  -17.4134  -54.7257 O.2       20 UNK        -0.5000 
    114 N         -6.0049  -19.1184  -54.1646 N.am      21 UNK        -0.5000 
    115 CA        -4.7586  -18.3629  -54.0896 C.3       21 UNK         0.1400 
    116 CB        -3.5809  -19.3324  -54.2749 C.3       21 UNK        -0.1800 
    117 C         -4.6316  -17.6186  -52.7491 C.2       21 UNK         0.5000 
    118 O         -5.1334  -18.0942  -51.7269 O.2       21 UNK        -0.5000 
    119 N         -3.9134  -16.4899  -52.7798 N.am      22 UNK        -0.5000 
    120 CA        -3.6464  -15.6038  -51.6359 C.3       22 UNK         0.1400 
    121 C         -4.9236  -14.9049  -51.0673 C.2       22 UNK         0.5000 
    122 N         -4.8674  -14.3463  -49.8659 N.am      22 UNK        -0.7600 
    123 O         -5.9573  -14.8138  -51.7265 O.2       22 UNK        -0.5000 
    124 C124       -2.7577  -16.2953  -50.5578 C.3       23 UNK        -0.0398 
    125 S125       -1.6325  -15.1183  -49.7344 S.3       23 UNK        -0.2404 
    126 C126       -0.5193  -16.2368  -48.8267 C.3       23 UNK        -0.0205 
    127 H127        6.5456  -15.9227  -45.5810 H         1 UNK         0.0600 
    128 H128        7.2444  -16.0652  -47.1970 H         1 UNK         0.0600 
    129 H129        6.3441  -17.4169  -46.5025 H         1 UNK         0.0600 
    130 H130        6.0486  -15.0503  -48.7829 H         1 UNK         0.3000 
    131 H131        3.1817  -15.3170  -48.9713 H         1 UNK         0.0600 
    132 H132        3.4684  -14.0507  -51.1296 H         1 UNK         0.0800 
    133 H133        5.1524  -13.8172  -50.7638 H         1 UNK         0.0800 
    134 H134        3.4178  -17.1160  -53.1302 H         1 UNK         0.0800 
    135 H135        2.7481  -15.5646  -52.7182 H         1 UNK         0.0800 
    136 H136        1.3314  -15.3365  -50.6087 H         1 UNK         0.1150 
    137 H137       -0.3760  -18.9535  -49.0661 H         1 UNK         0.1150 
    138 H138        2.7789  -19.1382  -51.9618 H         1 UNK         0.1150 
    139 H139        0.1720  -21.0740  -50.1320 H         1 UNK         0.0800 
    140 H140        1.2024  -21.0936  -51.5317 H         1 UNK         0.0800 
    141 H141        1.4019  -20.1822  -47.7734 H         1 UNK         0.0800 
    142 H142        2.9195  -20.8660  -47.2824 H         1 UNK         0.0800 
    143 H143        1.8617  -23.1861  -47.3492 H         1 UNK         0.0600 
    144 H144        1.5853  -21.2661  -45.3008 H         1 UNK         0.3000 
    145 H145        0.0681  -23.4315  -42.8626 H         1 UNK         0.0600 
    146 H146        2.0428  -22.6555  -41.6095 H         1 UNK         0.0600 
    147 H147        2.5479  -23.8036  -42.8388 H         1 UNK         0.0600 
    148 H148        2.8089  -22.0813  -43.0897 H         1 UNK         0.0600 
    149 H149        0.7720  -20.7020  -42.6807 H         1 UNK         0.3000 
    150 H150       -2.3592  -19.3468  -43.8659 H         1 UNK         0.0600 
    151 H151       -2.5693  -19.9297  -41.4430 H         1 UNK         0.0600 
    152 H152       -2.1309  -18.2416  -41.6617 H         1 UNK         0.0600 
    153 H153       -0.9107  -19.4109  -41.1648 H         1 UNK         0.0600 
    154 H154       -0.0033  -18.0269  -43.0241 H         1 UNK         0.3000 
    155 H155        1.5869  -17.7517  -46.2275 H         1 UNK         0.0600 
    156 H156        0.3889  -15.7717  -44.2150 H         1 UNK         0.0600 
    157 H157        1.4957  -15.4056  -45.5344 H         1 UNK         0.0600 
    158 H158       -0.1458  -15.9260  -45.8752 H         1 UNK         0.0600 
    159 H159        2.3953  -16.9769  -43.6034 H         1 UNK         0.3000 
    160 H160        4.2573  -19.9083  -42.7763 H         1 UNK         0.0600 
    161 H161        5.0550  -17.0443  -43.5371 H         1 UNK         0.0600 
    162 H162        5.7052  -18.5138  -44.2521 H         1 UNK         0.0600 
    163 H163        6.0100  -18.1600  -42.5591 H         1 UNK         0.0600 
    164 H164        3.8333  -17.4465  -41.3963 H         1 UNK         0.3000 
    165 H165        0.9052  -18.4032  -39.5941 H         1 UNK         0.0600 
    166 H166        2.3903  -17.8733  -37.6833 H         1 UNK         0.0600 
    167 H167        2.8193  -19.4352  -38.3619 H         1 UNK         0.0600 
    168 H168        3.8177  -18.0283  -38.7079 H         1 UNK         0.0600 
    169 H169        2.5103  -16.0583  -39.4906 H         1 UNK         0.3000 
    170 H170        1.3304  -14.0426  -40.2039 H         1 UNK         0.0600 
    171 H171        3.4950  -14.6643  -41.3478 H         1 UNK         0.0600 
    172 H172        2.6639  -14.7827  -42.8904 H         1 UNK         0.0600 
    173 H173        2.8309  -13.2243  -42.0806 H         1 UNK         0.0600 
    174 H174       -0.4567  -14.7843  -42.2198 H         1 UNK         0.3000 
    175 H175       -1.7541  -13.4897  -43.4385 H         1 UNK         0.0600 
    176 H176       -2.1306  -10.8763  -41.8557 H         1 UNK         0.0600 
    177 H177       -3.3788  -11.7065  -42.7830 H         1 UNK         0.0600 
    178 H178       -2.7066  -12.4596  -41.3457 H         1 UNK         0.0600 
    179 H179       -0.1122  -11.2524  -44.1282 H         1 UNK         0.3000 
    180 H180       -1.3749  -11.1886  -47.4364 H         1 UNK         0.0600 
    181 H181       -0.9790   -8.8610  -45.4768 H         1 UNK         0.0600 
    182 H182       -2.4246   -9.1557  -46.4353 H         1 UNK         0.0600 
    183 H183       -0.9136   -8.7567  -47.2369 H         1 UNK         0.0600 
    184 H184        1.0001  -10.1651  -46.1802 H         1 UNK         0.3000 
    185 H185        3.0365  -11.2091  -46.8238 H         1 UNK         0.0600 
    186 H186        2.5069  -11.4648  -44.4067 H         1 UNK         0.0600 
    187 H187        2.4173  -13.2109  -44.5855 H         1 UNK         0.0600 
    188 H188        3.9597  -12.3788  -44.7818 H         1 UNK         0.0600 
    189 H189        3.3366  -14.1337  -46.6807 H         1 UNK         0.3000 
    190 H190       -0.8374  -20.8772  -46.6962 H         1 UNK         0.3000 
    191 H191       -2.5060  -21.6829  -48.8204 H         1 UNK         0.0600 
    192 H192       -3.2365  -20.4742  -46.1025 H         1 UNK         0.0600 
    193 H193       -4.3001  -20.5437  -47.5038 H         1 UNK         0.0600 
    194 H194       -2.8315  -19.5801  -47.5659 H         1 UNK         0.0600 
    195 H195       -2.3308  -22.9200  -45.4503 H         1 UNK         0.3000 
    196 H196       -4.4365  -24.8100  -45.6548 H         1 UNK         0.0600 
    197 H197       -3.3758  -25.8058  -43.6182 H         1 UNK         0.0600 
    198 H198       -3.5210  -24.0596  -43.4882 H         1 UNK         0.0600 
    199 H199       -1.9589  -24.7884  -43.8520 H         1 UNK         0.0600 
    200 H200       -0.8877  -25.1980  -46.1908 H         1 UNK         0.3000 
    201 H201       -0.9404  -27.9631  -46.8148 H         1 UNK         0.0600 
    202 H202        1.1243  -26.7683  -46.1696 H         1 UNK         0.0600 
    203 H203        1.0516  -25.7801  -47.6271 H         1 UNK         0.0600 
    204 H204        1.3417  -27.5122  -47.7463 H         1 UNK         0.0600 
    205 H205       -1.2436  -25.0833  -48.9098 H         1 UNK         0.3000 
    206 H206       -1.4359  -26.5516  -51.3925 H         1 UNK         0.0600 
    207 H207       -0.6302  -24.1882  -51.2304 H         1 UNK         0.0600 
    208 H208       -2.0176  -24.3107  -52.2984 H         1 UNK         0.0600 
    209 H209       -2.2210  -23.6745  -50.6706 H         1 UNK         0.0600 
    210 H210       -3.6648  -26.1001  -48.8481 H         1 UNK         0.3000 
    211 H211       -5.8392  -26.2482  -48.4974 H         1 UNK         0.0600 
    212 H212       -5.9859  -27.8878  -51.0861 H         1 UNK         0.0600 
    213 H213       -7.1783  -27.8701  -49.7940 H         1 UNK         0.0600 
    214 H214       -5.5782  -28.5296  -49.4954 H         1 UNK         0.0600 
    215 H215       -4.9802  -23.9306  -49.5250 H         1 UNK         0.3000 
    216 H216       -5.4309  -21.9819  -50.3926 H         1 UNK         0.0600 
    217 H217       -7.7401  -21.2403  -50.7778 H         1 UNK         0.0600 
    218 H218       -7.6889  -22.2465  -49.3400 H         1 UNK         0.0600 
    219 H219       -8.3161  -22.8975  -50.8550 H         1 UNK         0.0600 
    220 H220       -5.2756  -24.6153  -52.3530 H         1 UNK         0.3000 
    221 H221       -5.0505  -25.0769  -54.4937 H         1 UNK         0.0600 
    222 H222       -4.0770  -22.1772  -54.7332 H         1 UNK         0.0600 
    223 H223       -3.1005  -23.5495  -54.2347 H         1 UNK         0.0600 
    224 H224       -3.7263  -23.4826  -55.8669 H         1 UNK         0.0600 
    225 H225       -5.4537  -22.4291  -56.3780 H         1 UNK         0.3000 
    226 H226       -8.3382  -22.9319  -56.9468 H         1 UNK         0.0600 
    227 H227       -6.7440  -23.2634  -58.8362 H         1 UNK         0.0600 
    228 H228       -7.8161  -21.9067  -59.1380 H         1 UNK         0.0600 
    229 H229       -6.1519  -21.6141  -58.6430 H         1 UNK         0.0600 
    230 H230       -7.9602  -21.6417  -54.6251 H         1 UNK         0.3000 
    231 H231       -8.4768  -19.9140  -53.3586 H         1 UNK         0.0600 
    232 H232      -10.5425  -19.6971  -54.7460 H         1 UNK         0.0600 
    233 H233       -9.7136  -18.5739  -55.8228 H         1 UNK         0.0600 
    234 H234       -9.9955  -18.1407  -54.1439 H         1 UNK         0.0600 
    235 H235       -5.9697  -20.0825  -53.8383 H         1 UNK         0.3000 
    236 H236       -4.7404  -17.6345  -54.9032 H         1 UNK         0.0600 
    237 H237       -3.5655  -20.0973  -53.4972 H         1 UNK         0.0600 
    238 H238       -3.6327  -19.8327  -55.2419 H         1 UNK         0.0600 
    239 H239       -2.6272  -18.8046  -54.2345 H         1 UNK         0.0600 
    240 H240       -3.5531  -16.1692  -53.6670 H         1 UNK         0.3000 
    241 H241       -3.0671  -14.7915  -52.0763 H         1 UNK         0.0600 
    242 H242       -5.6804  -13.8757  -49.5002 H         1 UNK         0.3800 
    243 H243       -4.0159  -14.3726  -49.3244 H         1 UNK         0.3800 
    244 H244       -3.3629  -16.8177  -49.8148 H         1 UNK         0.0800 
    245 H245       -2.1361  -17.0598  -51.0259 H         1 UNK         0.0800 
    246 H246       -1.1075  -16.8809  -48.1708 H         1 UNK         0.0800 
    247 H247        0.1166  -15.6327  -48.1792 H         1 UNK         0.0800 
@<TRIPOS>BOND
     1    1    2 1    
     2    1  127 1    
     3    1  128 1    
     4    1  129 1    
     5    2    3 2    
     6    2    4 am   BACKBONE|DICT|INTERRES
     7    4    5 1    
     8    4  130 1    
     9    5    6 1    
    10    5   65 1    
    11    5  131 1    
    12    6    7 1    
    13    6  132 1    
    14    6  133 1    
    15    7    8 1    
    16    8    9 1    
    17    8  134 1    
    18    8  135 1    
    19    9   10 ar   
    20    9   14 ar   
    21   10   11 ar   
    22   10  136 1    
    23   11   12 ar   
    24   11  126 1    
    25   12   13 ar   
    26   12  137 1    
    27   13   14 ar   
    28   13   15 1    
    29   14  138 1    
    30   15   16 1    
    31   15  139 1    
    32   15  140 1    
    33   16   17 1    
    34   17   18 1    
    35   17  141 1    
    36   17  142 1    
    37   18   19 1    
    38   18   67 1    
    39   18  143 1    
    40   19   20 am   BACKBONE|DICT|INTERRES
    41   19  144 1    
    42   20   21 2    
    43   20   22 1    
    44   22   23 1    
    45   22   24 1    
    46   22  145 1    
    47   23  146 1    
    48   23  147 1    
    49   23  148 1    
    50   24   25 am   BACKBONE|DICT|INTERRES
    51   24  149 1    
    52   25   26 2    
    53   25   27 1    
    54   27   28 1    
    55   27   29 1    
    56   27  150 1    
    57   28  151 1    
    58   28  152 1    
    59   28  153 1    
    60   29   30 am   BACKBONE|DICT|INTERRES
    61   29  154 1    
    62   30   31 2    
    63   30   32 1    
    64   32   33 1    
    65   32   34 1    
    66   32  155 1    
    67   33  156 1    
    68   33  157 1    
    69   33  158 1    
    70   34   35 am   BACKBONE|DICT|INTERRES
    71   34  159 1    
    72   35   36 2    
    73   35   37 1    
    74   37   38 1    
    75   37   39 1    
    76   37  160 1    
    77   38  161 1    
    78   38  162 1    
    79   38  163 1    
    80   39   40 am   BACKBONE|DICT|INTERRES
    81   39  164 1    
    82   40   41 2    
    83   40   42 1    
    84   42   43 1    
    85   42   44 1    
    86   42  165 1    
    87   43  166 1    
    88   43  167 1    
    89   43  168 1    
    90   44   45 am   BACKBONE|DICT|INTERRES
    91   44  169 1    
    92   45   46 2    
    93   45   47 1    
    94   47   48 1    
    95   47   49 1    
    96   47  170 1    
    97   48  171 1    
    98   48  172 1    
    99   48  173 1    
   100   49   50 am   BACKBONE|DICT|INTERRES
   101   49  174 1    
   102   50   51 2    
   103   50   52 1    
   104   52   53 1    
   105   52   54 1    
   106   52  175 1    
   107   53  176 1    
   108   53  177 1    
   109   53  178 1    
   110   54   55 am   BACKBONE|DICT|INTERRES
   111   54  179 1    
   112   55   56 2    
   113   55   57 1    
   114   57   58 1    
   115   57   59 1    
   116   57  180 1    
   117   58  181 1    
   118   58  182 1    
   119   58  183 1    
   120   59   60 am   BACKBONE|DICT|INTERRES
   121   59  184 1    
   122   60   61 2    
   123   60   62 1    
   124   62   63 1    
   125   62   64 1    
   126   62  185 1    
   127   63  186 1    
   128   63  187 1    
   129   63  188 1    
   130   64   65 am   BACKBONE|DICT|INTERRES
   131   64  189 1    
   132   65   66 2    
   133   67   68 2    
   134   67   69 am   BACKBONE|DICT|INTERRES
   135   69   70 1    
   136   69  190 1    
   137   70   71 1    
   138   70   72 1    
   139   70  191 1    
   140   71  192 1    
   141   71  193 1    
   142   71  194 1    
   143   72   73 2    
   144   72   74 am   BACKBONE|DICT|INTERRES
   145   74   75 1    
   146   74  195 1    
   147   75   76 1    
   148   75   77 1    
   149   75  196 1    
   150   76  197 1    
   151   76  198 1    
   152   76  199 1    
   153   77   78 2    
   154   77   79 am   BACKBONE|DICT|INTERRES
   155   79   80 1    
   156   79  200 1    
   157   80   81 1    
   158   80   82 1    
   159   80  201 1    
   160   81  202 1    
   161   81  203 1    
   162   81  204 1    
   163   82   83 2    
   164   82   84 am   BACKBONE|DICT|INTERRES
   165   84   85 1    
   166   84  205 1    
   167   85   86 1    
   168   85   87 1    
   169   85  206 1    
   170   86  207 1    
   171   86  208 1    
   172   86  209 1    
   173   87   88 2    
   174   87   89 am   BACKBONE|DICT|INTERRES
   175   89   90 1    
   176   89  210 1    
   177   90   91 1    
   178   90   92 1    
   179   90  211 1    
   180   91  212 1    
   181   91  213 1    
   182   91  214 1    
   183   92   93 2    
   184   92   94 am   BACKBONE|DICT|INTERRES
   185   94   95 1    
   186   94  215 1    
   187   95   96 1    
   188   95   97 1    
   189   95  216 1    
   190   96  217 1    
   191   96  218 1    
   192   96  219 1    
   193   97   98 2    
   194   97   99 am   BACKBONE|DICT|INTERRES
   195   99  100 1    
   196   99  220 1    
   197  100  101 1    
   198  100  102 1    
   199  100  221 1    
   200  101  222 1    
   201  101  223 1    
   202  101  224 1    
   203  102  103 2    
   204  102  104 am   BACKBONE|DICT|INTERRES
   205  104  105 1    
   206  104  225 1    
   207  105  106 1    
   208  105  107 1    
   209  105  226 1    
   210  106  227 1    
   211  106  228 1    
   212  106  229 1    
   213  107  108 2    
   214  107  109 am   BACKBONE|DICT|INTERRES
   215  109  110 1    
   216  109  230 1    
   217  110  111 1    
   218  110  112 1    
   219  110  231 1    
   220  111  232 1    
   221  111  233 1    
   222  111  234 1    
   223  112  113 2    
   224  112  114 am   BACKBONE|DICT|INTERRES
   225  114  115 1    
   226  114  235 1    
   227  115  116 1    
   228  115  117 1    
   229  115  236 1    
   230  116  237 1    
   231  116  238 1    
   232  116  239 1    
   233  117  118 2    
   234  117  119 am   BACKBONE|DICT|INTERRES
   235  119  120 1    
   236  119  240 1    
   237  120  121 1    
   238  120  124 1    
   239  120  241 1    
   240  121  122 am   BACKBONE|DICT|INTERRES
   241  121  123 2    
   242  122  242 1    
   243  122  243 1    
   244  124  125 1    
   245  124  244 1    
   246  124  245 1    
   247  125  126 1    
   248  126  246 1    
   249  126  247 1    
@<TRIPOS>SUBSTRUCTURE
     1 UNK         1 GROUP             0       ****    0 ROOT    
