@<TRIPOS>MOLECULE
3R540
247   249    1
SMALL
USER_CHARGES


@<TRIPOS>ATOM
      1 CA          6.3249  -15.2012  -50.6026 C.3       0 UNK        -0.1800 
      2 C           5.7205  -15.3950  -49.2190 C.2       0 UNK         0.5000 
      3 O           6.4159  -15.8322  -48.3016 O.2       0 UNK        -0.5000 
      4 N           4.4287  -15.0811  -49.0694 N.am      1 UNK        -0.5000 
      5 CA          3.6891  -15.1630  -47.8071 C.3       1 UNK         0.1400 
      6 C6          2.1579  -15.1446  -48.0384 C.3       23 UNK        -0.0398 
      7 S7          1.5835  -16.7271  -48.7284 S.3       23 UNK        -0.2404 
      8 C8          1.1523  -16.2713  -50.4341 C.3       23 UNK        -0.0205 
      9 C9          0.9565  -17.5245  -51.2688 C.ar      23 UNK        -0.0193 
     10 C10        -0.3175  -17.9394  -51.6681 C.ar      23 UNK        -0.1150 
     11 C11        -0.4796  -19.1210  -52.4001 C.ar      23 UNK        -0.0193 
     12 C12         0.6428  -19.8995  -52.7067 C.ar      23 UNK        -0.1150 
     13 C13         1.9208  -19.4858  -52.3200 C.ar      23 UNK        -0.0193 
     14 C14         2.0702  -18.2883  -51.6197 C.ar      23 UNK        -0.1150 
     15 C15         3.1478  -20.3198  -52.6575 C.3       23 UNK        -0.0205 
     16 S16         3.3375  -21.7734  -51.5748 S.3       23 UNK        -0.2404 
     17 C17         3.4661  -21.0426  -49.9015 C.3       23 UNK        -0.0398 
     18 CA          2.5841  -21.7853  -48.8701 C.3       11 UNK         0.1400 
     19 N           2.9833  -21.4988  -47.4868 N.am      11 UNK        -0.5000 
     20 C           2.6371  -22.2721  -46.4483 C.2       10 UNK         0.5000 
     21 O           1.9354  -23.2780  -46.5530 O.2       10 UNK        -0.5000 
     22 CA          3.1464  -21.8556  -45.0572 C.3       10 UNK         0.1400 
     23 CB          4.6131  -22.2744  -44.8731 C.3       10 UNK        -0.1800 
     24 N           3.0043  -20.4323  -44.7362 N.am      10 UNK        -0.5000 
     25 C           1.8494  -19.7538  -44.7288 C.2       9 UNK         0.5000 
     26 O           0.7940  -20.1864  -45.1904 O.2       9 UNK        -0.5000 
     27 CA          1.8671  -18.3681  -44.0586 C.3       9 UNK         0.1400 
     28 CB          1.5228  -17.2512  -45.0517 C.3       9 UNK        -0.1800 
     29 N           0.9194  -18.3290  -42.9475 N.am      9 UNK        -0.5000 
     30 C           1.0990  -18.9660  -41.7819 C.2       8 UNK         0.5000 
     31 O           2.1178  -19.5968  -41.4965 O.2       8 UNK        -0.5000 
     32 CA         -0.0485  -18.8877  -40.7645 C.3       8 UNK         0.1400 
     33 CB         -0.0171  -17.5458  -40.0158 C.3       8 UNK        -0.1800 
     34 N          -1.3506  -19.0680  -41.4089 N.am      8 UNK        -0.5000 
     35 C          -1.9571  -20.2547  -41.5634 C.2       7 UNK         0.5000 
     36 O          -1.4793  -21.3164  -41.1625 O.2       7 UNK        -0.5000 
     37 CA         -3.3371  -20.2757  -42.2533 C.3       7 UNK         0.1400 
     38 CB         -4.4470  -20.5426  -41.2244 C.3       7 UNK        -0.1800 
     39 N          -3.6401  -19.0247  -42.9475 N.am      7 UNK        -0.5000 
     40 C          -3.3403  -18.7761  -44.2286 C.2       6 UNK         0.5000 
     41 O          -2.8646  -19.6119  -44.9914 O.2       6 UNK        -0.5000 
     42 CA         -3.6108  -17.3499  -44.7466 C.3       6 UNK         0.1400 
     43 CB         -4.9394  -17.3047  -45.5137 C.3       6 UNK        -0.1800 
     44 N          -3.6316  -16.3305  -43.6916 N.am      6 UNK        -0.5000 
     45 C          -2.5709  -15.9838  -42.9537 C.2       5 UNK         0.5000 
     46 O          -1.4554  -16.5025  -43.0714 O.2       5 UNK        -0.5000 
     47 CA         -2.8070  -14.9321  -41.8630 C.3       5 UNK         0.1400 
     48 CB         -3.3643  -15.6016  -40.5910 C.3       5 UNK        -0.1800 
     49 N          -1.5289  -14.2810  -41.6071 N.am      5 UNK        -0.5000 
     50 C          -1.2957  -13.2166  -40.8314 C.2       4 UNK         0.5000 
     51 O          -2.1508  -12.6523  -40.1483 O.2       4 UNK        -0.5000 
     52 CA          0.1419  -12.6655  -40.8717 C.3       4 UNK         0.1400 
     53 CB          1.0815  -13.5176  -40.0035 C.3       4 UNK        -0.1800 
     54 N           0.6619  -12.6124  -42.2402 N.am      4 UNK        -0.5000 
     55 C           0.2266  -11.7698  -43.1889 C.2       3 UNK         0.5000 
     56 O          -0.6090  -10.8889  -42.9796 O.2       3 UNK        -0.5000 
     57 CA          0.7871  -11.9652  -44.6145 C.3       3 UNK         0.1400 
     58 CB          0.9255  -10.6379  -45.3897 C.3       3 UNK        -0.1800 
     59 N           2.0303  -12.7448  -44.6734 N.am      3 UNK        -0.5000 
     60 C           3.2433  -12.3980  -44.2134 C.2       2 UNK         0.5000 
     61 O           3.4822  -11.3484  -43.6164 O.2       2 UNK        -0.5000 
     62 CA          4.3839  -13.4095  -44.4490 C.3       2 UNK         0.1400 
     63 CB          4.6524  -14.2124  -43.1657 C.3       2 UNK        -0.1800 
     64 N           4.1134  -14.3496  -45.5417 N.am      2 UNK        -0.5000 
     65 C           4.1025  -14.0325  -46.8442 C.2       1 UNK         0.5000 
     66 O           4.3539  -12.9071  -47.2816 O.2       1 UNK        -0.5000 
     67 C           1.0722  -21.5582  -49.0881 C.2       11 UNK         0.5000 
     68 O           0.4299  -22.3711  -49.7538 O.2       11 UNK        -0.5000 
     69 N           0.5133  -20.5113  -48.4620 N.am      12 UNK        -0.5000 
     70 CA         -0.9280  -20.2637  -48.4340 C.3       12 UNK         0.1400 
     71 CB         -1.2262  -18.8814  -47.8394 C.3       12 UNK        -0.1800 
     72 C          -1.6871  -21.3598  -47.6705 C.2       12 UNK         0.5000 
     73 O          -2.7132  -21.8266  -48.1614 O.2       12 UNK        -0.5000 
     74 N          -1.1559  -21.7753  -46.5128 N.am      13 UNK        -0.5000 
     75 CA         -1.7099  -22.8339  -45.6705 C.3       13 UNK         0.1400 
     76 CB         -0.9193  -22.9180  -44.3574 C.3       13 UNK        -0.1800 
     77 C          -1.7418  -24.1947  -46.3860 C.2       13 UNK         0.5000 
     78 O          -2.7642  -24.8797  -46.3343 O.2       13 UNK        -0.5000 
     79 N          -0.6450  -24.5306  -47.0821 N.am      14 UNK        -0.5000 
     80 CA         -0.5236  -25.7092  -47.9421 C.3       14 UNK         0.1400 
     81 CB          0.9213  -25.8304  -48.4488 C.3       14 UNK        -0.1800 
     82 C          -1.5152  -25.6869  -49.1199 C.2       14 UNK         0.5000 
     83 O          -2.1133  -26.7169  -49.4315 O.2       14 UNK        -0.5000 
     84 N          -1.7278  -24.5026  -49.7074 N.am      15 UNK        -0.5000 
     85 CA         -2.7246  -24.2268  -50.7426 C.3       15 UNK         0.1400 
     86 CB         -2.2369  -23.0438  -51.5943 C.3       15 UNK        -0.1800 
     87 C          -4.1352  -23.9853  -50.1583 C.2       15 UNK         0.5000 
     88 O          -4.8274  -23.0644  -50.5936 O.2       15 UNK        -0.5000 
     89 N          -4.5342  -24.8169  -49.1844 N.am      16 UNK        -0.5000 
     90 CA         -5.8509  -24.8871  -48.5412 C.3       16 UNK         0.1400 
     91 CB         -6.8718  -25.5171  -49.5103 C.3       16 UNK        -0.1800 
     92 C          -6.3355  -23.5526  -47.9313 C.2       16 UNK         0.5000 
     93 O          -7.5102  -23.2047  -48.0637 O.2       16 UNK        -0.5000 
     94 N          -5.4128  -22.8414  -47.2682 N.am      17 UNK        -0.5000 
     95 CA         -5.5834  -21.5218  -46.6503 C.3       17 UNK         0.1400 
     96 CB         -6.5688  -21.5759  -45.4646 C.3       17 UNK        -0.1800 
     97 C          -5.9253  -20.4377  -47.6925 C.2       17 UNK         0.5000 
     98 O          -6.9555  -19.7693  -47.5907 O.2       17 UNK        -0.5000 
     99 N          -5.0221  -20.2952  -48.6705 N.am      18 UNK        -0.5000 
    100 CA        -5.0335  -19.3386  -49.7784 C.3       18 UNK         0.1400 
    101 CB        -4.9017  -17.8874  -49.2676 C.3       18 UNK        -0.1800 
    102 C         -6.2273  -19.5302  -50.7333 C.2       18 UNK         0.5000 
    103 O         -6.9363  -18.5697  -51.0444 O.2       18 UNK        -0.5000 
    104 N         -6.4189  -20.7688  -51.2035 N.am      19 UNK        -0.5000 
    105 CA        -7.3352  -21.0923  -52.2962 C.3       19 UNK         0.1400 
    106 CB        -7.5590  -22.6121  -52.3307 C.3       19 UNK        -0.1800 
    107 C         -6.8022  -20.5851  -53.6522 C.2       19 UNK         0.5000 
    108 O         -5.6238  -20.2423  -53.7768 O.2       19 UNK        -0.5000 
    109 N         -7.6802  -20.5838  -54.6630 N.am      20 UNK        -0.5000 
    110 CA        -7.4214  -20.0946  -56.0231 C.3       20 UNK         0.1400 
    111 CB        -8.7575  -20.0384  -56.7816 C.3       20 UNK        -0.1800 
    112 C         -6.3740  -20.8951  -56.8297 C.2       20 UNK         0.5000 
    113 O         -6.0072  -20.4651  -57.9241 O.2       20 UNK        -0.5000 
    114 N         -5.9041  -22.0284  -56.2890 N.am      21 UNK        -0.5000 
    115 CA        -4.9148  -22.9357  -56.8770 C.3       21 UNK         0.1400 
    116 CB        -4.6670  -24.0936  -55.8971 C.3       21 UNK        -0.1800 
    117 C         -3.5782  -22.2728  -57.2708 C.2       21 UNK         0.5000 
    118 O         -2.9528  -22.7169  -58.2348 O.2       21 UNK        -0.5000 
    119 N         -3.1749  -21.2229  -56.5426 N.am      22 UNK        -0.5000 
    120 CA        -2.0056  -20.3868  -56.8637 C.3       22 UNK         0.1400 
    121 C         -2.2781  -19.2492  -57.8943 C.2       22 UNK         0.5000 
    122 N         -3.4906  -19.0755  -58.4077 N.am      22 UNK        -0.7600 
    123 O         -1.3606  -18.5184  -58.2585 O.2       22 UNK        -0.5000 
    124 C124       -1.2825  -19.8807  -55.5891 C.3       23 UNK        -0.0398 
    125 S125       -2.3192  -18.8734  -54.4695 S.3       23 UNK        -0.2404 
    126 C126       -1.8688  -19.5592  -52.8440 C.3       23 UNK        -0.0205 
    127 H127        5.5908  -14.8283  -51.3175 H         1 UNK         0.0600 
    128 H128        6.7137  -16.1478  -50.9781 H         1 UNK         0.0600 
    129 H129        7.1474  -14.4875  -50.5560 H         1 UNK         0.0600 
    130 H130        3.9212  -14.6945  -49.8510 H         1 UNK         0.3000 
    131 H131        3.9530  -16.1102  -47.3307 H         1 UNK         0.0600 
    132 H132        1.6181  -15.0017  -47.1010 H         1 UNK         0.0800 
    133 H133        1.8640  -14.3145  -48.6833 H         1 UNK         0.0800 
    134 H134        0.2509  -15.6567  -50.4316 H         1 UNK         0.0800 
    135 H135        1.9479  -15.6670  -50.8717 H         1 UNK         0.0800 
    136 H136       -1.1828  -17.3466  -51.4072 H         1 UNK         0.1150 
    137 H137        0.5275  -20.8293  -53.2444 H         1 UNK         0.1150 
    138 H138        3.0545  -17.9626  -51.3130 H         1 UNK         0.1150 
    139 H139        3.0775  -20.6593  -53.6919 H         1 UNK         0.0800 
    140 H140        4.0530  -19.7132  -52.5997 H         1 UNK         0.0800 
    141 H141        3.2373  -19.9782  -49.9080 H         1 UNK         0.0800 
    142 H142        4.5141  -21.1164  -49.6082 H         1 UNK         0.0800 
    143 H143        2.7583  -22.8534  -49.0219 H         1 UNK         0.0600 
    144 H144        3.5526  -20.6816  -47.3228 H         1 UNK         0.3000 
    145 H145        2.5510  -22.4041  -44.3244 H         1 UNK         0.0600 
    146 H146        4.9443  -22.1111  -43.8473 H         1 UNK         0.0600 
    147 H147        4.7476  -23.3351  -45.0901 H         1 UNK         0.0600 
    148 H148        5.2782  -21.7171  -45.5338 H         1 UNK         0.0600 
    149 H149        3.8199  -19.9919  -44.3361 H         1 UNK         0.3000 
    150 H150        2.8677  -18.1723  -43.6673 H         1 UNK         0.0600 
    151 H151        2.2093  -17.2696  -45.8969 H         1 UNK         0.0600 
    152 H152        1.6001  -16.2702  -44.5831 H         1 UNK         0.0600 
    153 H153        0.5097  -17.3530  -45.4412 H         1 UNK         0.0600 
    154 H154        0.0515  -17.8290  -43.1079 H         1 UNK         0.3000 
    155 H155        0.1076  -19.6771  -40.0260 H         1 UNK         0.0600 
    156 H156       -0.1810  -16.7018  -40.6849 H         1 UNK         0.0600 
    157 H157       -0.7783  -17.5129  -39.2366 H         1 UNK         0.0600 
    158 H158        0.9476  -17.3933  -39.5301 H         1 UNK         0.0600 
    159 H159       -1.7614  -18.2488  -41.8343 H         1 UNK         0.3000 
    160 H160       -3.3339  -21.1024  -42.9672 H         1 UNK         0.0600 
    161 H161       -4.4978  -19.7544  -40.4722 H         1 UNK         0.0600 
    162 H162       -4.2785  -21.4852  -40.7019 H         1 UNK         0.0600 
    163 H163       -5.4223  -20.6107  -41.7069 H         1 UNK         0.0600 
    164 H164       -4.0647  -18.2911  -42.4004 H         1 UNK         0.3000 
    165 H165       -2.8053  -17.1009  -45.4411 H         1 UNK         0.0600 
    166 H166       -5.1000  -16.3290  -45.9724 H         1 UNK         0.0600 
    167 H167       -4.9473  -18.0427  -46.3147 H         1 UNK         0.0600 
    168 H168       -5.7894  -17.5185  -44.8646 H         1 UNK         0.0600 
    169 H169       -4.5160  -15.8695  -43.5306 H         1 UNK         0.3000 
    170 H170       -3.5132  -14.1861  -42.2325 H         1 UNK         0.0600 
    171 H171       -2.6684  -16.3321  -40.1803 H         1 UNK         0.0600 
    172 H172       -3.5774  -14.8713  -39.8110 H         1 UNK         0.0600 
    173 H173       -4.2998  -16.1221  -40.7991 H         1 UNK         0.0600 
    174 H174       -0.7667  -14.6799  -42.1400 H         1 UNK         0.3000 
    175 H175        0.1272  -11.6513  -40.4669 H         1 UNK         0.0600 
    176 H176        2.0823  -13.0867  -39.9684 H         1 UNK         0.0600 
    177 H177        1.1698  -14.5375  -40.3794 H         1 UNK         0.0600 
    178 H178        0.7174  -13.5765  -38.9770 H         1 UNK         0.0600 
    179 H179        1.3617  -13.2935  -42.4913 H         1 UNK         0.3000 
    180 H180        0.0408  -12.5644  -45.1380 H         1 UNK         0.0600 
    181 H181        1.5899   -9.9381  -44.8823 H         1 UNK         0.0600 
    182 H182       -0.0413  -10.1456  -45.5000 H         1 UNK         0.0600 
    183 H183        1.3177  -10.8063  -46.3928 H         1 UNK         0.0600 
    184 H184        1.9540  -13.6415  -45.1282 H         1 UNK         0.3000 
    185 H185        5.2833  -12.8415  -44.6961 H         1 UNK         0.0600 
    186 H186        4.8807  -13.5496  -42.3297 H         1 UNK         0.0600 
    187 H187        3.7912  -14.8173  -42.8786 H         1 UNK         0.0600 
    188 H188        5.5055  -14.8798  -43.2894 H         1 UNK         0.0600 
    189 H189        3.9294  -15.3033  -45.2678 H         1 UNK         0.3000 
    190 H190        1.0886  -19.9135  -47.8880 H         1 UNK         0.3000 
    191 H191       -1.2933  -20.2698  -49.4632 H         1 UNK         0.0600 
    192 H192       -0.9524  -18.0878  -48.5324 H         1 UNK         0.0600 
    193 H193       -2.2881  -18.7698  -47.6240 H         1 UNK         0.0600 
    194 H194       -0.6942  -18.7210  -46.9030 H         1 UNK         0.0600 
    195 H195       -0.3513  -21.2753  -46.1409 H         1 UNK         0.3000 
    196 H196       -2.7368  -22.5564  -45.4268 H         1 UNK         0.0600 
    197 H197       -1.3667  -23.6430  -43.6768 H         1 UNK         0.0600 
    198 H198       -0.9068  -21.9553  -43.8474 H         1 UNK         0.0600 
    199 H199        0.1152  -23.2167  -44.5250 H         1 UNK         0.0600 
    200 H200        0.1695  -23.9248  -47.0271 H         1 UNK         0.3000 
    201 H201       -0.7477  -26.5882  -47.3345 H         1 UNK         0.0600 
    202 H202        1.6230  -25.9223  -47.6196 H         1 UNK         0.0600 
    203 H203        1.2146  -24.9622  -49.0398 H         1 UNK         0.0600 
    204 H204        1.0426  -26.7131  -49.0777 H         1 UNK         0.0600 
    205 H205       -1.1839  -23.7047  -49.3975 H         1 UNK         0.3000 
    206 H206       -2.7993  -25.0953  -51.3997 H         1 UNK         0.0600 
    207 H207       -1.2489  -23.2365  -52.0129 H         1 UNK         0.0600 
    208 H208       -2.9130  -22.8549  -52.4292 H         1 UNK         0.0600 
    209 H209       -2.1758  -22.1308  -51.0011 H         1 UNK         0.0600 
    210 H210       -3.8698  -25.5211  -48.8883 H         1 UNK         0.3000 
    211 H211       -5.7376  -25.5707  -47.6986 H         1 UNK         0.0600 
    212 H212       -7.0252  -24.8963  -50.3921 H         1 UNK         0.0600 
    213 H213       -7.8413  -25.6555  -49.0304 H         1 UNK         0.0600 
    214 H214       -6.5376  -26.4979  -49.8487 H         1 UNK         0.0600 
    215 H215       -4.4620  -23.1885  -47.2893 H         1 UNK         0.3000 
    216 H216       -4.6112  -21.2497  -46.2394 H         1 UNK         0.0600 
    217 H217       -6.6016  -20.6164  -44.9470 H         1 UNK         0.0600 
    218 H218       -6.2654  -22.3268  -44.7352 H         1 UNK         0.0600 
    219 H219       -7.5844  -21.8084  -45.7852 H         1 UNK         0.0600 
    220 H220       -4.2287  -20.9341  -48.6524 H         1 UNK         0.3000 
    221 H221       -4.1411  -19.5585  -50.3643 H         1 UNK         0.0600 
    222 H222       -5.7742  -17.5788  -48.6912 H         1 UNK         0.0600 
    223 H223       -4.0233  -17.7598  -48.6389 H         1 UNK         0.0600 
    224 H224       -4.8003  -17.1909  -50.1007 H         1 UNK         0.0600 
    225 H225       -5.7924  -21.5168  -50.9109 H         1 UNK         0.3000 
    226 H226       -8.2930  -20.6057  -52.1004 H         1 UNK         0.0600 
    227 H227       -7.9309  -22.9697  -51.3707 H         1 UNK         0.0600 
    228 H228       -8.2970  -22.8885  -53.0843 H         1 UNK         0.0600 
    229 H229       -6.6392  -23.1515  -52.5595 H         1 UNK         0.0600 
    230 H230       -8.6210  -20.9050  -54.4847 H         1 UNK         0.3000 
    231 H231       -7.0371  -19.0762  -55.9382 H         1 UNK         0.0600 
    232 H232       -9.2016  -21.0292  -56.8856 H         1 UNK         0.0600 
    233 H233       -8.6245  -19.6318  -57.7852 H         1 UNK         0.0600 
    234 H234       -9.4766  -19.3988  -56.2695 H         1 UNK         0.0600 
    235 H235       -6.2538  -22.2825  -55.3777 H         1 UNK         0.3000 
    236 H236       -5.3539  -23.3454  -57.7887 H         1 UNK         0.0600 
    237 H237       -5.5867  -24.6412  -55.6908 H         1 UNK         0.0600 
    238 H238       -3.9509  -24.8073  -56.3068 H         1 UNK         0.0600 
    239 H239       -4.2678  -23.7365  -54.9466 H         1 UNK         0.0600 
    240 H240       -3.7525  -20.9045  -55.7761 H         1 UNK         0.3000 
    241 H241       -1.2795  -21.0265  -57.3689 H         1 UNK         0.0600 
    242 H242       -4.2706  -19.6731  -58.1517 H         1 UNK         0.3800 
    243 H243       -3.6362  -18.3386  -59.0791 H         1 UNK         0.3800 
    244 H244       -0.9146  -20.7507  -55.0463 H         1 UNK         0.0800 
    245 H245       -0.3932  -19.3038  -55.8484 H         1 UNK         0.0800 
    246 H246       -2.6089  -19.2348  -52.1129 H         1 UNK         0.0800 
    247 H247       -1.9335  -20.6451  -52.8821 H         1 UNK         0.0800 
@<TRIPOS>BOND
     1    1    2 1    
     2    1  127 1    
     3    1  128 1    
     4    1  129 1    
     5    2    3 2    
     6    2    4 am   BACKBONE|DICT|INTERRES
     7    4    5 1    
     8    4  130 1    
     9    5    6 1    
    10    5   65 1    
    11    5  131 1    
    12    6    7 1    
    13    6  132 1    
    14    6  133 1    
    15    7    8 1    
    16    8    9 1    
    17    8  134 1    
    18    8  135 1    
    19    9   10 ar   
    20    9   14 ar   
    21   10   11 ar   
    22   10  136 1    
    23   11   12 ar   
    24   11  126 1    
    25   12   13 ar   
    26   12  137 1    
    27   13   14 ar   
    28   13   15 1    
    29   14  138 1    
    30   15   16 1    
    31   15  139 1    
    32   15  140 1    
    33   16   17 1    
    34   17   18 1    
    35   17  141 1    
    36   17  142 1    
    37   18   19 1    
    38   18   67 1    
    39   18  143 1    
    40   19   20 am   BACKBONE|DICT|INTERRES
    41   19  144 1    
    42   20   21 2    
    43   20   22 1    
    44   22   23 1    
    45   22   24 1    
    46   22  145 1    
    47   23  146 1    
    48   23  147 1    
    49   23  148 1    
    50   24   25 am   BACKBONE|DICT|INTERRES
    51   24  149 1    
    52   25   26 2    
    53   25   27 1    
    54   27   28 1    
    55   27   29 1    
    56   27  150 1    
    57   28  151 1    
    58   28  152 1    
    59   28  153 1    
    60   29   30 am   BACKBONE|DICT|INTERRES
    61   29  154 1    
    62   30   31 2    
    63   30   32 1    
    64   32   33 1    
    65   32   34 1    
    66   32  155 1    
    67   33  156 1    
    68   33  157 1    
    69   33  158 1    
    70   34   35 am   BACKBONE|DICT|INTERRES
    71   34  159 1    
    72   35   36 2    
    73   35   37 1    
    74   37   38 1    
    75   37   39 1    
    76   37  160 1    
    77   38  161 1    
    78   38  162 1    
    79   38  163 1    
    80   39   40 am   BACKBONE|DICT|INTERRES
    81   39  164 1    
    82   40   41 2    
    83   40   42 1    
    84   42   43 1    
    85   42   44 1    
    86   42  165 1    
    87   43  166 1    
    88   43  167 1    
    89   43  168 1    
    90   44   45 am   BACKBONE|DICT|INTERRES
    91   44  169 1    
    92   45   46 2    
    93   45   47 1    
    94   47   48 1    
    95   47   49 1    
    96   47  170 1    
    97   48  171 1    
    98   48  172 1    
    99   48  173 1    
   100   49   50 am   BACKBONE|DICT|INTERRES
   101   49  174 1    
   102   50   51 2    
   103   50   52 1    
   104   52   53 1    
   105   52   54 1    
   106   52  175 1    
   107   53  176 1    
   108   53  177 1    
   109   53  178 1    
   110   54   55 am   BACKBONE|DICT|INTERRES
   111   54  179 1    
   112   55   56 2    
   113   55   57 1    
   114   57   58 1    
   115   57   59 1    
   116   57  180 1    
   117   58  181 1    
   118   58  182 1    
   119   58  183 1    
   120   59   60 am   BACKBONE|DICT|INTERRES
   121   59  184 1    
   122   60   61 2    
   123   60   62 1    
   124   62   63 1    
   125   62   64 1    
   126   62  185 1    
   127   63  186 1    
   128   63  187 1    
   129   63  188 1    
   130   64   65 am   BACKBONE|DICT|INTERRES
   131   64  189 1    
   132   65   66 2    
   133   67   68 2    
   134   67   69 am   BACKBONE|DICT|INTERRES
   135   69   70 1    
   136   69  190 1    
   137   70   71 1    
   138   70   72 1    
   139   70  191 1    
   140   71  192 1    
   141   71  193 1    
   142   71  194 1    
   143   72   73 2    
   144   72   74 am   BACKBONE|DICT|INTERRES
   145   74   75 1    
   146   74  195 1    
   147   75   76 1    
   148   75   77 1    
   149   75  196 1    
   150   76  197 1    
   151   76  198 1    
   152   76  199 1    
   153   77   78 2    
   154   77   79 am   BACKBONE|DICT|INTERRES
   155   79   80 1    
   156   79  200 1    
   157   80   81 1    
   158   80   82 1    
   159   80  201 1    
   160   81  202 1    
   161   81  203 1    
   162   81  204 1    
   163   82   83 2    
   164   82   84 am   BACKBONE|DICT|INTERRES
   165   84   85 1    
   166   84  205 1    
   167   85   86 1    
   168   85   87 1    
   169   85  206 1    
   170   86  207 1    
   171   86  208 1    
   172   86  209 1    
   173   87   88 2    
   174   87   89 am   BACKBONE|DICT|INTERRES
   175   89   90 1    
   176   89  210 1    
   177   90   91 1    
   178   90   92 1    
   179   90  211 1    
   180   91  212 1    
   181   91  213 1    
   182   91  214 1    
   183   92   93 2    
   184   92   94 am   BACKBONE|DICT|INTERRES
   185   94   95 1    
   186   94  215 1    
   187   95   96 1    
   188   95   97 1    
   189   95  216 1    
   190   96  217 1    
   191   96  218 1    
   192   96  219 1    
   193   97   98 2    
   194   97   99 am   BACKBONE|DICT|INTERRES
   195   99  100 1    
   196   99  220 1    
   197  100  101 1    
   198  100  102 1    
   199  100  221 1    
   200  101  222 1    
   201  101  223 1    
   202  101  224 1    
   203  102  103 2    
   204  102  104 am   BACKBONE|DICT|INTERRES
   205  104  105 1    
   206  104  225 1    
   207  105  106 1    
   208  105  107 1    
   209  105  226 1    
   210  106  227 1    
   211  106  228 1    
   212  106  229 1    
   213  107  108 2    
   214  107  109 am   BACKBONE|DICT|INTERRES
   215  109  110 1    
   216  109  230 1    
   217  110  111 1    
   218  110  112 1    
   219  110  231 1    
   220  111  232 1    
   221  111  233 1    
   222  111  234 1    
   223  112  113 2    
   224  112  114 am   BACKBONE|DICT|INTERRES
   225  114  115 1    
   226  114  235 1    
   227  115  116 1    
   228  115  117 1    
   229  115  236 1    
   230  116  237 1    
   231  116  238 1    
   232  116  239 1    
   233  117  118 2    
   234  117  119 am   BACKBONE|DICT|INTERRES
   235  119  120 1    
   236  119  240 1    
   237  120  121 1    
   238  120  124 1    
   239  120  241 1    
   240  121  122 am   BACKBONE|DICT|INTERRES
   241  121  123 2    
   242  122  242 1    
   243  122  243 1    
   244  124  125 1    
   245  124  244 1    
   246  124  245 1    
   247  125  126 1    
   248  126  246 1    
   249  126  247 1    
@<TRIPOS>SUBSTRUCTURE
     1 UNK         1 GROUP             0       ****    0 ROOT    
