@<TRIPOS>MOLECULE
3R540
247   249    1
SMALL
USER_CHARGES


@<TRIPOS>ATOM
      1 CA         -0.1161  -11.2811  -44.4060 C.3       0 UNK        -0.1800 
      2 C           0.9559  -11.5822  -45.4436 C.2       0 UNK         0.5000 
      3 O           1.9709  -10.8879  -45.4947 O.2       0 UNK        -0.5000 
      4 N           0.7487  -12.6361  -46.2455 N.am      1 UNK        -0.5000 
      5 CA          1.6371  -13.1209  -47.3160 C.3       1 UNK         0.1400 
      6 C6          1.0325  -14.3369  -48.0656 C.3       23 UNK        -0.0398 
      7 S7         -0.6495  -14.0146  -48.7010 S.3       23 UNK        -0.2404 
      8 C8         -0.3879  -14.0459  -50.5015 C.3       23 UNK        -0.0205 
      9 C9         -0.4916  -15.4564  -51.0640 C.ar      23 UNK        -0.0193 
     10 C10        -1.7265  -15.9436  -51.4992 C.ar      23 UNK        -0.1150 
     11 C11        -1.8385  -17.2224  -52.0532 C.ar      23 UNK        -0.0193 
     12 C12        -0.6943  -18.0240  -52.1519 C.ar      23 UNK        -0.1150 
     13 C13         0.5502  -17.5506  -51.7189 C.ar      23 UNK        -0.0193 
     14 C14         0.6423  -16.2644  -51.1783 C.ar      23 UNK        -0.1150 
     15 C15         1.8142  -18.3893  -51.8824 C.3       23 UNK        -0.0205 
     16 S16         1.6839  -20.0826  -51.2208 S.3       23 UNK        -0.2404 
     17 C17         1.4471  -19.7985  -49.4331 C.3       23 UNK        -0.0398 
     18 CA          0.3419  -20.7107  -48.8452 C.3       11 UNK         0.1400 
     19 N           0.4919  -20.8804  -47.3985 N.am      11 UNK        -0.5000 
     20 C           0.7843  -22.0376  -46.7896 C.2       10 UNK         0.5000 
     21 O           1.0712  -23.0729  -47.3907 O.2       10 UNK        -0.5000 
     22 CA          0.7465  -22.0626  -45.2457 C.3       10 UNK         0.1400 
     23 CB          2.1707  -21.9849  -44.6765 C.3       10 UNK        -0.1800 
     24 N          -0.0643  -21.0018  -44.6444 N.am      10 UNK        -0.5000 
     25 C          -1.3834  -20.8339  -44.8212 C.2       9 UNK         0.5000 
     26 O          -2.0857  -21.5887  -45.4932 O.2       9 UNK        -0.5000 
     27 CA         -2.0236  -19.5751  -44.2053 C.3       9 UNK         0.1400 
     28 CB         -2.6437  -19.9090  -42.8413 C.3       9 UNK        -0.1800 
     29 N          -1.1180  -18.4318  -44.0538 N.am      9 UNK        -0.5000 
     30 C          -0.3399  -17.8966  -45.0068 C.2       8 UNK         0.5000 
     31 O          -0.2647  -18.3220  -46.1597 O.2       8 UNK        -0.5000 
     32 CA          0.5369  -16.7090  -44.5897 C.3       8 UNK         0.1400 
     33 CB         -0.2818  -15.4148  -44.6774 C.3       8 UNK        -0.1800 
     34 N           1.0946  -16.8404  -43.2431 N.am      8 UNK        -0.5000 
     35 C           1.8847  -17.8365  -42.8133 C.2       7 UNK         0.5000 
     36 O           2.2324  -18.7882  -43.5116 O.2       7 UNK        -0.5000 
     37 CA          2.3387  -17.7656  -41.3457 C.3       7 UNK         0.1400 
     38 CB          3.5060  -16.7818  -41.1699 C.3       7 UNK        -0.1800 
     39 N           1.2357  -17.3721  -40.4725 N.am      7 UNK        -0.5000 
     40 C           0.2619  -18.1997  -40.0697 C.2       6 UNK         0.5000 
     41 O           0.2362  -19.4042  -40.3231 O.2       6 UNK        -0.5000 
     42 CA         -0.8883  -17.5694  -39.2625 C.3       6 UNK         0.1400 
     43 CB         -0.5732  -17.6006  -37.7594 C.3       6 UNK        -0.1800 
     44 N          -1.1789  -16.1915  -39.6645 N.am      6 UNK        -0.5000 
     45 C          -1.6936  -15.8402  -40.8510 C.2       5 UNK         0.5000 
     46 O          -1.9877  -16.6444  -41.7358 O.2       5 UNK        -0.5000 
     47 CA         -1.8636  -14.3302  -41.1026 C.3       5 UNK         0.1400 
     48 CB         -3.1943  -13.8316  -40.5201 C.3       5 UNK        -0.1800 
     49 N          -0.7631  -13.5213  -40.5668 N.am      5 UNK        -0.5000 
     50 C           0.5063  -13.6016  -40.9837 C.2       4 UNK         0.5000 
     51 O           0.9021  -14.4111  -41.8253 O.2       4 UNK        -0.5000 
     52 CA          1.5134  -12.6395  -40.3494 C.3       4 UNK         0.1400 
     53 CB          2.2147  -13.2959  -39.1481 C.3       4 UNK        -0.1800 
     54 N           2.4897  -12.2924  -41.3744 N.am      4 UNK        -0.5000 
     55 C           3.2256  -11.1782  -41.4153 C.2       3 UNK         0.5000 
     56 O           3.1989  -10.3228  -40.5288 O.2       3 UNK        -0.5000 
     57 CA          4.1046  -10.9405  -42.6630 C.3       3 UNK         0.1400 
     58 CB          5.5546  -10.5708  -42.2870 C.3       3 UNK        -0.1800 
     59 N           4.0700  -12.0084  -43.6742 N.am      3 UNK        -0.5000 
     60 C           4.5971  -13.2416  -43.6060 C.2       2 UNK         0.5000 
     61 O           5.1529  -13.6925  -42.6048 O.2       2 UNK        -0.5000 
     62 CA          4.4604  -14.1137  -44.8710 C.3       2 UNK         0.1400 
     63 CB          4.5496  -15.6205  -44.5789 C.3       2 UNK        -0.1800 
     64 N           3.1966  -13.8357  -45.5527 N.am      2 UNK        -0.5000 
     65 C           3.0648  -13.4682  -46.8338 C.2       1 UNK         0.5000 
     66 O           4.0054  -13.3845  -47.6240 O.2       1 UNK        -0.5000 
     67 C          -1.0694  -20.1968  -49.1874 C.2       11 UNK         0.5000 
     68 O          -1.6261  -20.6023  -50.2042 O.2       11 UNK        -0.5000 
     69 N          -1.6397  -19.3297  -48.3399 N.am      12 UNK        -0.5000 
     70 CA         -2.9225  -18.6724  -48.5808 C.3       12 UNK         0.1400 
     71 CB         -3.0332  -17.4362  -47.6748 C.3       12 UNK        -0.1800 
     72 C          -4.1541  -19.5845  -48.4180 C.2       12 UNK         0.5000 
     73 O          -5.2192  -19.2209  -48.9181 O.2       12 UNK        -0.5000 
     74 N          -4.0155  -20.7227  -47.7215 N.am      13 UNK        -0.5000 
     75 CA         -5.1270  -21.6268  -47.4203 C.3       13 UNK         0.1400 
     76 CB         -5.7032  -21.2920  -46.0338 C.3       13 UNK        -0.1800 
     77 C          -4.7304  -23.1070  -47.5099 C.2       13 UNK         0.5000 
     78 O          -5.4424  -23.8805  -48.1537 O.2       13 UNK        -0.5000 
     79 N          -3.6201  -23.4863  -46.8632 N.am      14 UNK        -0.5000 
     80 CA         -3.1594  -24.8708  -46.7329 C.3       14 UNK         0.1400 
     81 CB         -1.9090  -24.9058  -45.8445 C.3       14 UNK        -0.1800 
     82 C          -2.8702  -25.5476  -48.0847 C.2       14 UNK         0.5000 
     83 O          -2.3352  -24.9036  -48.9898 O.2       14 UNK        -0.5000 
     84 N          -3.2305  -26.8360  -48.1817 N.am      15 UNK        -0.5000 
     85 CA         -3.0853  -27.7071  -49.3549 C.3       15 UNK         0.1400 
     86 CB         -1.5950  -28.0114  -49.6187 C.3       15 UNK        -0.1800 
     87 C          -3.8147  -27.1582  -50.5996 C.2       15 UNK         0.5000 
     88 O          -3.2479  -27.1562  -51.6920 O.2       15 UNK        -0.5000 
     89 N          -5.0469  -26.6634  -50.3979 N.am      16 UNK        -0.5000 
     90 CA         -5.8838  -25.9678  -51.3867 C.3       16 UNK         0.1400 
     91 CB         -6.3465  -26.9320  -52.4993 C.3       16 UNK        -0.1800 
     92 C          -5.1851  -24.7055  -51.9325 C.2       16 UNK         0.5000 
     93 O          -5.1067  -24.5052  -53.1466 O.2       16 UNK        -0.5000 
     94 N          -4.6459  -23.9093  -50.9987 N.am      17 UNK        -0.5000 
     95 CA         -3.7995  -22.7341  -51.2064 C.3       17 UNK         0.1400 
     96 CB         -4.6398  -21.5591  -51.7348 C.3       17 UNK        -0.1800 
     97 C          -2.5766  -23.0560  -52.0877 C.2       17 UNK         0.5000 
     98 O          -2.4436  -22.5160  -53.1869 O.2       17 UNK        -0.5000 
     99 N          -1.7544  -24.0039  -51.6121 N.am      18 UNK        -0.5000 
    100 CA        -0.5638  -24.5577  -52.2702 C.3       18 UNK         0.1400 
    101 CB         0.5798  -23.5243  -52.2504 C.3       18 UNK        -0.1800 
    102 C         -0.8528  -25.1090  -53.6856 C.2       18 UNK         0.5000 
    103 O         -0.0459  -24.9357  -54.6005 O.2       18 UNK        -0.5000 
    104 N         -2.0309  -25.7305  -53.8342 N.am      19 UNK        -0.5000 
    105 CA        -2.6511  -26.2542  -55.0535 C.3       19 UNK         0.1400 
    106 CB        -1.8103  -27.4059  -55.6410 C.3       19 UNK        -0.1800 
    107 C         -3.0082  -25.1905  -56.1172 C.2       19 UNK         0.5000 
    108 O         -3.4229  -25.5666  -57.2152 O.2       19 UNK        -0.5000 
    109 N         -2.8664  -23.8957  -55.7995 N.am      20 UNK        -0.5000 
    110 CA        -3.1643  -22.7876  -56.7080 C.3       20 UNK         0.1400 
    111 CB        -2.1987  -21.6266  -56.4227 C.3       20 UNK        -0.1800 
    112 C         -4.6250  -22.3147  -56.6040 C.2       20 UNK         0.5000 
    113 O         -5.0941  -21.6344  -57.5172 O.2       20 UNK        -0.5000 
    114 N         -5.3133  -22.6677  -55.5055 N.am      21 UNK        -0.5000 
    115 CA        -6.7084  -22.3377  -55.1850 C.3       21 UNK         0.1400 
    116 CB        -7.6712  -23.0373  -56.1665 C.3       21 UNK        -0.1800 
    117 C         -6.9908  -20.8233  -55.0473 C.2       21 UNK         0.5000 
    118 O         -8.1410  -20.4017  -55.1794 O.2       21 UNK        -0.5000 
    119 N         -5.9469  -20.0317  -54.7682 N.am      22 UNK        -0.5000 
    120 CA        -6.0097  -18.5728  -54.5827 C.3       22 UNK         0.1400 
    121 C         -6.5669  -18.0979  -53.2072 C.2       22 UNK         0.5000 
    122 N         -6.8372  -18.9795  -52.2534 N.am      22 UNK        -0.7600 
    123 O         -6.7668  -16.9032  -53.0056 O.2       22 UNK        -0.5000 
    124 C124       -4.6637  -17.8860  -54.9432 C.3       23 UNK        -0.0398 
    125 S125       -3.1855  -18.5793  -54.1181 S.3       23 UNK        -0.2404 
    126 C126       -3.2081  -17.7195  -52.5089 C.3       23 UNK        -0.0205 
    127 H127       -0.9186  -12.0191  -44.4248 H         1 UNK         0.0600 
    128 H128       -0.5505  -10.2986  -44.5900 H         1 UNK         0.0600 
    129 H129        0.3195  -11.2810  -43.4068 H         1 UNK         0.0600 
    130 H130       -0.1307  -13.1278  -46.1782 H         1 UNK         0.3000 
    131 H131        1.7389  -12.3021  -48.0312 H         1 UNK         0.0600 
    132 H132        1.6821  -14.6253  -48.8926 H         1 UNK         0.0800 
    133 H133        0.9828  -15.2102  -47.4141 H         1 UNK         0.0800 
    134 H134       -1.1409  -13.4108  -50.9706 H         1 UNK         0.0800 
    135 H135        0.5754  -13.5996  -50.7532 H         1 UNK         0.0800 
    136 H136       -2.6037  -15.3182  -51.4088 H         1 UNK         0.1150 
    137 H137       -0.7716  -19.0189  -52.5683 H         1 UNK         0.1150 
    138 H138        1.6027  -15.8847  -50.8610 H         1 UNK         0.1150 
    139 H139        2.0477  -18.4518  -52.9459 H         1 UNK         0.0800 
    140 H140        2.6685  -17.9005  -51.4114 H         1 UNK         0.0800 
    141 H141        1.2437  -18.7458  -49.2279 H         1 UNK         0.0800 
    142 H142        2.4016  -20.0166  -48.9521 H         1 UNK         0.0800 
    143 H143        0.4238  -21.6882  -49.3249 H         1 UNK         0.0600 
    144 H144        0.2861  -20.0689  -46.8249 H         1 UNK         0.3000 
    145 H145        0.3128  -23.0166  -44.9418 H         1 UNK         0.0600 
    146 H146        2.1668  -22.0399  -43.5877 H         1 UNK         0.0600 
    147 H147        2.7830  -22.8104  -45.0417 H         1 UNK         0.0600 
    148 H148        2.6667  -21.0573  -44.9644 H         1 UNK         0.0600 
    149 H149        0.4387  -20.3063  -44.1086 H         1 UNK         0.3000 
    150 H150       -2.8280  -19.2668  -44.8745 H         1 UNK         0.0600 
    151 H151       -3.3345  -20.7497  -42.9187 H         1 UNK         0.0600 
    152 H152       -3.2069  -19.0634  -42.4463 H         1 UNK         0.0600 
    153 H153       -1.8806  -20.1748  -42.1087 H         1 UNK         0.0600 
    154 H154       -1.1389  -17.9676  -43.1521 H         1 UNK         0.3000 
    155 H155        1.3729  -16.6443  -45.2889 H         1 UNK         0.0600 
    156 H156       -0.6603  -15.2557  -45.6871 H         1 UNK         0.0600 
    157 H157        0.3177  -14.5506  -44.4000 H         1 UNK         0.0600 
    158 H158       -1.1462  -15.4435  -44.0155 H         1 UNK         0.0600 
    159 H159        0.9016  -16.0698  -42.6081 H         1 UNK         0.3000 
    160 H160        2.6878  -18.7579  -41.0515 H         1 UNK         0.0600 
    161 H161        3.2342  -15.7668  -41.4614 H         1 UNK         0.0600 
    162 H162        4.3607  -17.0797  -41.7782 H         1 UNK         0.0600 
    163 H163        3.8426  -16.7515  -40.1336 H         1 UNK         0.0600 
    164 H164        1.1581  -16.3908  -40.2511 H         1 UNK         0.3000 
    165 H165       -1.7833  -18.1703  -39.4380 H         1 UNK         0.0600 
    166 H166       -1.4122  -17.2260  -37.1726 H         1 UNK         0.0600 
    167 H167       -0.3726  -18.6190  -37.4238 H         1 UNK         0.0600 
    168 H168        0.3026  -16.9968  -37.5181 H         1 UNK         0.0600 
    169 H169       -0.9647  -15.4649  -38.9975 H         1 UNK         0.3000 
    170 H170       -1.8923  -14.1758  -42.1826 H         1 UNK         0.0600 
    171 H171       -4.0332  -14.4048  -40.9172 H         1 UNK         0.0600 
    172 H172       -3.2193  -13.9226  -39.4335 H         1 UNK         0.0600 
    173 H173       -3.3686  -12.7858  -40.7740 H         1 UNK         0.0600 
    174 H174       -1.0082  -12.8379  -39.8647 H         1 UNK         0.3000 
    175 H175        0.9868  -11.7394  -40.0255 H         1 UNK         0.0600 
    176 H176        2.7645  -14.1905  -39.4431 H         1 UNK         0.0600 
    177 H177        2.9220  -12.6101  -38.6815 H         1 UNK         0.0600 
    178 H178        1.4938  -13.5877  -38.3836 H         1 UNK         0.0600 
    179 H179        2.5491  -12.9553  -42.1352 H         1 UNK         0.3000 
    180 H180        3.6710  -10.0697  -43.1571 H         1 UNK         0.0600 
    181 H181        6.0421  -11.3618  -41.7169 H         1 UNK         0.0600 
    182 H182        5.5816   -9.6686  -41.6750 H         1 UNK         0.0600 
    183 H183        6.1556  -10.3756  -43.1751 H         1 UNK         0.0600 
    184 H184        3.5896  -11.7487  -44.5300 H         1 UNK         0.3000 
    185 H185        5.3043  -13.8457  -45.5095 H         1 UNK         0.0600 
    186 H186        3.7391  -15.9409  -43.9287 H         1 UNK         0.0600 
    187 H187        4.4902  -16.2041  -45.4976 H         1 UNK         0.0600 
    188 H188        5.4905  -15.8776  -44.0911 H         1 UNK         0.0600 
    189 H189        2.3681  -13.8550  -44.9766 H         1 UNK         0.3000 
    190 H190       -1.1181  -18.9976  -47.5317 H         1 UNK         0.3000 
    191 H191       -2.9212  -18.3167  -49.6102 H         1 UNK         0.0600 
    192 H192       -3.0565  -17.7070  -46.6201 H         1 UNK         0.0600 
    193 H193       -2.1935  -16.7578  -47.8299 H         1 UNK         0.0600 
    194 H194       -3.9440  -16.8758  -47.8889 H         1 UNK         0.0600 
    195 H195       -3.1096  -20.9659  -47.3415 H         1 UNK         0.3000 
    196 H196       -5.9231  -21.4878  -48.1551 H         1 UNK         0.0600 
    197 H197       -6.5209  -21.9661  -45.7756 H         1 UNK         0.0600 
    198 H198       -6.0990  -20.2767  -46.0078 H         1 UNK         0.0600 
    199 H199       -4.9473  -21.3753  -45.2519 H         1 UNK         0.0600 
    200 H200       -3.0783  -22.7904  -46.3545 H         1 UNK         0.3000 
    201 H201       -3.9530  -25.4249  -46.2276 H         1 UNK         0.0600 
    202 H202       -2.0912  -24.4336  -44.8789 H         1 UNK         0.0600 
    203 H203       -1.0759  -24.3911  -46.3212 H         1 UNK         0.0600 
    204 H204       -1.5925  -25.9317  -45.6526 H         1 UNK         0.0600 
    205 H205       -3.6648  -27.2696  -47.3786 H         1 UNK         0.3000 
    206 H206       -3.5751  -28.6498  -49.1070 H         1 UNK         0.0600 
    207 H207       -1.1144  -28.4233  -48.7314 H         1 UNK         0.0600 
    208 H208       -1.4806  -28.7444  -50.4182 H         1 UNK         0.0600 
    209 H209       -1.0437  -27.1182  -49.9134 H         1 UNK         0.0600 
    210 H210       -5.4121  -26.6833  -49.4559 H         1 UNK         0.3000 
    211 H211       -6.7729  -25.6226  -50.8570 H         1 UNK         0.0600 
    212 H212       -5.5127  -27.2895  -53.1038 H         1 UNK         0.0600 
    213 H213       -7.0483  -26.4394  -53.1733 H         1 UNK         0.0600 
    214 H214       -6.8538  -27.8012  -52.0810 H         1 UNK         0.0600 
    215 H215       -4.7786  -24.1715  -50.0274 H         1 UNK         0.3000 
    216 H216       -3.4171  -22.4561  -50.2244 H         1 UNK         0.0600 
    217 H217       -4.0211  -20.6710  -51.8568 H         1 UNK         0.0600 
    218 H218       -5.4398  -21.3079  -51.0389 H         1 UNK         0.0600 
    219 H219       -5.0848  -21.7862  -52.7012 H         1 UNK         0.0600 
    220 H220       -1.9711  -24.3959  -50.6961 H         1 UNK         0.3000 
    221 H221       -0.2510  -25.4121  -51.6689 H         1 UNK         0.0600 
    222 H222        0.3372  -22.6429  -52.8453 H         1 UNK         0.0600 
    223 H223        0.7907  -23.1933  -51.2340 H         1 UNK         0.0600 
    224 H224        1.5021  -23.9476  -52.6495 H         1 UNK         0.0600 
    225 H225       -2.5876  -25.8732  -52.9958 H         1 UNK         0.3000 
    226 H226       -3.6038  -26.6766  -54.7315 H         1 UNK         0.0600 
    227 H227       -1.5919  -28.1593  -54.8841 H         1 UNK         0.0600 
    228 H228       -2.3423  -27.9072  -56.4503 H         1 UNK         0.0600 
    229 H229       -0.8625  -27.0506  -56.0460 H         1 UNK         0.0600 
    230 H230       -2.5569  -23.6409  -54.8660 H         1 UNK         0.3000 
    231 H231       -2.9967  -23.1074  -57.7386 H         1 UNK         0.0600 
    232 H232       -2.3450  -21.2135  -55.4253 H         1 UNK         0.0600 
    233 H233       -2.3449  -20.8133  -57.1345 H         1 UNK         0.0600 
    234 H234       -1.1601  -21.9476  -56.5026 H         1 UNK         0.0600 
    235 H235       -4.8461  -23.2448  -54.8129 H         1 UNK         0.3000 
    236 H236       -6.8955  -22.7599  -54.1972 H         1 UNK         0.0600 
    237 H237       -7.4619  -24.1053  -56.2277 H         1 UNK         0.0600 
    238 H238       -8.7075  -22.9305  -55.8439 H         1 UNK         0.0600 
    239 H239       -7.5980  -22.6220  -57.1719 H         1 UNK         0.0600 
    240 H240       -5.0320  -20.4481  -54.6709 H         1 UNK         0.3000 
    241 H241       -6.7364  -18.1986  -55.3064 H         1 UNK         0.0600 
    242 H242       -7.1836  -18.6568  -51.3636 H         1 UNK         0.3800 
    243 H243       -6.6893  -19.9614  -52.4087 H         1 UNK         0.3800 
    244 H244       -4.4988  -17.9947  -56.0159 H         1 UNK         0.0800 
    245 H245       -4.7086  -16.8086  -54.7750 H         1 UNK         0.0800 
    246 H246       -3.6116  -18.3989  -51.7600 H         1 UNK         0.0800 
    247 H247       -3.9020  -16.8797  -52.5579 H         1 UNK         0.0800 
@<TRIPOS>BOND
     1    1    2 1    
     2    1  127 1    
     3    1  128 1    
     4    1  129 1    
     5    2    3 2    
     6    2    4 am   BACKBONE|DICT|INTERRES
     7    4    5 1    
     8    4  130 1    
     9    5    6 1    
    10    5   65 1    
    11    5  131 1    
    12    6    7 1    
    13    6  132 1    
    14    6  133 1    
    15    7    8 1    
    16    8    9 1    
    17    8  134 1    
    18    8  135 1    
    19    9   10 ar   
    20    9   14 ar   
    21   10   11 ar   
    22   10  136 1    
    23   11   12 ar   
    24   11  126 1    
    25   12   13 ar   
    26   12  137 1    
    27   13   14 ar   
    28   13   15 1    
    29   14  138 1    
    30   15   16 1    
    31   15  139 1    
    32   15  140 1    
    33   16   17 1    
    34   17   18 1    
    35   17  141 1    
    36   17  142 1    
    37   18   19 1    
    38   18   67 1    
    39   18  143 1    
    40   19   20 am   BACKBONE|DICT|INTERRES
    41   19  144 1    
    42   20   21 2    
    43   20   22 1    
    44   22   23 1    
    45   22   24 1    
    46   22  145 1    
    47   23  146 1    
    48   23  147 1    
    49   23  148 1    
    50   24   25 am   BACKBONE|DICT|INTERRES
    51   24  149 1    
    52   25   26 2    
    53   25   27 1    
    54   27   28 1    
    55   27   29 1    
    56   27  150 1    
    57   28  151 1    
    58   28  152 1    
    59   28  153 1    
    60   29   30 am   BACKBONE|DICT|INTERRES
    61   29  154 1    
    62   30   31 2    
    63   30   32 1    
    64   32   33 1    
    65   32   34 1    
    66   32  155 1    
    67   33  156 1    
    68   33  157 1    
    69   33  158 1    
    70   34   35 am   BACKBONE|DICT|INTERRES
    71   34  159 1    
    72   35   36 2    
    73   35   37 1    
    74   37   38 1    
    75   37   39 1    
    76   37  160 1    
    77   38  161 1    
    78   38  162 1    
    79   38  163 1    
    80   39   40 am   BACKBONE|DICT|INTERRES
    81   39  164 1    
    82   40   41 2    
    83   40   42 1    
    84   42   43 1    
    85   42   44 1    
    86   42  165 1    
    87   43  166 1    
    88   43  167 1    
    89   43  168 1    
    90   44   45 am   BACKBONE|DICT|INTERRES
    91   44  169 1    
    92   45   46 2    
    93   45   47 1    
    94   47   48 1    
    95   47   49 1    
    96   47  170 1    
    97   48  171 1    
    98   48  172 1    
    99   48  173 1    
   100   49   50 am   BACKBONE|DICT|INTERRES
   101   49  174 1    
   102   50   51 2    
   103   50   52 1    
   104   52   53 1    
   105   52   54 1    
   106   52  175 1    
   107   53  176 1    
   108   53  177 1    
   109   53  178 1    
   110   54   55 am   BACKBONE|DICT|INTERRES
   111   54  179 1    
   112   55   56 2    
   113   55   57 1    
   114   57   58 1    
   115   57   59 1    
   116   57  180 1    
   117   58  181 1    
   118   58  182 1    
   119   58  183 1    
   120   59   60 am   BACKBONE|DICT|INTERRES
   121   59  184 1    
   122   60   61 2    
   123   60   62 1    
   124   62   63 1    
   125   62   64 1    
   126   62  185 1    
   127   63  186 1    
   128   63  187 1    
   129   63  188 1    
   130   64   65 am   BACKBONE|DICT|INTERRES
   131   64  189 1    
   132   65   66 2    
   133   67   68 2    
   134   67   69 am   BACKBONE|DICT|INTERRES
   135   69   70 1    
   136   69  190 1    
   137   70   71 1    
   138   70   72 1    
   139   70  191 1    
   140   71  192 1    
   141   71  193 1    
   142   71  194 1    
   143   72   73 2    
   144   72   74 am   BACKBONE|DICT|INTERRES
   145   74   75 1    
   146   74  195 1    
   147   75   76 1    
   148   75   77 1    
   149   75  196 1    
   150   76  197 1    
   151   76  198 1    
   152   76  199 1    
   153   77   78 2    
   154   77   79 am   BACKBONE|DICT|INTERRES
   155   79   80 1    
   156   79  200 1    
   157   80   81 1    
   158   80   82 1    
   159   80  201 1    
   160   81  202 1    
   161   81  203 1    
   162   81  204 1    
   163   82   83 2    
   164   82   84 am   BACKBONE|DICT|INTERRES
   165   84   85 1    
   166   84  205 1    
   167   85   86 1    
   168   85   87 1    
   169   85  206 1    
   170   86  207 1    
   171   86  208 1    
   172   86  209 1    
   173   87   88 2    
   174   87   89 am   BACKBONE|DICT|INTERRES
   175   89   90 1    
   176   89  210 1    
   177   90   91 1    
   178   90   92 1    
   179   90  211 1    
   180   91  212 1    
   181   91  213 1    
   182   91  214 1    
   183   92   93 2    
   184   92   94 am   BACKBONE|DICT|INTERRES
   185   94   95 1    
   186   94  215 1    
   187   95   96 1    
   188   95   97 1    
   189   95  216 1    
   190   96  217 1    
   191   96  218 1    
   192   96  219 1    
   193   97   98 2    
   194   97   99 am   BACKBONE|DICT|INTERRES
   195   99  100 1    
   196   99  220 1    
   197  100  101 1    
   198  100  102 1    
   199  100  221 1    
   200  101  222 1    
   201  101  223 1    
   202  101  224 1    
   203  102  103 2    
   204  102  104 am   BACKBONE|DICT|INTERRES
   205  104  105 1    
   206  104  225 1    
   207  105  106 1    
   208  105  107 1    
   209  105  226 1    
   210  106  227 1    
   211  106  228 1    
   212  106  229 1    
   213  107  108 2    
   214  107  109 am   BACKBONE|DICT|INTERRES
   215  109  110 1    
   216  109  230 1    
   217  110  111 1    
   218  110  112 1    
   219  110  231 1    
   220  111  232 1    
   221  111  233 1    
   222  111  234 1    
   223  112  113 2    
   224  112  114 am   BACKBONE|DICT|INTERRES
   225  114  115 1    
   226  114  235 1    
   227  115  116 1    
   228  115  117 1    
   229  115  236 1    
   230  116  237 1    
   231  116  238 1    
   232  116  239 1    
   233  117  118 2    
   234  117  119 am   BACKBONE|DICT|INTERRES
   235  119  120 1    
   236  119  240 1    
   237  120  121 1    
   238  120  124 1    
   239  120  241 1    
   240  121  122 am   BACKBONE|DICT|INTERRES
   241  121  123 2    
   242  122  242 1    
   243  122  243 1    
   244  124  125 1    
   245  124  244 1    
   246  124  245 1    
   247  125  126 1    
   248  126  246 1    
   249  126  247 1    
@<TRIPOS>SUBSTRUCTURE
     1 UNK         1 GROUP             0       ****    0 ROOT    
