@<TRIPOS>MOLECULE
3R540
247   249    1
SMALL
USER_CHARGES


@<TRIPOS>ATOM
      1 CA         -0.7761  -14.0292  -43.0323 C.3       0 UNK        -0.1800 
      2 C          -0.7146  -13.4066  -44.4190 C.2       0 UNK         0.5000 
      3 O          -1.5162  -12.5263  -44.7341 O.2       0 UNK        -0.5000 
      4 N           0.2289  -13.8601  -45.2502 N.am      1 UNK        -0.5000 
      5 CA          0.4500  -13.4198  -46.6290 C.3       1 UNK         0.1400 
      6 C6          1.1627  -14.5319  -47.4348 C.3       23 UNK        -0.0398 
      7 S7          1.0966  -14.2867  -49.2426 S.3       23 UNK        -0.2404 
      8 C8          2.2097  -15.6121  -49.8099 C.3       23 UNK        -0.0205 
      9 C9          1.5358  -16.9754  -49.7573 C.ar      23 UNK        -0.0193 
     10 C10         0.8695  -17.4768  -50.8802 C.ar      23 UNK        -0.1150 
     11 C11         0.2343  -18.7216  -50.8310 C.ar      23 UNK        -0.0193 
     12 C12         0.2723  -19.4648  -49.6485 C.ar      23 UNK        -0.1150 
     13 C13         0.9251  -18.9701  -48.5171 C.ar      23 UNK        -0.0193 
     14 C14         1.5691  -17.7326  -48.5829 C.ar      23 UNK        -0.1150 
     15 C15         0.8852  -19.7505  -47.2148 C.3       23 UNK        -0.0205 
     16 S16         1.9462  -21.2254  -47.2667 S.3       23 UNK        -0.2404 
     17 C17         1.4335  -22.0526  -45.7133 C.3       23 UNK        -0.0398 
     18 CA          0.2242  -23.0487  -45.7394 C.3       11 UNK         0.1400 
     19 N          -0.7729  -22.7278  -44.7116 N.am      11 UNK        -0.5000 
     20 C          -1.7072  -23.5824  -44.2635 C.2       10 UNK         0.5000 
     21 O          -1.7933  -24.7516  -44.6372 O.2       10 UNK        -0.5000 
     22 CA         -2.7556  -23.0308  -43.2749 C.3       10 UNK         0.1400 
     23 CB         -2.2626  -23.1833  -41.8287 C.3       10 UNK        -0.1800 
     24 N          -3.0968  -21.6289  -43.5202 N.am      10 UNK        -0.5000 
     25 C          -3.6089  -21.1531  -44.6635 C.2       9 UNK         0.5000 
     26 O          -3.9676  -21.8763  -45.5922 O.2       9 UNK        -0.5000 
     27 CA         -3.6776  -19.6203  -44.8320 C.3       9 UNK         0.1400 
     28 CB         -5.1239  -19.1310  -44.6679 C.3       9 UNK        -0.1800 
     29 N          -2.8066  -18.8473  -43.9350 N.am      9 UNK        -0.5000 
     30 C          -1.4754  -18.9672  -43.8271 C.2       8 UNK         0.5000 
     31 O          -0.8174  -19.8143  -44.4359 O.2       8 UNK        -0.5000 
     32 CA         -0.7906  -18.0246  -42.8187 C.3       8 UNK         0.1400 
     33 CB         -1.1580  -18.4130  -41.3772 C.3       8 UNK        -0.1800 
     34 N           0.6657  -18.0445  -42.9384 N.am      8 UNK        -0.5000 
     35 C           1.3693  -17.4969  -43.9348 C.2       7 UNK         0.5000 
     36 O           0.8725  -16.8220  -44.8377 O.2       7 UNK        -0.5000 
     37 CA          2.8912  -17.7030  -43.8570 C.3       7 UNK         0.1400 
     38 CB          3.6129  -17.4225  -45.1877 C.3       7 UNK        -0.1800 
     39 N           3.4314  -16.8237  -42.8252 N.am      7 UNK        -0.5000 
     40 C           3.5533  -17.1447  -41.5293 C.2       6 UNK         0.5000 
     41 O           3.2542  -18.2502  -41.0755 O.2       6 UNK        -0.5000 
     42 CA          4.0902  -16.0594  -40.5739 C.3       6 UNK         0.1400 
     43 CB          5.5885  -16.2727  -40.3096 C.3       6 UNK        -0.1800 
     44 N           3.8880  -14.7006  -41.0772 N.am      6 UNK        -0.5000 
     45 C           2.7067  -14.0694  -41.1197 C.2       5 UNK         0.5000 
     46 O           1.6685  -14.5329  -40.6485 O.2       5 UNK        -0.5000 
     47 CA          2.6748  -12.7000  -41.8282 C.3       5 UNK         0.1400 
     48 CB          2.7513  -11.5585  -40.8042 C.3       5 UNK        -0.1800 
     49 N           3.7327  -12.5158  -42.8258 N.am      5 UNK        -0.5000 
     50 C           3.8820  -13.2422  -43.9411 C.2       4 UNK         0.5000 
     51 O           3.1627  -14.2000  -44.2260 O.2       4 UNK        -0.5000 
     52 CA          5.0131  -12.8008  -44.8867 C.3       4 UNK         0.1400 
     53 CB          5.1955  -13.7420  -46.0906 C.3       4 UNK        -0.1800 
     54 N           4.7372  -11.4494  -45.3671 N.am      4 UNK        -0.5000 
     55 C           5.1314  -10.3233  -44.7568 C.2       3 UNK         0.5000 
     56 O           5.8553  -10.3104  -43.7603 O.2       3 UNK        -0.5000 
     57 CA          4.5957   -8.9917  -45.3180 C.3       3 UNK         0.1400 
     58 CB          5.5840   -8.3983  -46.3331 C.3       3 UNK        -0.1800 
     59 N           3.2803   -9.1175  -45.9477 N.am      3 UNK        -0.5000 
     60 C           2.1444   -9.4262  -45.3066 C.2       2 UNK         0.5000 
     61 O           2.0692   -9.5914  -44.0882 O.2       2 UNK        -0.5000 
     62 CA          0.8762   -9.6021  -46.1664 C.3       2 UNK         0.1400 
     63 CB          0.9897   -9.0115  -47.5903 C.3       2 UNK        -0.1800 
     64 N           0.4594  -11.0050  -46.2296 N.am      2 UNK        -0.5000 
     65 C           1.1737  -12.0535  -46.6641 C.2       1 UNK         0.5000 
     66 O           2.3389  -11.9691  -47.0586 O.2       1 UNK        -0.5000 
     67 C          -0.4589  -23.2513  -47.1119 C.2       11 UNK         0.5000 
     68 O          -0.1246  -24.1985  -47.8233 O.2       11 UNK        -0.5000 
     69 N          -1.4396  -22.3925  -47.4323 N.am      12 UNK        -0.5000 
     70 CA         -2.2274  -22.4617  -48.6623 C.3       12 UNK         0.1400 
     71 CB         -3.0497  -21.1756  -48.8374 C.3       12 UNK        -0.1800 
     72 C          -3.1395  -23.6963  -48.6890 C.2       12 UNK         0.5000 
     73 O          -3.2849  -24.3161  -49.7416 O.2       12 UNK        -0.5000 
     74 N          -3.7182  -24.0430  -47.5322 N.am      13 UNK        -0.5000 
     75 CA         -4.5169  -25.2501  -47.3342 C.3       13 UNK         0.1400 
     76 CB         -5.2026  -25.1946  -45.9614 C.3       13 UNK        -0.1800 
     77 C          -3.6795  -26.5328  -47.4869 C.2       13 UNK         0.5000 
     78 O          -4.1118  -27.4545  -48.1787 O.2       13 UNK        -0.5000 
     79 N          -2.4838  -26.5533  -46.8787 N.am      14 UNK        -0.5000 
     80 CA         -1.5259  -27.6593  -46.9594 C.3       14 UNK         0.1400 
     81 CB         -0.3822  -27.4234  -45.9615 C.3       14 UNK        -0.1800 
     82 C          -0.9708  -27.8761  -48.3796 C.2       14 UNK         0.5000 
     83 O          -0.8372  -29.0215  -48.8117 O.2       14 UNK        -0.5000 
     84 N          -0.6835  -26.7756  -49.0880 N.am      15 UNK        -0.5000 
     85 CA         -0.2233  -26.7755  -50.4788 C.3       15 UNK         0.1400 
     86 CB          0.3988  -25.4041  -50.7896 C.3       15 UNK        -0.1800 
     87 C          -1.3365  -27.0891  -51.4994 C.2       15 UNK         0.5000 
     88 O          -1.0239  -27.3658  -52.6576 O.2       15 UNK        -0.5000 
     89 N          -2.6033  -26.9916  -51.0669 N.am      16 UNK        -0.5000 
     90 CA         -3.8381  -27.0473  -51.8610 C.3       16 UNK         0.1400 
     91 CB         -3.9983  -28.4068  -52.5710 C.3       16 UNK        -0.1800 
     92 C          -4.0010  -25.8473  -52.8213 C.2       16 UNK         0.5000 
     93 O          -4.8324  -25.8893  -53.7290 O.2       16 UNK        -0.5000 
     94 N          -3.2366  -24.7753  -52.5753 N.am      17 UNK        -0.5000 
     95 CA         -3.2947  -23.5002  -53.2844 C.3       17 UNK         0.1400 
     96 CB         -2.0235  -22.6979  -52.9742 C.3       17 UNK        -0.1800 
     97 C          -4.5490  -22.6902  -52.9166 C.2       17 UNK         0.5000 
     98 O          -5.0169  -21.9002  -53.7345 O.2       17 UNK        -0.5000 
     99 N          -5.1064  -22.9332  -51.7203 N.am      18 UNK        -0.5000 
    100 CA        -6.3415  -22.3227  -51.2186 C.3       18 UNK         0.1400 
    101 CB        -6.5886  -22.7936  -49.7772 C.3       18 UNK        -0.1800 
    102 C         -7.5837  -22.5976  -52.0922 C.2       18 UNK         0.5000 
    103 O         -8.5145  -21.7925  -52.0808 O.2       18 UNK        -0.5000 
    104 N         -7.5693  -23.7058  -52.8483 N.am      19 UNK        -0.5000 
    105 CA        -8.6053  -24.0615  -53.8194 C.3       19 UNK         0.1400 
    106 CB        -8.4293  -25.5320  -54.2275 C.3       19 UNK        -0.1800 
    107 C         -8.5964  -23.1486  -55.0620 C.2       19 UNK         0.5000 
    108 O         -9.6621  -22.8564  -55.6056 O.2       19 UNK        -0.5000 
    109 N         -7.4016  -22.7076  -55.4795 N.am      20 UNK        -0.5000 
    110 CA        -7.2043  -21.7452  -56.5661 C.3       20 UNK         0.1400 
    111 CB        -5.8362  -22.0022  -57.2176 C.3       20 UNK        -0.1800 
    112 C         -7.2996  -20.2893  -56.0696 C.2       20 UNK         0.5000 
    113 O         -7.7045  -19.4178  -56.8396 O.2       20 UNK        -0.5000 
    114 N         -6.9348  -20.0825  -54.7959 N.am      21 UNK        -0.5000 
    115 CA        -6.7867  -18.8354  -54.0451 C.3       21 UNK         0.1400 
    116 CB        -8.0052  -17.9018  -54.1793 C.3       21 UNK        -0.1800 
    117 C         -5.4661  -18.1250  -54.3904 C.2       21 UNK         0.5000 
    118 O         -5.1311  -17.9556  -55.5647 O.2       21 UNK        -0.5000 
    119 N         -4.7382  -17.7210  -53.3443 N.am      22 UNK        -0.5000 
    120 CA        -3.4178  -17.0728  -53.4343 C.3       22 UNK         0.1400 
    121 C         -3.4647  -15.5519  -53.7675 C.2       22 UNK         0.5000 
    122 N         -4.6258  -14.9091  -53.8018 N.am      22 UNK        -0.7600 
    123 O         -2.4261  -14.9439  -54.0105 O.2       22 UNK        -0.5000 
    124 C124       -2.5727  -17.3371  -52.1612 C.3       23 UNK        -0.0398 
    125 S125       -2.3058  -19.1203  -51.8631 S.3       23 UNK        -0.2404 
    126 C126       -0.4999  -19.2693  -52.0456 C.3       23 UNK        -0.0205 
    127 H127       -1.7311  -14.5343  -42.8901 H         1 UNK         0.0600 
    128 H128       -0.6806  -13.2591  -42.2671 H         1 UNK         0.0600 
    129 H129        0.0212  -14.7579  -42.8834 H         1 UNK         0.0600 
    130 H130        0.8648  -14.5816  -44.9267 H         1 UNK         0.3000 
    131 H131       -0.5302  -13.2719  -47.0879 H         1 UNK         0.0600 
    132 H132        0.6701  -15.4822  -47.2279 H         1 UNK         0.0800 
    133 H133        2.1963  -14.6513  -47.1089 H         1 UNK         0.0800 
    134 H134        2.5211  -15.3934  -50.8324 H         1 UNK         0.0800 
    135 H135        3.1216  -15.6144  -49.2106 H         1 UNK         0.0800 
    136 H136        0.8398  -16.8928  -51.7893 H         1 UNK         0.1150 
    137 H137       -0.2191  -20.4256  -49.6043 H         1 UNK         0.1150 
    138 H138        2.0727  -17.3428  -47.7109 H         1 UNK         0.1150 
    139 H139        1.1853  -19.1210  -46.3785 H         1 UNK         0.0800 
    140 H140       -0.1456  -20.0399  -47.0157 H         1 UNK         0.0800 
    141 H141        2.3111  -22.5938  -45.3577 H         1 UNK         0.0800 
    142 H142        1.2827  -21.2772  -44.9616 H         1 UNK         0.0800 
    143 H143        0.6295  -24.0280  -45.4738 H         1 UNK         0.0600 
    144 H144       -0.8004  -21.7606  -44.4012 H         1 UNK         0.3000 
    145 H145       -3.6663  -23.6212  -43.3922 H         1 UNK         0.0600 
    146 H146       -3.0267  -22.8721  -41.1163 H         1 UNK         0.0600 
    147 H147       -2.0178  -24.2231  -41.6076 H         1 UNK         0.0600 
    148 H148       -1.3673  -22.5882  -41.6435 H         1 UNK         0.0600 
    149 H149       -2.8287  -20.9656  -42.8091 H         1 UNK         0.3000 
    150 H150       -3.3597  -19.4035  -45.8538 H         1 UNK         0.0600 
    151 H151       -5.7964  -19.6618  -45.3435 H         1 UNK         0.0600 
    152 H152       -5.2105  -18.0686  -44.8969 H         1 UNK         0.0600 
    153 H153       -5.4880  -19.2879  -43.6519 H         1 UNK         0.0600 
    154 H154       -3.2706  -18.1445  -43.3778 H         1 UNK         0.3000 
    155 H155       -1.1413  -17.0097  -43.0123 H         1 UNK         0.0600 
    156 H156       -2.2341  -18.3556  -41.2097 H         1 UNK         0.0600 
    157 H157       -0.6867  -17.7420  -40.6584 H         1 UNK         0.0600 
    158 H158       -0.8421  -19.4302  -41.1416 H         1 UNK         0.0600 
    159 H159        1.1688  -18.5581  -42.2278 H         1 UNK         0.3000 
    160 H160        3.0828  -18.7462  -43.5963 H         1 UNK         0.0600 
    161 H161        3.3751  -16.4376  -45.5894 H         1 UNK         0.0600 
    162 H162        3.3367  -18.1621  -45.9382 H         1 UNK         0.0600 
    163 H163        4.6947  -17.4793  -45.0678 H         1 UNK         0.0600 
    164 H164        3.5945  -15.8660  -43.1149 H         1 UNK         0.3000 
    165 H165        3.5577  -16.1611  -39.6258 H         1 UNK         0.0600 
    166 H166        6.1768  -16.1736  -41.2228 H         1 UNK         0.0600 
    167 H167        5.9680  -15.5523  -39.5847 H         1 UNK         0.0600 
    168 H168        5.7758  -17.2682  -39.9049 H         1 UNK         0.0600 
    169 H169        4.6915  -14.2376  -41.4752 H         1 UNK         0.3000 
    170 H170        1.7199  -12.6238  -42.3506 H         1 UNK         0.0600 
    171 H171        1.9567  -11.6447  -40.0618 H         1 UNK         0.0600 
    172 H172        3.7025  -11.5596  -40.2707 H         1 UNK         0.0600 
    173 H173        2.6377  -10.5880  -41.2884 H         1 UNK         0.0600 
    174 H174        4.3567  -11.7320  -42.6839 H         1 UNK         0.3000 
    175 H175        5.9437  -12.8154  -44.3157 H         1 UNK         0.0600 
    176 H176        4.3117  -13.7650  -46.7266 H         1 UNK         0.0600 
    177 H177        6.0386  -13.4299  -46.7067 H         1 UNK         0.0600 
    178 H178        5.3932  -14.7633  -45.7630 H         1 UNK         0.0600 
    179 H179        4.0625  -11.3849  -46.1233 H         1 UNK         0.3000 
    180 H180        4.5036   -8.2952  -44.4821 H         1 UNK         0.0600 
    181 H181        5.7011   -9.0431  -47.2051 H         1 UNK         0.0600 
    182 H182        6.5707   -8.2673  -45.8867 H         1 UNK         0.0600 
    183 H183        5.2534   -7.4191  -46.6803 H         1 UNK         0.0600 
    184 H184        3.2500   -9.0249  -46.9526 H         1 UNK         0.3000 
    185 H185        0.0803   -9.0641  -45.6496 H         1 UNK         0.0600 
    186 H186        0.0341   -9.0734  -48.1109 H         1 UNK         0.0600 
    187 H187        1.2673   -7.9571  -47.5581 H         1 UNK         0.0600 
    188 H188        1.7274   -9.5334  -48.2007 H         1 UNK         0.0600 
    189 H189       -0.4510  -11.2117  -45.8302 H         1 UNK         0.3000 
    190 H190       -1.7012  -21.6848  -46.7628 H         1 UNK         0.3000 
    191 H191       -1.5325  -22.5404  -49.5005 H         1 UNK         0.0600 
    192 H192       -3.5483  -21.1668  -49.8074 H         1 UNK         0.0600 
    193 H193       -2.4228  -20.2861  -48.7891 H         1 UNK         0.0600 
    194 H194       -3.8229  -21.0761  -48.0762 H         1 UNK         0.0600 
    195 H195       -3.6125  -23.4241  -46.7340 H         1 UNK         0.3000 
    196 H196       -5.2946  -25.2663  -48.1004 H         1 UNK         0.0600 
    197 H197       -5.8487  -26.0607  -45.8136 H         1 UNK         0.0600 
    198 H198       -5.8238  -24.3036  -45.8674 H         1 UNK         0.0600 
    199 H199       -4.4777  -25.1837  -45.1477 H         1 UNK         0.0600 
    200 H200       -2.2192  -25.7702  -46.2888 H         1 UNK         0.3000 
    201 H201       -2.0474  -28.5727  -46.6660 H         1 UNK         0.0600 
    202 H202       -0.7575  -27.3627  -44.9399 H         1 UNK         0.0600 
    203 H203        0.1547  -26.4989  -46.1759 H         1 UNK         0.0600 
    204 H204        0.3407  -28.2394  -45.9941 H         1 UNK         0.0600 
    205 H205       -0.7468  -25.8690  -48.6329 H         1 UNK         0.3000 
    206 H206        0.5509  -27.5373  -50.5903 H         1 UNK         0.0600 
    207 H207        1.2352  -25.1908  -50.1238 H         1 UNK         0.0600 
    208 H208        0.7800  -25.3657  -51.8109 H         1 UNK         0.0600 
    209 H209       -0.3288  -24.5989  -50.6799 H         1 UNK         0.0600 
    210 H210       -2.7377  -26.7454  -50.0948 H         1 UNK         0.3000 
    211 H211       -4.6516  -26.9594  -51.1395 H         1 UNK         0.0600 
    212 H212       -3.2778  -28.5327  -53.3793 H         1 UNK         0.0600 
    213 H213       -4.9932  -28.5034  -53.0069 H         1 UNK         0.0600 
    214 H214       -3.8695  -29.2336  -51.8724 H         1 UNK         0.0600 
    215 H215       -2.6678  -24.8004  -51.7391 H         1 UNK         0.3000 
    216 H216       -3.3261  -23.7004  -54.3574 H         1 UNK         0.0600 
    217 H217       -2.0077  -21.7653  -53.5395 H         1 UNK         0.0600 
    218 H218       -1.1268  -23.2564  -53.2433 H         1 UNK         0.0600 
    219 H219       -1.9560  -22.4422  -51.9164 H         1 UNK         0.0600 
    220 H220       -4.6353  -23.5855  -51.1031 H         1 UNK         0.3000 
    221 H221       -6.1910  -21.2413  -51.2040 H         1 UNK         0.0600 
    222 H222       -7.5224  -22.3880  -49.3855 H         1 UNK         0.0600 
    223 H223       -6.6511  -23.8805  -49.7151 H         1 UNK         0.0600 
    224 H224       -5.7946  -22.4616  -49.1101 H         1 UNK         0.0600 
    225 H225       -6.7638  -24.3136  -52.8016 H         1 UNK         0.3000 
    226 H226       -9.5788  -23.9568  -53.3356 H         1 UNK         0.0600 
    227 H227       -8.4903  -26.1923  -53.3622 H         1 UNK         0.0600 
    228 H228       -9.2088  -25.8389  -54.9260 H         1 UNK         0.0600 
    229 H229       -7.4677  -25.7035  -54.7130 H         1 UNK         0.0600 
    230 H230       -6.5776  -22.9662  -54.9539 H         1 UNK         0.3000 
    231 H231       -7.9739  -21.8927  -57.3268 H         1 UNK         0.0600 
    232 H232       -5.6676  -21.3188  -58.0509 H         1 UNK         0.0600 
    233 H233       -5.7708  -23.0169  -57.6106 H         1 UNK         0.0600 
    234 H234       -5.0183  -21.8626  -56.5096 H         1 UNK         0.0600 
    235 H235       -6.5167  -20.8815  -54.3294 H         1 UNK         0.3000 
    236 H236       -6.7360  -19.1484  -53.0009 H         1 UNK         0.0600 
    237 H237       -8.9353  -18.4349  -53.9820 H         1 UNK         0.0600 
    238 H238       -7.9418  -17.0815  -53.4638 H         1 UNK         0.0600 
    239 H239       -8.0737  -17.4566  -55.1720 H         1 UNK         0.0600 
    240 H240       -5.0765  -17.8939  -52.4093 H         1 UNK         0.3000 
    241 H241       -2.8836  -17.5312  -54.2691 H         1 UNK         0.0600 
    242 H242       -5.4873  -15.3954  -53.6136 H         1 UNK         0.3800 
    243 H243       -4.6428  -13.9261  -54.0249 H         1 UNK         0.3800 
    244 H244       -1.6058  -16.8382  -52.2352 H         1 UNK         0.0800 
    245 H245       -3.0618  -16.9125  -51.2832 H         1 UNK         0.0800 
    246 H246       -0.1779  -18.7671  -52.9592 H         1 UNK         0.0800 
    247 H247       -0.2446  -20.3222  -52.1714 H         1 UNK         0.0800 
@<TRIPOS>BOND
     1    1    2 1    
     2    1  127 1    
     3    1  128 1    
     4    1  129 1    
     5    2    3 2    
     6    2    4 am   BACKBONE|DICT|INTERRES
     7    4    5 1    
     8    4  130 1    
     9    5    6 1    
    10    5   65 1    
    11    5  131 1    
    12    6    7 1    
    13    6  132 1    
    14    6  133 1    
    15    7    8 1    
    16    8    9 1    
    17    8  134 1    
    18    8  135 1    
    19    9   10 ar   
    20    9   14 ar   
    21   10   11 ar   
    22   10  136 1    
    23   11   12 ar   
    24   11  126 1    
    25   12   13 ar   
    26   12  137 1    
    27   13   14 ar   
    28   13   15 1    
    29   14  138 1    
    30   15   16 1    
    31   15  139 1    
    32   15  140 1    
    33   16   17 1    
    34   17   18 1    
    35   17  141 1    
    36   17  142 1    
    37   18   19 1    
    38   18   67 1    
    39   18  143 1    
    40   19   20 am   BACKBONE|DICT|INTERRES
    41   19  144 1    
    42   20   21 2    
    43   20   22 1    
    44   22   23 1    
    45   22   24 1    
    46   22  145 1    
    47   23  146 1    
    48   23  147 1    
    49   23  148 1    
    50   24   25 am   BACKBONE|DICT|INTERRES
    51   24  149 1    
    52   25   26 2    
    53   25   27 1    
    54   27   28 1    
    55   27   29 1    
    56   27  150 1    
    57   28  151 1    
    58   28  152 1    
    59   28  153 1    
    60   29   30 am   BACKBONE|DICT|INTERRES
    61   29  154 1    
    62   30   31 2    
    63   30   32 1    
    64   32   33 1    
    65   32   34 1    
    66   32  155 1    
    67   33  156 1    
    68   33  157 1    
    69   33  158 1    
    70   34   35 am   BACKBONE|DICT|INTERRES
    71   34  159 1    
    72   35   36 2    
    73   35   37 1    
    74   37   38 1    
    75   37   39 1    
    76   37  160 1    
    77   38  161 1    
    78   38  162 1    
    79   38  163 1    
    80   39   40 am   BACKBONE|DICT|INTERRES
    81   39  164 1    
    82   40   41 2    
    83   40   42 1    
    84   42   43 1    
    85   42   44 1    
    86   42  165 1    
    87   43  166 1    
    88   43  167 1    
    89   43  168 1    
    90   44   45 am   BACKBONE|DICT|INTERRES
    91   44  169 1    
    92   45   46 2    
    93   45   47 1    
    94   47   48 1    
    95   47   49 1    
    96   47  170 1    
    97   48  171 1    
    98   48  172 1    
    99   48  173 1    
   100   49   50 am   BACKBONE|DICT|INTERRES
   101   49  174 1    
   102   50   51 2    
   103   50   52 1    
   104   52   53 1    
   105   52   54 1    
   106   52  175 1    
   107   53  176 1    
   108   53  177 1    
   109   53  178 1    
   110   54   55 am   BACKBONE|DICT|INTERRES
   111   54  179 1    
   112   55   56 2    
   113   55   57 1    
   114   57   58 1    
   115   57   59 1    
   116   57  180 1    
   117   58  181 1    
   118   58  182 1    
   119   58  183 1    
   120   59   60 am   BACKBONE|DICT|INTERRES
   121   59  184 1    
   122   60   61 2    
   123   60   62 1    
   124   62   63 1    
   125   62   64 1    
   126   62  185 1    
   127   63  186 1    
   128   63  187 1    
   129   63  188 1    
   130   64   65 am   BACKBONE|DICT|INTERRES
   131   64  189 1    
   132   65   66 2    
   133   67   68 2    
   134   67   69 am   BACKBONE|DICT|INTERRES
   135   69   70 1    
   136   69  190 1    
   137   70   71 1    
   138   70   72 1    
   139   70  191 1    
   140   71  192 1    
   141   71  193 1    
   142   71  194 1    
   143   72   73 2    
   144   72   74 am   BACKBONE|DICT|INTERRES
   145   74   75 1    
   146   74  195 1    
   147   75   76 1    
   148   75   77 1    
   149   75  196 1    
   150   76  197 1    
   151   76  198 1    
   152   76  199 1    
   153   77   78 2    
   154   77   79 am   BACKBONE|DICT|INTERRES
   155   79   80 1    
   156   79  200 1    
   157   80   81 1    
   158   80   82 1    
   159   80  201 1    
   160   81  202 1    
   161   81  203 1    
   162   81  204 1    
   163   82   83 2    
   164   82   84 am   BACKBONE|DICT|INTERRES
   165   84   85 1    
   166   84  205 1    
   167   85   86 1    
   168   85   87 1    
   169   85  206 1    
   170   86  207 1    
   171   86  208 1    
   172   86  209 1    
   173   87   88 2    
   174   87   89 am   BACKBONE|DICT|INTERRES
   175   89   90 1    
   176   89  210 1    
   177   90   91 1    
   178   90   92 1    
   179   90  211 1    
   180   91  212 1    
   181   91  213 1    
   182   91  214 1    
   183   92   93 2    
   184   92   94 am   BACKBONE|DICT|INTERRES
   185   94   95 1    
   186   94  215 1    
   187   95   96 1    
   188   95   97 1    
   189   95  216 1    
   190   96  217 1    
   191   96  218 1    
   192   96  219 1    
   193   97   98 2    
   194   97   99 am   BACKBONE|DICT|INTERRES
   195   99  100 1    
   196   99  220 1    
   197  100  101 1    
   198  100  102 1    
   199  100  221 1    
   200  101  222 1    
   201  101  223 1    
   202  101  224 1    
   203  102  103 2    
   204  102  104 am   BACKBONE|DICT|INTERRES
   205  104  105 1    
   206  104  225 1    
   207  105  106 1    
   208  105  107 1    
   209  105  226 1    
   210  106  227 1    
   211  106  228 1    
   212  106  229 1    
   213  107  108 2    
   214  107  109 am   BACKBONE|DICT|INTERRES
   215  109  110 1    
   216  109  230 1    
   217  110  111 1    
   218  110  112 1    
   219  110  231 1    
   220  111  232 1    
   221  111  233 1    
   222  111  234 1    
   223  112  113 2    
   224  112  114 am   BACKBONE|DICT|INTERRES
   225  114  115 1    
   226  114  235 1    
   227  115  116 1    
   228  115  117 1    
   229  115  236 1    
   230  116  237 1    
   231  116  238 1    
   232  116  239 1    
   233  117  118 2    
   234  117  119 am   BACKBONE|DICT|INTERRES
   235  119  120 1    
   236  119  240 1    
   237  120  121 1    
   238  120  124 1    
   239  120  241 1    
   240  121  122 am   BACKBONE|DICT|INTERRES
   241  121  123 2    
   242  122  242 1    
   243  122  243 1    
   244  124  125 1    
   245  124  244 1    
   246  124  245 1    
   247  125  126 1    
   248  126  246 1    
   249  126  247 1    
@<TRIPOS>SUBSTRUCTURE
     1 UNK         1 GROUP             0       ****    0 ROOT    
