@<TRIPOS>MOLECULE
3R540
247   249    1
SMALL
USER_CHARGES


@<TRIPOS>ATOM
      1 CA         -6.9348  -16.7990  -45.0913 C.3       0 UNK        -0.1800 
      2 C          -5.9259  -15.7109  -44.7544 C.2       0 UNK         0.5000 
      3 O          -6.0679  -15.0291  -43.7397 O.2       0 UNK        -0.5000 
      4 N          -4.8895  -15.5601  -45.5844 N.am      1 UNK        -0.5000 
      5 CA         -3.8294  -14.5544  -45.4685 C.3       1 UNK         0.1400 
      6 C6         -3.2549  -14.1817  -46.8584 C.3       23 UNK        -0.0398 
      7 S7         -4.4694  -13.7277  -48.1408 S.3       23 UNK        -0.2404 
      8 C8         -3.3629  -13.1161  -49.4603 C.3       23 UNK        -0.0205 
      9 C9         -2.3714  -14.1705  -49.9444 C.ar      23 UNK        -0.0193 
     10 C10        -2.6622  -14.9751  -51.0502 C.ar      23 UNK        -0.1150 
     11 C11        -1.7355  -15.9219  -51.5015 C.ar      23 UNK        -0.0193 
     12 C12        -0.5285  -16.0906  -50.8145 C.ar      23 UNK        -0.1150 
     13 C13        -0.2297  -15.2972  -49.7034 C.ar      23 UNK        -0.0193 
     14 C14        -1.1425  -14.3223  -49.2963 C.ar      23 UNK        -0.1150 
     15 C15         1.0849  -15.4663  -48.9523 C.3       23 UNK        -0.0205 
     16 S16         1.2285  -17.0756  -48.1076 S.3       23 UNK        -0.2404 
     17 C17        -0.2461  -17.1258  -47.0261 C.3       23 UNK        -0.0398 
     18 CA         -1.1940  -18.2733  -47.4444 C.3       11 UNK         0.1400 
     19 N          -0.5418  -19.5794  -47.3155 N.am      11 UNK        -0.5000 
     20 C          -0.9864  -20.7095  -47.8755 C.2       10 UNK         0.5000 
     21 O          -2.0180  -20.7852  -48.5386 O.2       10 UNK        -0.5000 
     22 CA         -0.1807  -21.9810  -47.5787 C.3       10 UNK         0.1400 
     23 CB          1.1280  -22.0194  -48.3806 C.3       10 UNK        -0.1800 
     24 N           0.0930  -22.1135  -46.1502 N.am      10 UNK        -0.5000 
     25 C          -0.8493  -22.3731  -45.2329 C.2       9 UNK         0.5000 
     26 O          -2.0379  -22.5495  -45.5047 O.2       9 UNK        -0.5000 
     27 CA         -0.3906  -22.4121  -43.7637 C.3       9 UNK         0.1400 
     28 CB          0.1232  -23.8119  -43.3968 C.3       9 UNK        -0.1800 
     29 N           0.6397  -21.4173  -43.4541 N.am      9 UNK        -0.5000 
     30 C           0.4375  -20.0925  -43.4826 C.2       8 UNK         0.5000 
     31 O          -0.6260  -19.5701  -43.8025 O.2       8 UNK        -0.5000 
     32 CA          1.6363  -19.1963  -43.1448 C.3       8 UNK         0.1400 
     33 CB          1.8945  -19.1766  -41.6308 C.3       8 UNK        -0.1800 
     34 N           2.8689  -19.5644  -43.8380 N.am      8 UNK        -0.5000 
     35 C           3.0326  -19.6897  -45.1613 C.2       7 UNK         0.5000 
     36 O           2.1034  -19.6759  -45.9705 O.2       7 UNK        -0.5000 
     37 CA          4.4941  -19.8089  -45.6469 C.3       7 UNK         0.1400 
     38 CB          4.6034  -19.8683  -47.1811 C.3       7 UNK        -0.1800 
     39 N           5.2984  -18.6836  -45.1623 N.am      7 UNK        -0.5000 
     40 C           5.7916  -18.5451  -43.9228 C.2       6 UNK         0.5000 
     41 O           5.7107  -19.4206  -43.0600 O.2       6 UNK        -0.5000 
     42 CA          6.4247  -17.1852  -43.5675 C.3       6 UNK         0.1400 
     43 CB          7.9486  -17.2356  -43.7545 C.3       6 UNK        -0.1800 
     44 N           5.8803  -16.0714  -44.3503 N.am      6 UNK        -0.5000 
     45 C           4.6211  -15.6180  -44.2731 C.2       5 UNK         0.5000 
     46 O           3.7736  -16.0566  -43.4913 O.2       5 UNK        -0.5000 
     47 CA          4.2505  -14.5121  -45.2693 C.3       5 UNK         0.1400 
     48 CB          4.2245  -15.0611  -46.7091 C.3       5 UNK        -0.1800 
     49 N           2.9452  -13.9520  -44.9295 N.am      5 UNK        -0.5000 
     50 C           2.5232  -12.7354  -45.2903 C.2       4 UNK         0.5000 
     51 O           3.2098  -11.9461  -45.9413 O.2       4 UNK        -0.5000 
     52 CA          1.0986  -12.3160  -44.8820 C.3       4 UNK         0.1400 
     53 CB          0.1455  -12.4535  -46.0756 C.3       4 UNK        -0.1800 
     54 N           0.5422  -13.0459  -43.7383 N.am      4 UNK        -0.5000 
     55 C           0.9117  -12.8315  -42.4667 C.2       3 UNK         0.5000 
     56 O           1.8488  -12.0941  -42.1567 O.2       3 UNK        -0.5000 
     57 CA          0.0897  -13.4981  -41.3440 C.3       3 UNK         0.1400 
     58 CB         -0.5200  -12.4322  -40.4172 C.3       3 UNK        -0.1800 
     59 N          -0.9992  -14.3402  -41.8433 N.am      3 UNK        -0.5000 
     60 C          -0.9348  -15.6706  -41.9699 C.2       2 UNK         0.5000 
     61 O           0.0655  -16.3334  -41.6993 O.2       2 UNK        -0.5000 
     62 CA         -2.2004  -16.3901  -42.4795 C.3       2 UNK         0.1400 
     63 CB         -3.0339  -16.8977  -41.2930 C.3       2 UNK        -0.1800 
     64 N          -3.0724  -15.6084  -43.3651 N.am      2 UNK        -0.5000 
     65 C          -2.7040  -15.0556  -44.5280 C.2       1 UNK         0.5000 
     66 O          -1.5265  -14.9756  -44.8794 O.2       1 UNK        -0.5000 
     67 C          -2.5586  -18.2283  -46.7155 C.2       11 UNK         0.5000 
     68 O          -3.4727  -17.5518  -47.1864 O.2       11 UNK        -0.5000 
     69 N          -2.7128  -19.0037  -45.6302 N.am      12 UNK        -0.5000 
     70 CA         -3.9842  -19.2584  -44.9420 C.3       12 UNK         0.1400 
     71 CB         -3.7158  -19.9083  -43.5754 C.3       12 UNK        -0.1800 
     72 C          -4.9699  -20.1362  -45.7420 C.2       12 UNK         0.5000 
     73 O          -6.1261  -20.2494  -45.3343 O.2       12 UNK        -0.5000 
     74 N          -4.5051  -20.7437  -46.8432 N.am      13 UNK        -0.5000 
     75 CA         -5.2387  -21.6297  -47.7464 C.3       13 UNK         0.1400 
     76 CB         -6.4417  -20.9063  -48.3907 C.3       13 UNK        -0.1800 
     77 C          -5.6233  -22.9752  -47.1024 C.2       13 UNK         0.5000 
     78 O          -6.6803  -23.5230  -47.4255 O.2       13 UNK        -0.5000 
     79 N          -4.7525  -23.5157  -46.2352 N.am      14 UNK        -0.5000 
     80 CA         -4.8975  -24.8530  -45.6540 C.3       14 UNK         0.1400 
     81 CB         -3.7882  -25.0945  -44.6187 C.3       14 UNK        -0.1800 
     82 C          -4.8615  -25.9208  -46.7624 C.2       14 UNK         0.5000 
     83 O          -3.8880  -25.9755  -47.5146 O.2       14 UNK        -0.5000 
     84 N          -5.9539  -26.6857  -46.8959 N.am      15 UNK        -0.5000 
     85 CA         -6.2173  -27.6466  -47.9776 C.3       15 UNK         0.1400 
     86 CB         -5.2662  -28.8577  -47.8745 C.3       15 UNK        -0.1800 
     87 C          -6.2179  -27.0023  -49.3861 C.2       15 UNK         0.5000 
     88 O          -5.8727  -27.6653  -50.3653 O.2       15 UNK        -0.5000 
     89 N          -6.5973  -25.7152  -49.4537 N.am      16 UNK        -0.5000 
     90 CA         -6.6422  -24.8507  -50.6389 C.3       16 UNK         0.1400 
     91 CB         -7.6440  -25.3826  -51.6849 C.3       16 UNK        -0.1800 
     92 C          -5.2565  -24.5384  -51.2459 C.2       16 UNK         0.5000 
     93 O          -5.1789  -24.1476  -52.4117 O.2       16 UNK        -0.5000 
     94 N          -4.1853  -24.6625  -50.4456 N.am      17 UNK        -0.5000 
     95 CA         -2.7881  -24.4536  -50.8497 C.3       17 UNK         0.1400 
     96 CB         -1.8677  -24.8402  -49.6855 C.3       17 UNK        -0.1800 
     97 C          -2.4469  -23.0403  -51.3674 C.2       17 UNK         0.5000 
     98 O          -1.4270  -22.8763  -52.0386 O.2       17 UNK        -0.5000 
     99 N          -3.3171  -22.0538  -51.1127 N.am      18 UNK        -0.5000 
    100 CA        -3.2195  -20.7020  -51.6661 C.3       18 UNK         0.1400 
    101 CB        -4.2856  -19.7979  -51.0338 C.3       18 UNK        -0.1800 
    102 C         -3.3273  -20.6785  -53.2026 C.2       18 UNK         0.5000 
    103 O         -2.7040  -19.8287  -53.8360 O.2       18 UNK        -0.5000 
    104 N         -4.0609  -21.6426  -53.7804 N.am      19 UNK        -0.5000 
    105 CA        -4.1681  -21.8403  -55.2269 C.3       19 UNK         0.1400 
    106 CB        -5.3082  -22.8269  -55.5201 C.3       19 UNK        -0.1800 
    107 C         -2.8531  -22.3260  -55.8685 C.2       19 UNK         0.5000 
    108 O         -2.6435  -22.0870  -57.0577 O.2       19 UNK        -0.5000 
    109 N         -1.9910  -22.9827  -55.0784 N.am      20 UNK        -0.5000 
    110 CA        -0.6386  -23.3617  -55.4786 C.3       20 UNK         0.1400 
    111 CB        -0.1980  -24.6232  -54.7190 C.3       20 UNK        -0.1800 
    112 C          0.3386  -22.1978  -55.2465 C.2       20 UNK         0.5000 
    113 O          1.1140  -21.8768  -56.1474 O.2       20 UNK        -0.5000 
    114 N          0.2615  -21.5613  -54.0663 N.am      21 UNK        -0.5000 
    115 CA         1.1152  -20.4380  -53.6597 C.3       21 UNK         0.1400 
    116 CB         0.8076  -20.0551  -52.2040 C.3       21 UNK        -0.1800 
    117 C          1.0004  -19.2077  -54.5814 C.2       21 UNK         0.5000 
    118 O          2.0203  -18.6027  -54.9141 O.2       21 UNK        -0.5000 
    119 N         -0.2290  -18.8941  -55.0042 N.am      22 UNK        -0.5000 
    120 CA        -0.5506  -17.8688  -56.0095 C.3       22 UNK         0.1400 
    121 C         -0.7152  -18.4533  -57.4458 C.2       22 UNK         0.5000 
    122 N         -0.3069  -19.6858  -57.7227 N.am      22 UNK        -0.7600 
    123 O         -1.2016  -17.7701  -58.3430 O.2       22 UNK        -0.5000 
    124 C124       -1.7716  -17.0162  -55.5701 C.3       23 UNK        -0.0398 
    125 S125       -1.3500  -15.8743  -54.2121 S.3       23 UNK        -0.2404 
    126 C126       -2.0166  -16.7332  -52.7551 C.3       23 UNK        -0.0205 
    127 H127       -7.9284  -16.3665  -45.2080 H         1 UNK         0.0600 
    128 H128       -6.9745  -17.5373  -44.2904 H         1 UNK         0.0600 
    129 H129       -6.6783  -17.3152  -46.0171 H         1 UNK         0.0600 
    130 H130       -4.7677  -16.2010  -46.3625 H         1 UNK         0.3000 
    131 H131       -4.2441  -13.6472  -45.0245 H         1 UNK         0.0600 
    132 H132       -2.6961  -15.0279  -47.2527 H         1 UNK         0.0800 
    133 H133       -2.5527  -13.3550  -46.7580 H         1 UNK         0.0800 
    134 H134       -2.8249  -12.2381  -49.0996 H         1 UNK         0.0800 
    135 H135       -3.9732  -12.7715  -50.2964 H         1 UNK         0.0800 
    136 H136       -3.5986  -14.8475  -51.5750 H         1 UNK         0.1150 
    137 H137        0.1868  -16.8268  -51.1539 H         1 UNK         0.1150 
    138 H138       -0.9042  -13.6857  -48.4586 H         1 UNK         0.1150 
    139 H139        1.9110  -15.3674  -49.6576 H         1 UNK         0.0800 
    140 H140        1.2195  -14.6727  -48.2161 H         1 UNK         0.0800 
    141 H141       -0.7518  -16.1639  -47.0733 H         1 UNK         0.0800 
    142 H142        0.0787  -17.2507  -45.9914 H         1 UNK         0.0800 
    143 H143       -1.4208  -18.1327  -48.5041 H         1 UNK         0.0600 
    144 H144        0.3306  -19.5999  -46.7930 H         1 UNK         0.3000 
    145 H145       -0.7814  -22.8371  -47.8809 H         1 UNK         0.0600 
    146 H146        1.7111  -22.9098  -48.1456 H         1 UNK         0.0600 
    147 H147        0.9199  -22.0422  -49.4504 H         1 UNK         0.0600 
    148 H148        1.7511  -21.1465  -48.1871 H         1 UNK         0.0600 
    149 H149        1.0305  -21.9012  -45.8412 H         1 UNK         0.3000 
    150 H150       -1.2614  -22.1985  -43.1407 H         1 UNK         0.0600 
    151 H151       -0.6348  -24.5704  -43.5975 H         1 UNK         0.0600 
    152 H152        0.3718  -23.8757  -42.3374 H         1 UNK         0.0600 
    153 H153        1.0134  -24.0778  -43.9682 H         1 UNK         0.0600 
    154 H154        1.5537  -21.7626  -43.2004 H         1 UNK         0.3000 
    155 H155        1.3832  -18.1812  -43.4582 H         1 UNK         0.0600 
    156 H156        2.2362  -20.1452  -41.2645 H         1 UNK         0.0600 
    157 H157        0.9875  -18.9175  -41.0828 H         1 UNK         0.0600 
    158 H158        2.6496  -18.4332  -41.3735 H         1 UNK         0.0600 
    159 H159        3.7101  -19.5851  -43.2720 H         1 UNK         0.3000 
    160 H160        4.9004  -20.7387  -45.2438 H         1 UNK         0.0600 
    161 H161        4.1768  -18.9807  -47.6508 H         1 UNK         0.0600 
    162 H162        4.0752  -20.7364  -47.5763 H         1 UNK         0.0600 
    163 H163        5.6424  -19.9510  -47.5002 H         1 UNK         0.0600 
    164 H164        5.3842  -17.8991  -45.7906 H         1 UNK         0.3000 
    165 H165        6.2147  -16.9910  -42.5136 H         1 UNK         0.0600 
    166 H166        8.4169  -16.3051  -43.4331 H         1 UNK         0.0600 
    167 H167        8.3881  -18.0399  -43.1628 H         1 UNK         0.0600 
    168 H168        8.2215  -17.4080  -44.7964 H         1 UNK         0.0600 
    169 H169        6.5108  -15.6461  -45.0150 H         1 UNK         0.3000 
    170 H170        5.0068  -13.7281  -45.1910 H         1 UNK         0.0600 
    171 H171        5.2110  -15.4045  -47.0215 H         1 UNK         0.0600 
    172 H172        3.5419  -15.9058  -46.7966 H         1 UNK         0.0600 
    173 H173        3.9100  -14.3015  -47.4247 H         1 UNK         0.0600 
    174 H174        2.3649  -14.5382  -44.3427 H         1 UNK         0.3000 
    175 H175        1.1429  -11.2574  -44.6169 H         1 UNK         0.0600 
    176 H176        0.0375  -13.4962  -46.3724 H         1 UNK         0.0600 
    177 H177       -0.8412  -12.0600  -45.8336 H         1 UNK         0.0600 
    178 H178        0.5123  -11.9005  -46.9413 H         1 UNK         0.0600 
    179 H179       -0.2044  -13.7034  -43.9374 H         1 UNK         0.3000 
    180 H180        0.7853  -14.0960  -40.7516 H         1 UNK         0.0600 
    181 H181       -1.0710  -12.8926  -39.5969 H         1 UNK         0.0600 
    182 H182       -1.2048  -11.7753  -40.9549 H         1 UNK         0.0600 
    183 H183        0.2545  -11.8061  -39.9722 H         1 UNK         0.0600 
    184 H184       -1.8571  -13.8734  -42.0990 H         1 UNK         0.3000 
    185 H185       -1.8596  -17.2522  -43.0551 H         1 UNK         0.0600 
    186 H186       -2.4440  -17.5579  -40.6557 H         1 UNK         0.0600 
    187 H187       -3.3907  -16.0739  -40.6736 H         1 UNK         0.0600 
    188 H188       -3.9038  -17.4624  -41.6283 H         1 UNK         0.0600 
    189 H189       -4.0597  -15.5988  -43.1392 H         1 UNK         0.3000 
    190 H190       -1.8970  -19.4658  -45.2382 H         1 UNK         0.3000 
    191 H191       -4.4667  -18.2980  -44.7652 H         1 UNK         0.0600 
    192 H192       -4.6429  -20.0491  -43.0185 H         1 UNK         0.0600 
    193 H193       -3.0652  -19.2937  -42.9575 H         1 UNK         0.0600 
    194 H194       -3.2490  -20.8868  -43.6828 H         1 UNK         0.0600 
    195 H195       -3.5332  -20.5984  -47.0917 H         1 UNK         0.3000 
    196 H196       -4.5387  -21.8746  -48.5442 H         1 UNK         0.0600 
    197 H197       -7.2630  -20.7791  -47.6848 H         1 UNK         0.0600 
    198 H198       -6.1671  -19.9172  -48.7555 H         1 UNK         0.0600 
    199 H199       -6.8287  -21.4723  -49.2385 H         1 UNK         0.0600 
    200 H200       -3.8789  -23.0346  -46.0387 H         1 UNK         0.3000 
    201 H201       -5.8599  -24.8941  -45.1399 H         1 UNK         0.0600 
    202 H202       -2.8011  -25.1080  -45.0823 H         1 UNK         0.0600 
    203 H203       -3.9265  -26.0531  -44.1177 H         1 UNK         0.0600 
    204 H204       -3.7871  -24.3206  -43.8509 H         1 UNK         0.0600 
    205 H205       -6.7178  -26.5449  -46.2490 H         1 UNK         0.3000 
    206 H206       -7.2322  -28.0132  -47.8179 H         1 UNK         0.0600 
    207 H207       -5.2899  -29.2938  -46.8758 H         1 UNK         0.0600 
    208 H208       -5.5532  -29.6422  -48.5756 H         1 UNK         0.0600 
    209 H209       -4.2344  -28.5837  -48.0966 H         1 UNK         0.0600 
    210 H210       -6.8273  -25.2448  -48.5840 H         1 UNK         0.3000 
    211 H211       -7.0270  -23.8931  -50.2862 H         1 UNK         0.0600 
    212 H212       -7.8059  -24.6520  -52.4783 H         1 UNK         0.0600 
    213 H213       -8.6146  -25.5879  -51.2334 H         1 UNK         0.0600 
    214 H214       -7.2913  -26.2998  -52.1569 H         1 UNK         0.0600 
    215 H215       -4.3226  -25.0218  -49.5085 H         1 UNK         0.3000 
    216 H216       -2.5849  -25.1368  -51.6767 H         1 UNK         0.0600 
    217 H217       -2.1544  -24.3229  -48.7708 H         1 UNK         0.0600 
    218 H218       -0.8249  -24.5992  -49.8971 H         1 UNK         0.0600 
    219 H219       -1.9182  -25.9111  -49.4879 H         1 UNK         0.0600 
    220 H220       -4.1359  -22.2679  -50.5680 H         1 UNK         0.3000 
    221 H221       -2.2421  -20.3030  -51.3940 H         1 UNK         0.0600 
    222 H222       -4.1200  -19.6927  -49.9619 H         1 UNK         0.0600 
    223 H223       -5.2918  -20.1875  -51.1909 H         1 UNK         0.0600 
    224 H224       -4.2503  -18.7944  -51.4598 H         1 UNK         0.0600 
    225 H225       -4.5130  -22.3393  -53.1976 H         1 UNK         0.3000 
    226 H226       -4.4218  -20.8802  -55.6814 H         1 UNK         0.0600 
    227 H227       -5.0979  -23.8168  -55.1135 H         1 UNK         0.0600 
    228 H228       -6.2501  -22.4820  -55.0933 H         1 UNK         0.0600 
    229 H229       -5.4592  -22.9398  -56.5944 H         1 UNK         0.0600 
    230 H230       -2.2230  -23.1044  -54.1022 H         1 UNK         0.3000 
    231 H231       -0.6311  -23.6013  -56.5442 H         1 UNK         0.0600 
    232 H232       -0.1377  -24.4587  -53.6436 H         1 UNK         0.0600 
    233 H233        0.7877  -24.9498  -55.0526 H         1 UNK         0.0600 
    234 H234       -0.8890  -25.4482  -54.8928 H         1 UNK         0.0600 
    235 H235       -0.3865  -21.9144  -53.3684 H         1 UNK         0.3000 
    236 H236        2.1486  -20.7875  -53.7042 H         1 UNK         0.0600 
    237 H237        0.8923  -20.9162  -51.5422 H         1 UNK         0.0600 
    238 H238        1.5038  -19.2964  -51.8445 H         1 UNK         0.0600 
    239 H239       -0.1967  -19.6485  -52.1000 H         1 UNK         0.0600 
    240 H240       -1.0218  -19.4271  -54.6571 H         1 UNK         0.3000 
    241 H241        0.2962  -17.1864  -56.1011 H         1 UNK         0.0600 
    242 H242       -0.4281  -20.0437  -58.6566 H         1 UNK         0.3800 
    243 H243        0.1401  -20.2647  -57.0232 H         1 UNK         0.3800 
    244 H244       -2.6164  -17.6473  -55.2927 H         1 UNK         0.0800 
    245 H245       -2.1260  -16.3889  -56.3894 H         1 UNK         0.0800 
    246 H246       -1.5593  -17.7188  -52.6706 H         1 UNK         0.0800 
    247 H247       -3.0889  -16.8926  -52.8768 H         1 UNK         0.0800 
@<TRIPOS>BOND
     1    1    2 1    
     2    1  127 1    
     3    1  128 1    
     4    1  129 1    
     5    2    3 2    
     6    2    4 am   BACKBONE|DICT|INTERRES
     7    4    5 1    
     8    4  130 1    
     9    5    6 1    
    10    5   65 1    
    11    5  131 1    
    12    6    7 1    
    13    6  132 1    
    14    6  133 1    
    15    7    8 1    
    16    8    9 1    
    17    8  134 1    
    18    8  135 1    
    19    9   10 ar   
    20    9   14 ar   
    21   10   11 ar   
    22   10  136 1    
    23   11   12 ar   
    24   11  126 1    
    25   12   13 ar   
    26   12  137 1    
    27   13   14 ar   
    28   13   15 1    
    29   14  138 1    
    30   15   16 1    
    31   15  139 1    
    32   15  140 1    
    33   16   17 1    
    34   17   18 1    
    35   17  141 1    
    36   17  142 1    
    37   18   19 1    
    38   18   67 1    
    39   18  143 1    
    40   19   20 am   BACKBONE|DICT|INTERRES
    41   19  144 1    
    42   20   21 2    
    43   20   22 1    
    44   22   23 1    
    45   22   24 1    
    46   22  145 1    
    47   23  146 1    
    48   23  147 1    
    49   23  148 1    
    50   24   25 am   BACKBONE|DICT|INTERRES
    51   24  149 1    
    52   25   26 2    
    53   25   27 1    
    54   27   28 1    
    55   27   29 1    
    56   27  150 1    
    57   28  151 1    
    58   28  152 1    
    59   28  153 1    
    60   29   30 am   BACKBONE|DICT|INTERRES
    61   29  154 1    
    62   30   31 2    
    63   30   32 1    
    64   32   33 1    
    65   32   34 1    
    66   32  155 1    
    67   33  156 1    
    68   33  157 1    
    69   33  158 1    
    70   34   35 am   BACKBONE|DICT|INTERRES
    71   34  159 1    
    72   35   36 2    
    73   35   37 1    
    74   37   38 1    
    75   37   39 1    
    76   37  160 1    
    77   38  161 1    
    78   38  162 1    
    79   38  163 1    
    80   39   40 am   BACKBONE|DICT|INTERRES
    81   39  164 1    
    82   40   41 2    
    83   40   42 1    
    84   42   43 1    
    85   42   44 1    
    86   42  165 1    
    87   43  166 1    
    88   43  167 1    
    89   43  168 1    
    90   44   45 am   BACKBONE|DICT|INTERRES
    91   44  169 1    
    92   45   46 2    
    93   45   47 1    
    94   47   48 1    
    95   47   49 1    
    96   47  170 1    
    97   48  171 1    
    98   48  172 1    
    99   48  173 1    
   100   49   50 am   BACKBONE|DICT|INTERRES
   101   49  174 1    
   102   50   51 2    
   103   50   52 1    
   104   52   53 1    
   105   52   54 1    
   106   52  175 1    
   107   53  176 1    
   108   53  177 1    
   109   53  178 1    
   110   54   55 am   BACKBONE|DICT|INTERRES
   111   54  179 1    
   112   55   56 2    
   113   55   57 1    
   114   57   58 1    
   115   57   59 1    
   116   57  180 1    
   117   58  181 1    
   118   58  182 1    
   119   58  183 1    
   120   59   60 am   BACKBONE|DICT|INTERRES
   121   59  184 1    
   122   60   61 2    
   123   60   62 1    
   124   62   63 1    
   125   62   64 1    
   126   62  185 1    
   127   63  186 1    
   128   63  187 1    
   129   63  188 1    
   130   64   65 am   BACKBONE|DICT|INTERRES
   131   64  189 1    
   132   65   66 2    
   133   67   68 2    
   134   67   69 am   BACKBONE|DICT|INTERRES
   135   69   70 1    
   136   69  190 1    
   137   70   71 1    
   138   70   72 1    
   139   70  191 1    
   140   71  192 1    
   141   71  193 1    
   142   71  194 1    
   143   72   73 2    
   144   72   74 am   BACKBONE|DICT|INTERRES
   145   74   75 1    
   146   74  195 1    
   147   75   76 1    
   148   75   77 1    
   149   75  196 1    
   150   76  197 1    
   151   76  198 1    
   152   76  199 1    
   153   77   78 2    
   154   77   79 am   BACKBONE|DICT|INTERRES
   155   79   80 1    
   156   79  200 1    
   157   80   81 1    
   158   80   82 1    
   159   80  201 1    
   160   81  202 1    
   161   81  203 1    
   162   81  204 1    
   163   82   83 2    
   164   82   84 am   BACKBONE|DICT|INTERRES
   165   84   85 1    
   166   84  205 1    
   167   85   86 1    
   168   85   87 1    
   169   85  206 1    
   170   86  207 1    
   171   86  208 1    
   172   86  209 1    
   173   87   88 2    
   174   87   89 am   BACKBONE|DICT|INTERRES
   175   89   90 1    
   176   89  210 1    
   177   90   91 1    
   178   90   92 1    
   179   90  211 1    
   180   91  212 1    
   181   91  213 1    
   182   91  214 1    
   183   92   93 2    
   184   92   94 am   BACKBONE|DICT|INTERRES
   185   94   95 1    
   186   94  215 1    
   187   95   96 1    
   188   95   97 1    
   189   95  216 1    
   190   96  217 1    
   191   96  218 1    
   192   96  219 1    
   193   97   98 2    
   194   97   99 am   BACKBONE|DICT|INTERRES
   195   99  100 1    
   196   99  220 1    
   197  100  101 1    
   198  100  102 1    
   199  100  221 1    
   200  101  222 1    
   201  101  223 1    
   202  101  224 1    
   203  102  103 2    
   204  102  104 am   BACKBONE|DICT|INTERRES
   205  104  105 1    
   206  104  225 1    
   207  105  106 1    
   208  105  107 1    
   209  105  226 1    
   210  106  227 1    
   211  106  228 1    
   212  106  229 1    
   213  107  108 2    
   214  107  109 am   BACKBONE|DICT|INTERRES
   215  109  110 1    
   216  109  230 1    
   217  110  111 1    
   218  110  112 1    
   219  110  231 1    
   220  111  232 1    
   221  111  233 1    
   222  111  234 1    
   223  112  113 2    
   224  112  114 am   BACKBONE|DICT|INTERRES
   225  114  115 1    
   226  114  235 1    
   227  115  116 1    
   228  115  117 1    
   229  115  236 1    
   230  116  237 1    
   231  116  238 1    
   232  116  239 1    
   233  117  118 2    
   234  117  119 am   BACKBONE|DICT|INTERRES
   235  119  120 1    
   236  119  240 1    
   237  120  121 1    
   238  120  124 1    
   239  120  241 1    
   240  121  122 am   BACKBONE|DICT|INTERRES
   241  121  123 2    
   242  122  242 1    
   243  122  243 1    
   244  124  125 1    
   245  124  244 1    
   246  124  245 1    
   247  125  126 1    
   248  126  246 1    
   249  126  247 1    
@<TRIPOS>SUBSTRUCTURE
     1 UNK         1 GROUP             0       ****    0 ROOT    
