@<TRIPOS>MOLECULE
3R540
247   249    1
SMALL
USER_CHARGES


@<TRIPOS>ATOM
      1 CA          1.4464  -14.4577  -49.0489 C.3       0 UNK        -0.1800 
      2 C           1.8078  -13.9965  -47.6464 C.2       0 UNK         0.5000 
      3 O           2.7412  -13.2110  -47.4804 O.2       0 UNK        -0.5000 
      4 N           1.0542  -14.4536  -46.6373 N.am      1 UNK        -0.5000 
      5 CA          1.2506  -14.1567  -45.2093 C.3       1 UNK         0.1400 
      6 C6          0.3862  -15.0524  -44.2853 C.3       23 UNK        -0.0398 
      7 S7         -1.3895  -15.0779  -44.7218 S.3       23 UNK        -0.2404 
      8 C8         -1.6322  -16.8159  -45.2077 C.3       23 UNK        -0.0205 
      9 C9         -0.9534  -17.1504  -46.5273 C.ar      23 UNK        -0.0193 
     10 C10        -1.6031  -16.8871  -47.7352 C.ar      23 UNK        -0.1150 
     11 C11        -1.0041  -17.2270  -48.9511 C.ar      23 UNK        -0.0193 
     12 C12         0.2602  -17.8217  -48.9561 C.ar      23 UNK        -0.1150 
     13 C13         0.9281  -18.0751  -47.7559 C.ar      23 UNK        -0.0193 
     14 C14         0.3140  -17.7396  -46.5449 C.ar      23 UNK        -0.1150 
     15 C15         2.3204  -18.6909  -47.7741 C.3       23 UNK        -0.0205 
     16 S16         2.2889  -20.5007  -47.9908 S.3       23 UNK        -0.2404 
     17 C17         1.5374  -21.0537  -46.4193 C.3       23 UNK        -0.0398 
     18 CA          0.5770  -22.2644  -46.5205 C.3       11 UNK         0.1400 
     19 N          -0.0180  -22.5563  -45.2136 N.am      11 UNK        -0.5000 
     20 C          -0.6364  -23.7018  -44.8920 C.2       10 UNK         0.5000 
     21 O          -0.7201  -24.6634  -45.6533 O.2       10 UNK        -0.5000 
     22 CA         -1.3184  -23.7722  -43.5092 C.3       10 UNK         0.1400 
     23 CB         -0.3436  -24.3224  -42.4581 C.3       10 UNK        -0.1800 
     24 N          -1.8344  -22.4803  -43.0534 N.am      10 UNK        -0.5000 
     25 C          -2.7415  -21.7408  -43.7064 C.2       9 UNK         0.5000 
     26 O          -3.3391  -22.1377  -44.7060 O.2       9 UNK        -0.5000 
     27 CA         -2.9833  -20.3006  -43.2072 C.3       9 UNK         0.1400 
     28 CB         -4.3418  -20.2017  -42.4981 C.3       9 UNK        -0.1800 
     29 N          -1.9437  -19.7548  -42.3233 N.am      9 UNK        -0.5000 
     30 C          -0.6425  -19.6223  -42.6159 C.2       8 UNK         0.5000 
     31 O          -0.1356  -20.0132  -43.6716 O.2       8 UNK        -0.5000 
     32 CA          0.2328  -18.9684  -41.5361 C.3       8 UNK         0.1400 
     33 CB          0.2880  -19.8309  -40.2626 C.3       8 UNK        -0.1800 
     34 N           1.5893  -18.8009  -42.0479 N.am      8 UNK        -0.5000 
     35 C           2.3529  -17.7161  -41.8954 C.2       7 UNK         0.5000 
     36 O           1.9908  -16.6983  -41.3002 O.2       7 UNK        -0.5000 
     37 CA          3.7446  -17.7900  -42.5503 C.3       7 UNK         0.1400 
     38 CB          3.6368  -17.6296  -44.0757 C.3       7 UNK        -0.1800 
     39 N           4.6555  -16.7760  -42.0178 N.am      7 UNK        -0.5000 
     40 C           5.2987  -16.8767  -40.8450 C.2       6 UNK         0.5000 
     41 O           5.2173  -17.8645  -40.1127 O.2       6 UNK        -0.5000 
     42 CA          6.2074  -15.7049  -40.4129 C.3       6 UNK         0.1400 
     43 CB          7.6814  -16.0434  -40.6859 C.3       6 UNK        -0.1800 
     44 N           5.8893  -14.4399  -41.0743 N.am      6 UNK        -0.5000 
     45 C           4.8339  -13.6672  -40.7861 C.2       5 UNK         0.5000 
     46 O           4.0687  -13.8870  -39.8466 O.2       5 UNK        -0.5000 
     47 CA          4.5808  -12.4442  -41.6966 C.3       5 UNK         0.1400 
     48 CB          5.0082  -11.1495  -40.9880 C.3       5 UNK        -0.1800 
     49 N           5.2176  -12.4839  -43.0206 N.am      5 UNK        -0.5000 
     50 C           5.0591  -13.4429  -43.9414 C.2       4 UNK         0.5000 
     51 O           4.4316  -14.4807  -43.7380 O.2       4 UNK        -0.5000 
     52 CA          5.6924  -13.1852  -45.3184 C.3       4 UNK         0.1400 
     53 CB          5.7505  -14.4585  -46.1825 C.3       4 UNK        -0.1800 
     54 N           4.9261  -12.1694  -46.0332 N.am      4 UNK        -0.5000 
     55 C           5.0787  -10.8458  -45.9008 C.2       3 UNK         0.5000 
     56 O           5.9079  -10.3274  -45.1515 O.2       3 UNK        -0.5000 
     57 CA          4.1303   -9.9593  -46.7220 C.3       3 UNK         0.1400 
     58 CB          4.4754  -10.0268  -48.2186 C.3       3 UNK        -0.1800 
     59 N           2.7456  -10.3838  -46.5264 N.am      3 UNK        -0.5000 
     60 C           1.8395   -9.7322  -45.7841 C.2       2 UNK         0.5000 
     61 O           2.0532   -8.6519  -45.2324 O.2       2 UNK        -0.5000 
     62 CA          0.4570  -10.3988  -45.6197 C.3       2 UNK         0.1400 
     63 CB         -0.5278   -9.8618  -46.6693 C.3       2 UNK        -0.1800 
     64 N           0.5087  -11.8577  -45.7202 N.am      2 UNK        -0.5000 
     65 C           1.1165  -12.6623  -44.8372 C.2       1 UNK         0.5000 
     66 O           1.5918  -12.2604  -43.7751 O.2       1 UNK        -0.5000 
     67 C          -0.5163  -22.1089  -47.6039 C.2       11 UNK         0.5000 
     68 O          -0.3754  -22.6693  -48.6912 O.2       11 UNK        -0.5000 
     69 N          -1.6163  -21.4162  -47.2721 N.am      12 UNK        -0.5000 
     70 CA         -2.7847  -21.2673  -48.1447 C.3       12 UNK         0.1400 
     71 CB         -3.7303  -20.2029  -47.5689 C.3       12 UNK        -0.1800 
     72 C          -3.5246  -22.6006  -48.3661 C.2       12 UNK         0.5000 
     73 O          -3.9780  -22.8721  -49.4794 O.2       12 UNK        -0.5000 
     74 N          -3.5958  -23.4273  -47.3132 N.am      13 UNK        -0.5000 
     75 CA         -4.1294  -24.7878  -47.3595 C.3       13 UNK         0.1400 
     76 CB         -4.2761  -25.3385  -45.9337 C.3       13 UNK        -0.1800 
     77 C          -3.2709  -25.7244  -48.2299 C.2       13 UNK         0.5000 
     78 O          -3.8270  -26.4744  -49.0311 O.2       13 UNK        -0.5000 
     79 N          -1.9385  -25.6346  -48.0992 N.am      14 UNK        -0.5000 
     80 CA         -0.9666  -26.3719  -48.9129 C.3       14 UNK         0.1400 
     81 CB          0.4421  -26.1954  -48.3267 C.3       14 UNK        -0.1800 
     82 C          -0.9935  -25.9653  -50.3988 C.2       14 UNK         0.5000 
     83 O          -0.8479  -26.8274  -51.2659 O.2       14 UNK        -0.5000 
     84 N          -1.2231  -24.6720  -50.6671 N.am      15 UNK        -0.5000 
     85 CA         -1.4572  -24.1217  -52.0053 C.3       15 UNK         0.1400 
     86 CB         -1.3301  -22.5898  -51.9467 C.3       15 UNK        -0.1800 
     87 C          -2.8239  -24.5214  -52.6020 C.2       15 UNK         0.5000 
     88 O          -3.0152  -24.3742  -53.8091 O.2       15 UNK        -0.5000 
     89 N          -3.7416  -25.0060  -51.7500 N.am      16 UNK        -0.5000 
     90 CA         -5.1354  -25.3573  -52.0304 C.3       16 UNK         0.1400 
     91 CB         -5.2236  -26.5612  -52.9911 C.3       16 UNK        -0.1800 
     92 C          -5.9427  -24.1380  -52.5114 C.2       16 UNK         0.5000 
     93 O          -6.7145  -24.2442  -53.4651 O.2       16 UNK        -0.5000 
     94 N          -5.7399  -22.9932  -51.8432 N.am      17 UNK        -0.5000 
     95 CA         -6.2323  -21.6689  -52.2340 C.3       17 UNK         0.1400 
     96 CB         -5.7539  -20.6429  -51.1982 C.3       17 UNK        -0.1800 
     97 C          -7.7552  -21.5523  -52.4355 C.2       17 UNK         0.5000 
     98 O          -8.1952  -20.7214  -53.2299 O.2       17 UNK        -0.5000 
     99 N          -8.5266  -22.3860  -51.7266 N.am      18 UNK        -0.5000 
    100 CA        -9.9834  -22.4645  -51.8357 C.3       18 UNK         0.1400 
    101 CB       -10.5325  -23.1744  -50.5884 C.3       18 UNK        -0.1800 
    102 C        -10.4701  -23.1769  -53.1148 C.2       18 UNK         0.5000 
    103 O        -11.6066  -22.9439  -53.5292 O.2       18 UNK        -0.5000 
    104 N         -9.6276  -24.0383  -53.7010 N.am      19 UNK        -0.5000 
    105 CA        -9.9403  -24.8376  -54.8867 C.3       19 UNK         0.1400 
    106 CB        -9.5652  -26.3035  -54.6130 C.3       19 UNK        -0.1800 
    107 C         -9.1984  -24.3175  -56.1281 C.2       19 UNK         0.5000 
    108 O         -9.7988  -24.2255  -57.1999 O.2       19 UNK        -0.5000 
    109 N         -7.9113  -23.9960  -55.9597 N.am      20 UNK        -0.5000 
    110 CA        -7.0198  -23.4660  -56.9832 C.3       20 UNK         0.1400 
    111 CB        -5.6803  -24.2284  -56.9021 C.3       20 UNK        -0.1800 
    112 C         -6.8933  -21.9436  -56.7872 C.2       20 UNK         0.5000 
    113 O         -7.8870  -21.2304  -56.9369 O.2       20 UNK        -0.5000 
    114 N         -5.6895  -21.4683  -56.4569 N.am      21 UNK        -0.5000 
    115 CA        -5.3709  -20.0819  -56.1438 C.3       21 UNK         0.1400 
    116 CB        -5.0148  -19.3203  -57.4317 C.3       21 UNK        -0.1800 
    117 C         -4.2009  -20.0830  -55.1527 C.2       21 UNK         0.5000 
    118 O         -3.4089  -21.0291  -55.1459 O.2       21 UNK        -0.5000 
    119 N         -4.1297  -19.0415  -54.3192 N.am      22 UNK        -0.5000 
    120 CA        -3.0954  -18.8766  -53.2891 C.3       22 UNK         0.1400 
    121 C         -1.6862  -18.5746  -53.8740 C.2       22 UNK         0.5000 
    122 N         -0.6254  -19.0047  -53.2044 N.am      22 UNK        -0.7600 
    123 O         -1.5461  -17.9224  -54.9064 O.2       22 UNK        -0.5000 
    124 C124       -3.5241  -17.8136  -52.2442 C.3       23 UNK        -0.0398 
    125 S125       -2.9611  -18.2516  -50.5696 S.3       23 UNK        -0.2404 
    126 C126       -1.7276  -16.9586  -50.2576 C.3       23 UNK        -0.0205 
    127 H127        2.0529  -15.3189  -49.3286 H         1 UNK         0.0600 
    128 H128        1.6294  -13.6604  -49.7692 H         1 UNK         0.0600 
    129 H129        0.3951  -14.7355  -49.1166 H         1 UNK         0.0600 
    130 H130        0.2928  -15.0882  -46.8386 H         1 UNK         0.3000 
    131 H131        2.2889  -14.4096  -45.0041 H         1 UNK         0.0600 
    132 H132        0.7767  -16.0681  -44.3012 H         1 UNK         0.0800 
    133 H133        0.4817  -14.7429  -43.2425 H         1 UNK         0.0800 
    134 H134       -1.2681  -17.4680  -44.4149 H         1 UNK         0.0800 
    135 H135       -2.7023  -17.0118  -45.2900 H         1 UNK         0.0800 
    136 H136       -2.5849  -16.4345  -47.7300 H         1 UNK         0.1150 
    137 H137        0.7274  -18.0867  -49.8941 H         1 UNK         0.1150 
    138 H138        0.8211  -17.9446  -45.6134 H         1 UNK         0.1150 
    139 H139        2.8952  -18.2525  -48.5912 H         1 UNK         0.0800 
    140 H140        2.8633  -18.4428  -46.8622 H         1 UNK         0.0800 
    141 H141        2.3496  -21.2914  -45.7312 H         1 UNK         0.0800 
    142 H142        1.0086  -20.2207  -45.9659 H         1 UNK         0.0800 
    143 H143        1.1803  -23.1290  -46.8058 H         1 UNK         0.0600 
    144 H144       -0.0235  -21.7929  -44.5439 H         1 UNK         0.3000 
    145 H145       -2.1627  -24.4591  -43.5876 H         1 UNK         0.0600 
    146 H146       -0.8349  -24.4526  -41.4937 H         1 UNK         0.0600 
    147 H147        0.0443  -25.2969  -42.7580 H         1 UNK         0.0600 
    148 H148        0.5101  -23.6588  -42.3141 H         1 UNK         0.0600 
    149 H149       -1.3938  -22.0778  -42.2402 H         1 UNK         0.3000 
    150 H150       -3.0173  -19.6652  -44.0946 H         1 UNK         0.0600 
    151 H151       -4.5797  -19.1692  -42.2418 H         1 UNK         0.0600 
    152 H152       -4.3589  -20.7900  -41.5798 H         1 UNK         0.0600 
    153 H153       -5.1460  -20.5680  -43.1379 H         1 UNK         0.0600 
    154 H154       -2.2680  -19.4216  -41.4267 H         1 UNK         0.3000 
    155 H155       -0.2083  -17.9976  -41.3005 H         1 UNK         0.0600 
    156 H156       -0.6994  -19.9488  -39.8151 H         1 UNK         0.0600 
    157 H157        0.9280  -19.3731  -39.5080 H         1 UNK         0.0600 
    158 H158        0.6788  -20.8283  -40.4688 H         1 UNK         0.0600 
    159 H159        1.9122  -19.5600  -42.6324 H         1 UNK         0.3000 
    160 H160        4.1667  -18.7759  -42.3436 H         1 UNK         0.0600 
    161 H161        3.1495  -16.6955  -44.3532 H         1 UNK         0.0600 
    162 H162        3.0556  -18.4436  -44.5090 H         1 UNK         0.0600 
    163 H163        4.6196  -17.6460  -44.5470 H         1 UNK         0.0600 
    164 H164        4.7039  -15.9057  -42.5415 H         1 UNK         0.3000 
    165 H165        6.0830  -15.5737  -39.3359 H         1 UNK         0.0600 
    166 H166        7.8723  -16.1783  -41.7514 H         1 UNK         0.0600 
    167 H167        8.3415  -15.2555  -40.3225 H         1 UNK         0.0600 
    168 H168        7.9709  -16.9661  -40.1813 H         1 UNK         0.0600 
    169 H169        6.4640  -14.1821  -41.8625 H         1 UNK         0.3000 
    170 H170        3.5031  -12.3986  -41.8622 H         1 UNK         0.0600 
    171 H171        4.5286  -11.0583  -40.0124 H         1 UNK         0.0600 
    172 H172        6.0867  -11.1176  -40.8287 H         1 UNK         0.0600 
    173 H173        4.7271  -10.2706  -41.5688 H         1 UNK         0.0600 
    174 H174        5.7235  -11.6521  -43.2976 H         1 UNK         0.3000 
    175 H175        6.7157  -12.8370  -45.1636 H         1 UNK         0.0600 
    176 H176        4.7556  -14.8573  -46.3857 H         1 UNK         0.0600 
    177 H177        6.2322  -14.2621  -47.1403 H         1 UNK         0.0600 
    178 H178        6.3222  -15.2426  -45.6845 H         1 UNK         0.0600 
    179 H179        4.1863  -12.5219  -46.6372 H         1 UNK         0.3000 
    180 H180        4.2682   -8.9273  -46.3927 H         1 UNK         0.0600 
    181 H181        4.3429  -11.0315  -48.6225 H         1 UNK         0.0600 
    182 H182        5.5115   -9.7349  -48.3941 H         1 UNK         0.0600 
    183 H183        3.8448   -9.3506  -48.7960 H         1 UNK         0.0600 
    184 H184        2.4991  -11.2900  -46.9092 H         1 UNK         0.3000 
    185 H185        0.0789  -10.1389  -44.6288 H         1 UNK         0.0600 
    186 H186       -1.5263  -10.2734  -46.5209 H         1 UNK         0.0600 
    187 H187       -0.6121   -8.7761  -46.6059 H         1 UNK         0.0600 
    188 H188       -0.2093  -10.1077  -47.6832 H         1 UNK         0.0600 
    189 H189        0.1343  -12.2720  -46.5610 H         1 UNK         0.3000 
    190 H190       -1.6857  -21.0211  -46.3468 H         1 UNK         0.3000 
    191 H191       -2.4331  -20.9170  -49.1171 H         1 UNK         0.0600 
    192 H192       -4.5670  -20.0236  -48.2451 H         1 UNK         0.0600 
    193 H193       -3.2161  -19.2520  -47.4334 H         1 UNK         0.0600 
    194 H194       -4.1459  -20.5002  -46.6066 H         1 UNK         0.0600 
    195 H195       -3.2693  -23.0900  -46.4128 H         1 UNK         0.3000 
    196 H196       -5.1251  -24.7374  -47.8052 H         1 UNK         0.0600 
    197 H197       -4.7568  -26.3173  -45.9438 H         1 UNK         0.0600 
    198 H198       -4.8878  -24.6804  -45.3162 H         1 UNK         0.0600 
    199 H199       -3.3100  -25.4554  -45.4444 H         1 UNK         0.0600 
    200 H200       -1.5558  -25.0406  -47.3696 H         1 UNK         0.3000 
    201 H201       -1.2243  -27.4315  -48.8576 H         1 UNK         0.0600 
    202 H202        0.4916  -26.5646  -47.3023 H         1 UNK         0.0600 
    203 H203        0.7482  -25.1492  -48.3209 H         1 UNK         0.0600 
    204 H204        1.1797  -26.7503  -48.9076 H         1 UNK         0.0600 
    205 H205       -1.2403  -24.0115  -49.8957 H         1 UNK         0.3000 
    206 H206       -0.6825  -24.5039  -52.6731 H         1 UNK         0.0600 
    207 H207       -0.3518  -22.2880  -51.5721 H         1 UNK         0.0600 
    208 H208       -1.4503  -22.1493  -52.9376 H         1 UNK         0.0600 
    209 H209       -2.0877  -22.1474  -51.2998 H         1 UNK         0.0600 
    210 H210       -3.4721  -25.0844  -50.7781 H         1 UNK         0.3000 
    211 H211       -5.5745  -25.6600  -51.0791 H         1 UNK         0.0600 
    212 H212       -4.8672  -26.3120  -53.9911 H         1 UNK         0.0600 
    213 H213       -6.2536  -26.9055  -53.0897 H         1 UNK         0.0600 
    214 H214       -4.6343  -27.4013  -52.6236 H         1 UNK         0.0600 
    215 H215       -5.0948  -23.0085  -51.0566 H         1 UNK         0.3000 
    216 H216       -5.7679  -21.4337  -53.1912 H         1 UNK         0.0600 
    217 H217       -6.0517  -19.6318  -51.4773 H         1 UNK         0.0600 
    218 H218       -4.6681  -20.6528  -51.1109 H         1 UNK         0.0600 
    219 H219       -6.1677  -20.8482  -50.2103 H         1 UNK         0.0600 
    220 H220       -8.0785  -23.0327  -51.0944 H         1 UNK         0.3000 
    221 H221      -10.3846  -21.4488  -51.8524 H         1 UNK         0.0600 
    222 H222      -11.6219  -23.2258  -50.6154 H         1 UNK         0.0600 
    223 H223      -10.1578  -24.1957  -50.5089 H         1 UNK         0.0600 
    224 H224      -10.2566  -22.6425  -49.6777 H         1 UNK         0.0600 
    225 H225       -8.6844  -24.1233  -53.3380 H         1 UNK         0.3000 
    226 H226      -11.0103  -24.8031  -55.1019 H         1 UNK         0.0600 
    227 H227      -10.1323  -26.7030  -53.7722 H         1 UNK         0.0600 
    228 H228       -9.7817  -26.9305  -55.4789 H         1 UNK         0.0600 
    229 H229       -8.5046  -26.4142  -54.3834 H         1 UNK         0.0600 
    230 H230       -7.5018  -24.0891  -55.0316 H         1 UNK         0.3000 
    231 H231       -7.4388  -23.6294  -57.9780 H         1 UNK         0.0600 
    232 H232       -4.9750  -23.8726  -57.6542 H         1 UNK         0.0600 
    233 H233       -5.8301  -25.2927  -57.0844 H         1 UNK         0.0600 
    234 H234       -5.2089  -24.1301  -55.9226 H         1 UNK         0.0600 
    235 H235       -4.9219  -22.1102  -56.2983 H         1 UNK         0.3000 
    236 H236       -6.2313  -19.6105  -55.6630 H         1 UNK         0.0600 
    237 H237       -5.8523  -19.3106  -58.1294 H         1 UNK         0.0600 
    238 H238       -4.7601  -18.2823  -57.2149 H         1 UNK         0.0600 
    239 H239       -4.1605  -19.7698  -57.9395 H         1 UNK         0.0600 
    240 H240       -4.7888  -18.2836  -54.4184 H         1 UNK         0.3000 
    241 H241       -3.0298  -19.8446  -52.7870 H         1 UNK         0.0600 
    242 H242       -0.7201  -19.5178  -52.3428 H         1 UNK         0.3800 
    243 H243        0.2939  -18.8079  -53.5676 H         1 UNK         0.3800 
    244 H244       -3.1901  -16.8115  -52.5202 H         1 UNK         0.0800 
    245 H245       -4.6113  -17.7502  -52.1868 H         1 UNK         0.0800 
    246 H246       -1.0173  -16.9182  -51.0849 H         1 UNK         0.0800 
    247 H247       -2.2185  -15.9852  -50.2181 H         1 UNK         0.0800 
@<TRIPOS>BOND
     1    1    2 1    
     2    1  127 1    
     3    1  128 1    
     4    1  129 1    
     5    2    3 2    
     6    2    4 am   BACKBONE|DICT|INTERRES
     7    4    5 1    
     8    4  130 1    
     9    5    6 1    
    10    5   65 1    
    11    5  131 1    
    12    6    7 1    
    13    6  132 1    
    14    6  133 1    
    15    7    8 1    
    16    8    9 1    
    17    8  134 1    
    18    8  135 1    
    19    9   10 ar   
    20    9   14 ar   
    21   10   11 ar   
    22   10  136 1    
    23   11   12 ar   
    24   11  126 1    
    25   12   13 ar   
    26   12  137 1    
    27   13   14 ar   
    28   13   15 1    
    29   14  138 1    
    30   15   16 1    
    31   15  139 1    
    32   15  140 1    
    33   16   17 1    
    34   17   18 1    
    35   17  141 1    
    36   17  142 1    
    37   18   19 1    
    38   18   67 1    
    39   18  143 1    
    40   19   20 am   BACKBONE|DICT|INTERRES
    41   19  144 1    
    42   20   21 2    
    43   20   22 1    
    44   22   23 1    
    45   22   24 1    
    46   22  145 1    
    47   23  146 1    
    48   23  147 1    
    49   23  148 1    
    50   24   25 am   BACKBONE|DICT|INTERRES
    51   24  149 1    
    52   25   26 2    
    53   25   27 1    
    54   27   28 1    
    55   27   29 1    
    56   27  150 1    
    57   28  151 1    
    58   28  152 1    
    59   28  153 1    
    60   29   30 am   BACKBONE|DICT|INTERRES
    61   29  154 1    
    62   30   31 2    
    63   30   32 1    
    64   32   33 1    
    65   32   34 1    
    66   32  155 1    
    67   33  156 1    
    68   33  157 1    
    69   33  158 1    
    70   34   35 am   BACKBONE|DICT|INTERRES
    71   34  159 1    
    72   35   36 2    
    73   35   37 1    
    74   37   38 1    
    75   37   39 1    
    76   37  160 1    
    77   38  161 1    
    78   38  162 1    
    79   38  163 1    
    80   39   40 am   BACKBONE|DICT|INTERRES
    81   39  164 1    
    82   40   41 2    
    83   40   42 1    
    84   42   43 1    
    85   42   44 1    
    86   42  165 1    
    87   43  166 1    
    88   43  167 1    
    89   43  168 1    
    90   44   45 am   BACKBONE|DICT|INTERRES
    91   44  169 1    
    92   45   46 2    
    93   45   47 1    
    94   47   48 1    
    95   47   49 1    
    96   47  170 1    
    97   48  171 1    
    98   48  172 1    
    99   48  173 1    
   100   49   50 am   BACKBONE|DICT|INTERRES
   101   49  174 1    
   102   50   51 2    
   103   50   52 1    
   104   52   53 1    
   105   52   54 1    
   106   52  175 1    
   107   53  176 1    
   108   53  177 1    
   109   53  178 1    
   110   54   55 am   BACKBONE|DICT|INTERRES
   111   54  179 1    
   112   55   56 2    
   113   55   57 1    
   114   57   58 1    
   115   57   59 1    
   116   57  180 1    
   117   58  181 1    
   118   58  182 1    
   119   58  183 1    
   120   59   60 am   BACKBONE|DICT|INTERRES
   121   59  184 1    
   122   60   61 2    
   123   60   62 1    
   124   62   63 1    
   125   62   64 1    
   126   62  185 1    
   127   63  186 1    
   128   63  187 1    
   129   63  188 1    
   130   64   65 am   BACKBONE|DICT|INTERRES
   131   64  189 1    
   132   65   66 2    
   133   67   68 2    
   134   67   69 am   BACKBONE|DICT|INTERRES
   135   69   70 1    
   136   69  190 1    
   137   70   71 1    
   138   70   72 1    
   139   70  191 1    
   140   71  192 1    
   141   71  193 1    
   142   71  194 1    
   143   72   73 2    
   144   72   74 am   BACKBONE|DICT|INTERRES
   145   74   75 1    
   146   74  195 1    
   147   75   76 1    
   148   75   77 1    
   149   75  196 1    
   150   76  197 1    
   151   76  198 1    
   152   76  199 1    
   153   77   78 2    
   154   77   79 am   BACKBONE|DICT|INTERRES
   155   79   80 1    
   156   79  200 1    
   157   80   81 1    
   158   80   82 1    
   159   80  201 1    
   160   81  202 1    
   161   81  203 1    
   162   81  204 1    
   163   82   83 2    
   164   82   84 am   BACKBONE|DICT|INTERRES
   165   84   85 1    
   166   84  205 1    
   167   85   86 1    
   168   85   87 1    
   169   85  206 1    
   170   86  207 1    
   171   86  208 1    
   172   86  209 1    
   173   87   88 2    
   174   87   89 am   BACKBONE|DICT|INTERRES
   175   89   90 1    
   176   89  210 1    
   177   90   91 1    
   178   90   92 1    
   179   90  211 1    
   180   91  212 1    
   181   91  213 1    
   182   91  214 1    
   183   92   93 2    
   184   92   94 am   BACKBONE|DICT|INTERRES
   185   94   95 1    
   186   94  215 1    
   187   95   96 1    
   188   95   97 1    
   189   95  216 1    
   190   96  217 1    
   191   96  218 1    
   192   96  219 1    
   193   97   98 2    
   194   97   99 am   BACKBONE|DICT|INTERRES
   195   99  100 1    
   196   99  220 1    
   197  100  101 1    
   198  100  102 1    
   199  100  221 1    
   200  101  222 1    
   201  101  223 1    
   202  101  224 1    
   203  102  103 2    
   204  102  104 am   BACKBONE|DICT|INTERRES
   205  104  105 1    
   206  104  225 1    
   207  105  106 1    
   208  105  107 1    
   209  105  226 1    
   210  106  227 1    
   211  106  228 1    
   212  106  229 1    
   213  107  108 2    
   214  107  109 am   BACKBONE|DICT|INTERRES
   215  109  110 1    
   216  109  230 1    
   217  110  111 1    
   218  110  112 1    
   219  110  231 1    
   220  111  232 1    
   221  111  233 1    
   222  111  234 1    
   223  112  113 2    
   224  112  114 am   BACKBONE|DICT|INTERRES
   225  114  115 1    
   226  114  235 1    
   227  115  116 1    
   228  115  117 1    
   229  115  236 1    
   230  116  237 1    
   231  116  238 1    
   232  116  239 1    
   233  117  118 2    
   234  117  119 am   BACKBONE|DICT|INTERRES
   235  119  120 1    
   236  119  240 1    
   237  120  121 1    
   238  120  124 1    
   239  120  241 1    
   240  121  122 am   BACKBONE|DICT|INTERRES
   241  121  123 2    
   242  122  242 1    
   243  122  243 1    
   244  124  125 1    
   245  124  244 1    
   246  124  245 1    
   247  125  126 1    
   248  126  246 1    
   249  126  247 1    
@<TRIPOS>SUBSTRUCTURE
     1 UNK         1 GROUP             0       ****    0 ROOT    
