@<TRIPOS>MOLECULE
3R540
247   249    1
SMALL
USER_CHARGES


@<TRIPOS>ATOM
      1 CA          0.6570  -16.0342  -49.8301 C.3       0 UNK        -0.1800 
      2 C           2.0875  -15.5342  -49.7016 C.2       0 UNK         0.5000 
      3 O           2.3299  -14.3285  -49.7661 O.2       0 UNK        -0.5000 
      4 N           3.0376  -16.4536  -49.4975 N.am      1 UNK        -0.5000 
      5 CA          4.4766  -16.1917  -49.3611 C.3       1 UNK         0.1400 
      6 C6          5.3259  -17.4126  -49.8039 C.3       23 UNK        -0.0398 
      7 S7          5.2132  -17.7363  -51.5973 S.3       23 UNK        -0.2404 
      8 C8          4.4887  -19.4049  -51.6552 C.3       23 UNK        -0.0205 
      9 C9          2.9763  -19.3689  -51.5090 C.ar      23 UNK        -0.0193 
     10 C10         2.1797  -19.0447  -52.6088 C.ar      23 UNK        -0.1150 
     11 C11         0.7886  -19.0193  -52.4947 C.ar      23 UNK        -0.0193 
     12 C12         0.1949  -19.3212  -51.2670 C.ar      23 UNK        -0.1150 
     13 C13         0.9762  -19.6356  -50.1504 C.ar      23 UNK        -0.0193 
     14 C14         2.3720  -19.6675  -50.2856 C.ar      23 UNK        -0.1150 
     15 C15         0.2580  -19.9191  -48.8312 C.3       23 UNK        -0.0205 
     16 S16         1.3078  -19.9143  -47.3408 S.3       23 UNK        -0.2404 
     17 C17         1.9453  -21.6243  -47.3437 C.3       23 UNK        -0.0398 
     18 CA          1.2333  -22.5519  -46.3276 C.3       11 UNK         0.1400 
     19 N           1.2380  -21.9817  -44.9777 N.am      11 UNK        -0.5000 
     20 C           1.2745  -22.6821  -43.8391 C.2       10 UNK         0.5000 
     21 O           1.2862  -23.9122  -43.7927 O.2       10 UNK        -0.5000 
     22 CA          1.2866  -21.8659  -42.5337 C.3       10 UNK         0.1400 
     23 CB          2.7303  -21.5864  -42.0882 C.3       10 UNK        -0.1800 
     24 N           0.5548  -20.5974  -42.6267 N.am      10 UNK        -0.5000 
     25 C          -0.7790  -20.5047  -42.7128 C.2       9 UNK         0.5000 
     26 O          -1.5204  -21.4797  -42.8283 O.2       9 UNK        -0.5000 
     27 CA         -1.3798  -19.0893  -42.6303 C.3       9 UNK         0.1400 
     28 CB         -0.9983  -18.4087  -41.3051 C.3       9 UNK        -0.1800 
     29 N          -1.0078  -18.2328  -43.7607 N.am      9 UNK        -0.5000 
     30 C          -1.4562  -18.4124  -45.0141 C.2       8 UNK         0.5000 
     31 O          -2.1642  -19.3634  -45.3430 O.2       8 UNK        -0.5000 
     32 CA         -1.0898  -17.3537  -46.0728 C.3       8 UNK         0.1400 
     33 CB         -2.1826  -17.1868  -47.1465 C.3       8 UNK        -0.1800 
     34 N          -0.8142  -16.0507  -45.4758 N.am      8 UNK        -0.5000 
     35 C           0.2038  -15.2517  -45.8101 C.2       7 UNK         0.5000 
     36 O           1.0842  -15.5751  -46.6071 O.2       7 UNK        -0.5000 
     37 CA          0.3081  -13.8748  -45.1260 C.3       7 UNK         0.1400 
     38 CB          0.1160  -12.7304  -46.1391 C.3       7 UNK        -0.1800 
     39 N          -0.5361  -13.6934  -43.9396 N.am      7 UNK        -0.5000 
     40 C          -1.8710  -13.5935  -43.8502 C.2       6 UNK         0.5000 
     41 O          -2.6275  -13.6587  -44.8182 O.2       6 UNK        -0.5000 
     42 CA         -2.4747  -13.4481  -42.4376 C.3       6 UNK         0.1400 
     43 CB         -3.2232  -14.7322  -42.0474 C.3       6 UNK        -0.1800 
     44 N          -1.4706  -13.1608  -41.4108 N.am      6 UNK        -0.5000 
     45 C          -0.9186  -11.9584  -41.1972 C.2       5 UNK         0.5000 
     46 O          -1.2598  -10.9346  -41.7901 O.2       5 UNK        -0.5000 
     47 CA          0.2269  -11.8944  -40.1669 C.3       5 UNK         0.1400 
     48 CB         -0.3115  -11.4724  -38.7913 C.3       5 UNK        -0.1800 
     49 N           0.9711  -13.1516  -40.0237 N.am      5 UNK        -0.5000 
     50 C           1.7052  -13.7284  -40.9859 C.2       4 UNK         0.5000 
     51 O           1.8184  -13.2570  -42.1195 O.2       4 UNK        -0.5000 
     52 CA          2.4380  -15.0329  -40.6040 C.3       4 UNK         0.1400 
     53 CB          1.5529  -15.9866  -39.7716 C.3       4 UNK        -0.1800 
     54 N           3.0123  -15.7268  -41.7630 N.am      4 UNK        -0.5000 
     55 C           2.3588  -16.3190  -42.7712 C.2       3 UNK         0.5000 
     56 O           1.1307  -16.3942  -42.8614 O.2       3 UNK        -0.5000 
     57 CA          3.2427  -16.9121  -43.8823 C.3       3 UNK         0.1400 
     58 CB          2.6399  -18.1908  -44.4813 C.3       3 UNK        -0.1800 
     59 N           3.4294  -15.9400  -44.9518 N.am      3 UNK        -0.5000 
     60 C           4.2926  -14.9189  -44.9230 C.2       2 UNK         0.5000 
     61 O           5.0602  -14.7070  -43.9817 O.2       2 UNK        -0.5000 
     62 CA          4.2946  -13.9929  -46.1602 C.3       2 UNK         0.1400 
     63 CB          5.5467  -13.0949  -46.2317 C.3       2 UNK        -0.1800 
     64 N           4.1048  -14.7002  -47.4342 N.am      2 UNK        -0.5000 
     65 C           4.8498  -15.6942  -47.9414 C.2       1 UNK         0.5000 
     66 O           5.8003  -16.2012  -47.3427 O.2       1 UNK        -0.5000 
     67 C          -0.1757  -22.9696  -46.8056 C.2       11 UNK         0.5000 
     68 O          -0.2952  -23.4944  -47.9145 O.2       11 UNK        -0.5000 
     69 N          -1.2168  -22.7636  -45.9819 N.am      12 UNK        -0.5000 
     70 CA         -2.6129  -23.0977  -46.2851 C.3       12 UNK         0.1400 
     71 CB         -3.5119  -22.6967  -45.1072 C.3       12 UNK        -0.1800 
     72 C          -2.8460  -24.5785  -46.6346 C.2       12 UNK         0.5000 
     73 O          -3.7319  -24.8703  -47.4354 O.2       12 UNK        -0.5000 
     74 N          -2.0341  -25.4792  -46.0652 N.am      13 UNK        -0.5000 
     75 CA         -2.0510  -26.9120  -46.3626 C.3       13 UNK         0.1400 
     76 CB         -1.1900  -27.6478  -45.3248 C.3       13 UNK        -0.1800 
     77 C          -1.5747  -27.2439  -47.7916 C.2       13 UNK         0.5000 
     78 O          -2.0497  -28.2196  -48.3730 O.2       13 UNK        -0.5000 
     79 N          -0.6573  -26.4304  -48.3328 N.am      14 UNK        -0.5000 
     80 CA         -0.1228  -26.5695  -49.6872 C.3       14 UNK         0.1400 
     81 CB          1.3170  -26.0324  -49.7240 C.3       14 UNK        -0.1800 
     82 C          -1.0014  -25.8366  -50.7138 C.2       14 UNK         0.5000 
     83 O          -1.2413  -26.3657  -51.7992 O.2       14 UNK        -0.5000 
     84 N          -1.4775  -24.6392  -50.3459 N.am      15 UNK        -0.5000 
     85 CA         -2.3129  -23.7762  -51.1853 C.3       15 UNK         0.1400 
     86 CB         -2.1265  -22.3232  -50.7221 C.3       15 UNK        -0.1800 
     87 C          -3.8060  -24.1662  -51.1953 C.2       15 UNK         0.5000 
     88 O          -4.5836  -23.5278  -51.9067 O.2       15 UNK        -0.5000 
     89 N          -4.1872  -25.1688  -50.3889 N.am      16 UNK        -0.5000 
     90 CA         -5.5448  -25.6881  -50.1820 C.3       16 UNK         0.1400 
     91 CB         -6.0488  -26.4120  -51.4469 C.3       16 UNK        -0.1800 
     92 C          -6.5097  -24.5992  -49.6682 C.2       16 UNK         0.5000 
     93 O          -7.5940  -24.4084  -50.2197 O.2       16 UNK        -0.5000 
     94 N          -6.0544  -23.8817  -48.6311 N.am      17 UNK        -0.5000 
     95 CA         -6.6765  -22.7063  -48.0117 C.3       17 UNK         0.1400 
     96 CB         -8.0001  -23.0846  -47.3150 C.3       17 UNK        -0.1800 
     97 C          -6.8167  -21.5201  -48.9911 C.2       17 UNK         0.5000 
     98 O          -7.8032  -20.7846  -48.9312 O.2       17 UNK        -0.5000 
     99 N          -5.8127  -21.3688  -49.8697 N.am      18 UNK        -0.5000 
    100 CA        -5.7211  -20.4037  -50.9696 C.3       18 UNK         0.1400 
    101 CB        -5.6277  -18.9580  -50.4393 C.3       18 UNK        -0.1800 
    102 C         -6.8507  -20.6141  -51.9957 C.2       18 UNK         0.5000 
    103 O         -7.6833  -19.7286  -52.2062 O.2       18 UNK        -0.5000 
    104 N         -6.8744  -21.8141  -52.5920 N.am      19 UNK        -0.5000 
    105 CA        -7.8244  -22.2361  -53.6218 C.3       19 UNK         0.1400 
    106 CB        -7.7440  -23.7632  -53.7828 C.3       19 UNK        -0.1800 
    107 C         -7.5582  -21.5014  -54.9490 C.2       19 UNK         0.5000 
    108 O         -6.8649  -22.0292  -55.8212 O.2       19 UNK        -0.5000 
    109 N         -8.0595  -20.2624  -55.0383 N.am      20 UNK        -0.5000 
    110 CA        -7.8636  -19.2510  -56.0849 C.3       20 UNK         0.1400 
    111 CB        -8.3074  -19.7533  -57.4723 C.3       20 UNK        -0.1800 
    112 C         -6.4320  -18.6831  -56.1128 C.2       20 UNK         0.5000 
    113 O         -6.2658  -17.4618  -56.0975 O.2       20 UNK        -0.5000 
    114 N         -5.4292  -19.5707  -56.1113 N.am      21 UNK        -0.5000 
    115 CA        -4.0046  -19.2704  -55.9955 C.3       21 UNK         0.1400 
    116 CB        -3.2077  -20.5831  -56.0648 C.3       21 UNK        -0.1800 
    117 C         -3.7045  -18.5095  -54.6926 C.2       21 UNK         0.5000 
    118 O         -3.8458  -19.0780  -53.6081 O.2       21 UNK        -0.5000 
    119 N         -3.3312  -17.2330  -54.8379 N.am      22 UNK        -0.5000 
    120 CA        -3.0845  -16.2724  -53.7480 C.3       22 UNK         0.1400 
    121 C         -4.3583  -15.8885  -52.9318 C.2       22 UNK         0.5000 
    122 N         -5.5631  -16.1007  -53.4505 N.am      22 UNK        -0.7600 
    123 O         -4.2595  -15.3592  -51.8284 O.2       22 UNK        -0.5000 
    124 C124       -1.8753  -16.6587  -52.8483 C.3       23 UNK        -0.0398 
    125 S125       -0.3395  -16.8709  -53.8173 S.3       23 UNK        -0.2404 
    126 C126       -0.0633  -18.6664  -53.7024 C.3       23 UNK        -0.0205 
    127 H127        0.4538  -16.3280  -50.8588 H         1 UNK         0.0600 
    128 H128       -0.0494  -15.2544  -49.5452 H         1 UNK         0.0600 
    129 H129        0.4852  -16.8923  -49.1810 H         1 UNK         0.0600 
    130 H130        2.7672  -17.4257  -49.4508 H         1 UNK         0.3000 
    131 H131        4.7334  -15.3678  -50.0306 H         1 UNK         0.0600 
    132 H132        6.3841  -17.2425  -49.5979 H         1 UNK         0.0800 
    133 H133        5.0477  -18.3005  -49.2344 H         1 UNK         0.0800 
    134 H134        4.7433  -19.8606  -52.6133 H         1 UNK         0.0800 
    135 H135        4.9425  -20.0395  -50.8925 H         1 UNK         0.0800 
    136 H136        2.6454  -18.8075  -53.5552 H         1 UNK         0.1150 
    137 H137       -0.8821  -19.3015  -51.1770 H         1 UNK         0.1150 
    138 H138        3.0025  -19.9203  -49.4468 H         1 UNK         0.1150 
    139 H139       -0.5122  -19.1615  -48.6897 H         1 UNK         0.0800 
    140 H140       -0.2661  -20.8709  -48.9027 H         1 UNK         0.0800 
    141 H141        3.0054  -21.5718  -47.0926 H         1 UNK         0.0800 
    142 H142        1.9100  -22.0394  -48.3529 H         1 UNK         0.0800 
    143 H143        1.8106  -23.4787  -46.3020 H         1 UNK         0.0600 
    144 H144        1.2082  -20.9737  -44.9280 H         1 UNK         0.3000 
    145 H145        0.8083  -22.4743  -41.7629 H         1 UNK         0.0600 
    146 H146        2.7555  -21.0405  -41.1448 H         1 UNK         0.0600 
    147 H147        3.2763  -22.5184  -41.9365 H         1 UNK         0.0600 
    148 H148        3.2798  -21.0057  -42.8295 H         1 UNK         0.0600 
    149 H149        1.0919  -19.7501  -42.5238 H         1 UNK         0.3000 
    150 H150       -2.4667  -19.1966  -42.6397 H         1 UNK         0.0600 
    151 H151       -1.3087  -19.0147  -40.4530 H         1 UNK         0.0600 
    152 H152       -1.4811  -17.4386  -41.2023 H         1 UNK         0.0600 
    153 H153        0.0772  -18.2561  -41.2205 H         1 UNK         0.0600 
    154 H154       -0.3822  -17.4571  -43.5595 H         1 UNK         0.3000 
    155 H155       -0.1929  -17.7210  -46.5665 H         1 UNK         0.0600 
    156 H156       -3.1115  -16.8137  -46.7138 H         1 UNK         0.0600 
    157 H157       -1.8694  -16.4856  -47.9201 H         1 UNK         0.0600 
    158 H158       -2.4078  -18.1318  -47.6417 H         1 UNK         0.0600 
    159 H159       -1.4950  -15.7035  -44.8155 H         1 UNK         0.3000 
    160 H160        1.3307  -13.8083  -44.7548 H         1 UNK         0.0600 
    161 H161       -0.8752  -12.7492  -46.5924 H         1 UNK         0.0600 
    162 H162        0.8424  -12.8027  -46.9497 H         1 UNK         0.0600 
    163 H163        0.2528  -11.7580  -45.6661 H         1 UNK         0.0600 
    164 H164       -0.0069  -13.6443  -43.0765 H         1 UNK         0.3000 
    165 H165       -3.1947  -12.6276  -42.4684 H         1 UNK         0.0600 
    166 H166       -3.6643  -14.6486  -41.0539 H         1 UNK         0.0600 
    167 H167       -4.0356  -14.9390  -42.7454 H         1 UNK         0.0600 
    168 H168       -2.5613  -15.5974  -42.0522 H         1 UNK         0.0600 
    169 H169       -1.1333  -13.9449  -40.8722 H         1 UNK         0.3000 
    170 H170        0.9280  -11.1299  -40.5082 H         1 UNK         0.0600 
    171 H171       -1.0003  -12.2136  -38.3839 H         1 UNK         0.0600 
    172 H172        0.4986  -11.3357  -38.0748 H         1 UNK         0.0600 
    173 H173       -0.8490  -10.5253  -38.8555 H         1 UNK         0.0600 
    174 H174        0.9312  -13.5916  -39.1157 H         1 UNK         0.3000 
    175 H175        3.2868  -14.7392  -39.9851 H         1 UNK         0.0600 
    176 H176        2.0262  -16.9606  -39.6463 H         1 UNK         0.0600 
    177 H177        0.5804  -16.1436  -40.2376 H         1 UNK         0.0600 
    178 H178        1.3742  -15.5900  -38.7719 H         1 UNK         0.0600 
    179 H179        4.0168  -15.6486  -41.8493 H         1 UNK         0.3000 
    180 H180        4.2146  -17.1731  -43.4579 H         1 UNK         0.0600 
    181 H181        3.3061  -18.6271  -45.2259 H         1 UNK         0.0600 
    182 H182        1.6826  -17.9992  -44.9640 H         1 UNK         0.0600 
    183 H183        2.4810  -18.9400  -43.7091 H         1 UNK         0.0600 
    184 H184        2.7892  -16.0041  -45.7379 H         1 UNK         0.3000 
    185 H185        3.4298  -13.3384  -46.0468 H         1 UNK         0.0600 
    186 H186        6.4618  -13.6835  -46.3045 H         1 UNK         0.0600 
    187 H187        5.5062  -12.4298  -47.0943 H         1 UNK         0.0600 
    188 H188        5.6306  -12.4667  -45.3441 H         1 UNK         0.0600 
    189 H189        3.3289  -14.3816  -48.0064 H         1 UNK         0.3000 
    190 H190       -1.0487  -22.3198  -45.0889 H         1 UNK         0.3000 
    191 H191       -2.9071  -22.5075  -47.1550 H         1 UNK         0.0600 
    192 H192       -3.4624  -21.6253  -44.9171 H         1 UNK         0.0600 
    193 H193       -4.5561  -22.9407  -45.3053 H         1 UNK         0.0600 
    194 H194       -3.2244  -23.2127  -44.1904 H         1 UNK         0.0600 
    195 H195       -1.3353  -25.1541  -45.4129 H         1 UNK         0.3000 
    196 H196       -3.0795  -27.2666  -46.2668 H         1 UNK         0.0600 
    197 H197       -1.1967  -28.7239  -45.5036 H         1 UNK         0.0600 
    198 H198       -1.5654  -27.4852  -44.3143 H         1 UNK         0.0600 
    199 H199       -0.1514  -27.3159  -45.3550 H         1 UNK         0.0600 
    200 H200       -0.3684  -25.6081  -47.8186 H         1 UNK         0.3000 
    201 H201       -0.0928  -27.6266  -49.9606 H         1 UNK         0.0600 
    202 H202        1.9558  -26.5718  -49.0245 H         1 UNK         0.0600 
    203 H203        1.3640  -24.9726  -49.4711 H         1 UNK         0.0600 
    204 H204        1.7508  -26.1507  -50.7177 H         1 UNK         0.0600 
    205 H205       -1.1894  -24.2596  -49.4484 H         1 UNK         0.3000 
    206 H206       -1.9606  -23.8446  -52.2166 H         1 UNK         0.0600 
    207 H207       -1.0762  -22.0380  -50.7728 H         1 UNK         0.0600 
    208 H208       -2.6732  -21.6304  -51.3619 H         1 UNK         0.0600 
    209 H209       -2.4682  -22.1763  -49.6970 H         1 UNK         0.0600 
    210 H210       -3.4761  -25.5749  -49.7970 H         1 UNK         0.3000 
    211 H211       -5.4736  -26.4305  -49.3857 H         1 UNK         0.0600 
    212 H212       -6.1278  -25.7362  -52.2973 H         1 UNK         0.0600 
    213 H213       -7.0338  -26.8503  -51.2824 H         1 UNK         0.0600 
    214 H214       -5.3760  -27.2221  -51.7279 H         1 UNK         0.0600 
    215 H215       -5.1621  -24.1711  -48.2318 H         1 UNK         0.3000 
    216 H216       -5.9855  -22.3719  -47.2374 H         1 UNK         0.0600 
    217 H217       -8.3882  -22.2479  -46.7331 H         1 UNK         0.0600 
    218 H218       -7.8586  -23.9184  -46.6273 H         1 UNK         0.0600 
    219 H219       -8.7705  -23.3677  -48.0326 H         1 UNK         0.0600 
    220 H220       -5.0903  -22.0729  -49.8593 H         1 UNK         0.3000 
    221 H221       -4.7893  -20.6145  -51.4946 H         1 UNK         0.0600 
    222 H222       -6.5352  -18.6500  -49.9200 H         1 UNK         0.0600 
    223 H223       -4.7900  -18.8436  -49.7515 H         1 UNK         0.0600 
    224 H224       -5.4699  -18.2585  -51.2608 H         1 UNK         0.0600 
    225 H225       -6.1405  -22.4797  -52.3618 H         1 UNK         0.3000 
    226 H226       -8.8347  -21.9879  -53.2901 H         1 UNK         0.0600 
    227 H227       -8.0457  -24.2702  -52.8670 H         1 UNK         0.0600 
    228 H228       -8.4075  -24.1090  -54.5763 H         1 UNK         0.0600 
    229 H229       -6.7334  -24.0898  -54.0315 H         1 UNK         0.0600 
    230 H230       -8.4973  -19.9069  -54.1955 H         1 UNK         0.3000 
    231 H231       -8.5221  -18.4237  -55.8157 H         1 UNK         0.0600 
    232 H232       -7.6709  -20.5562  -57.8444 H         1 UNK         0.0600 
    233 H233       -8.2686  -18.9460  -58.2046 H         1 UNK         0.0600 
    234 H234       -9.3330  -20.1215  -57.4484 H         1 UNK         0.0600 
    235 H235       -5.6895  -20.5525  -56.0913 H         1 UNK         0.3000 
    236 H236       -3.7200  -18.6519  -56.8490 H         1 UNK         0.0600 
    237 H237       -3.3722  -21.0947  -57.0132 H         1 UNK         0.0600 
    238 H238       -2.1370  -20.3945  -55.9772 H         1 UNK         0.0600 
    239 H239       -3.4881  -21.2677  -55.2627 H         1 UNK         0.0600 
    240 H240       -3.2750  -16.8491  -55.7701 H         1 UNK         0.3000 
    241 H241       -2.8116  -15.3440  -54.2506 H         1 UNK         0.0600 
    242 H242       -5.6704  -16.5214  -54.3665 H         1 UNK         0.3800 
    243 H243       -6.3799  -15.8382  -52.9229 H         1 UNK         0.3800 
    244 H244       -1.6848  -15.8742  -52.1146 H         1 UNK         0.0800 
    245 H245       -2.0932  -17.5582  -52.2727 H         1 UNK         0.0800 
    246 H246       -1.0129  -19.2010  -53.6679 H         1 UNK         0.0800 
    247 H247        0.4357  -19.0008  -54.6131 H         1 UNK         0.0800 
@<TRIPOS>BOND
     1    1    2 1    
     2    1  127 1    
     3    1  128 1    
     4    1  129 1    
     5    2    3 2    
     6    2    4 am   BACKBONE|DICT|INTERRES
     7    4    5 1    
     8    4  130 1    
     9    5    6 1    
    10    5   65 1    
    11    5  131 1    
    12    6    7 1    
    13    6  132 1    
    14    6  133 1    
    15    7    8 1    
    16    8    9 1    
    17    8  134 1    
    18    8  135 1    
    19    9   10 ar   
    20    9   14 ar   
    21   10   11 ar   
    22   10  136 1    
    23   11   12 ar   
    24   11  126 1    
    25   12   13 ar   
    26   12  137 1    
    27   13   14 ar   
    28   13   15 1    
    29   14  138 1    
    30   15   16 1    
    31   15  139 1    
    32   15  140 1    
    33   16   17 1    
    34   17   18 1    
    35   17  141 1    
    36   17  142 1    
    37   18   19 1    
    38   18   67 1    
    39   18  143 1    
    40   19   20 am   BACKBONE|DICT|INTERRES
    41   19  144 1    
    42   20   21 2    
    43   20   22 1    
    44   22   23 1    
    45   22   24 1    
    46   22  145 1    
    47   23  146 1    
    48   23  147 1    
    49   23  148 1    
    50   24   25 am   BACKBONE|DICT|INTERRES
    51   24  149 1    
    52   25   26 2    
    53   25   27 1    
    54   27   28 1    
    55   27   29 1    
    56   27  150 1    
    57   28  151 1    
    58   28  152 1    
    59   28  153 1    
    60   29   30 am   BACKBONE|DICT|INTERRES
    61   29  154 1    
    62   30   31 2    
    63   30   32 1    
    64   32   33 1    
    65   32   34 1    
    66   32  155 1    
    67   33  156 1    
    68   33  157 1    
    69   33  158 1    
    70   34   35 am   BACKBONE|DICT|INTERRES
    71   34  159 1    
    72   35   36 2    
    73   35   37 1    
    74   37   38 1    
    75   37   39 1    
    76   37  160 1    
    77   38  161 1    
    78   38  162 1    
    79   38  163 1    
    80   39   40 am   BACKBONE|DICT|INTERRES
    81   39  164 1    
    82   40   41 2    
    83   40   42 1    
    84   42   43 1    
    85   42   44 1    
    86   42  165 1    
    87   43  166 1    
    88   43  167 1    
    89   43  168 1    
    90   44   45 am   BACKBONE|DICT|INTERRES
    91   44  169 1    
    92   45   46 2    
    93   45   47 1    
    94   47   48 1    
    95   47   49 1    
    96   47  170 1    
    97   48  171 1    
    98   48  172 1    
    99   48  173 1    
   100   49   50 am   BACKBONE|DICT|INTERRES
   101   49  174 1    
   102   50   51 2    
   103   50   52 1    
   104   52   53 1    
   105   52   54 1    
   106   52  175 1    
   107   53  176 1    
   108   53  177 1    
   109   53  178 1    
   110   54   55 am   BACKBONE|DICT|INTERRES
   111   54  179 1    
   112   55   56 2    
   113   55   57 1    
   114   57   58 1    
   115   57   59 1    
   116   57  180 1    
   117   58  181 1    
   118   58  182 1    
   119   58  183 1    
   120   59   60 am   BACKBONE|DICT|INTERRES
   121   59  184 1    
   122   60   61 2    
   123   60   62 1    
   124   62   63 1    
   125   62   64 1    
   126   62  185 1    
   127   63  186 1    
   128   63  187 1    
   129   63  188 1    
   130   64   65 am   BACKBONE|DICT|INTERRES
   131   64  189 1    
   132   65   66 2    
   133   67   68 2    
   134   67   69 am   BACKBONE|DICT|INTERRES
   135   69   70 1    
   136   69  190 1    
   137   70   71 1    
   138   70   72 1    
   139   70  191 1    
   140   71  192 1    
   141   71  193 1    
   142   71  194 1    
   143   72   73 2    
   144   72   74 am   BACKBONE|DICT|INTERRES
   145   74   75 1    
   146   74  195 1    
   147   75   76 1    
   148   75   77 1    
   149   75  196 1    
   150   76  197 1    
   151   76  198 1    
   152   76  199 1    
   153   77   78 2    
   154   77   79 am   BACKBONE|DICT|INTERRES
   155   79   80 1    
   156   79  200 1    
   157   80   81 1    
   158   80   82 1    
   159   80  201 1    
   160   81  202 1    
   161   81  203 1    
   162   81  204 1    
   163   82   83 2    
   164   82   84 am   BACKBONE|DICT|INTERRES
   165   84   85 1    
   166   84  205 1    
   167   85   86 1    
   168   85   87 1    
   169   85  206 1    
   170   86  207 1    
   171   86  208 1    
   172   86  209 1    
   173   87   88 2    
   174   87   89 am   BACKBONE|DICT|INTERRES
   175   89   90 1    
   176   89  210 1    
   177   90   91 1    
   178   90   92 1    
   179   90  211 1    
   180   91  212 1    
   181   91  213 1    
   182   91  214 1    
   183   92   93 2    
   184   92   94 am   BACKBONE|DICT|INTERRES
   185   94   95 1    
   186   94  215 1    
   187   95   96 1    
   188   95   97 1    
   189   95  216 1    
   190   96  217 1    
   191   96  218 1    
   192   96  219 1    
   193   97   98 2    
   194   97   99 am   BACKBONE|DICT|INTERRES
   195   99  100 1    
   196   99  220 1    
   197  100  101 1    
   198  100  102 1    
   199  100  221 1    
   200  101  222 1    
   201  101  223 1    
   202  101  224 1    
   203  102  103 2    
   204  102  104 am   BACKBONE|DICT|INTERRES
   205  104  105 1    
   206  104  225 1    
   207  105  106 1    
   208  105  107 1    
   209  105  226 1    
   210  106  227 1    
   211  106  228 1    
   212  106  229 1    
   213  107  108 2    
   214  107  109 am   BACKBONE|DICT|INTERRES
   215  109  110 1    
   216  109  230 1    
   217  110  111 1    
   218  110  112 1    
   219  110  231 1    
   220  111  232 1    
   221  111  233 1    
   222  111  234 1    
   223  112  113 2    
   224  112  114 am   BACKBONE|DICT|INTERRES
   225  114  115 1    
   226  114  235 1    
   227  115  116 1    
   228  115  117 1    
   229  115  236 1    
   230  116  237 1    
   231  116  238 1    
   232  116  239 1    
   233  117  118 2    
   234  117  119 am   BACKBONE|DICT|INTERRES
   235  119  120 1    
   236  119  240 1    
   237  120  121 1    
   238  120  124 1    
   239  120  241 1    
   240  121  122 am   BACKBONE|DICT|INTERRES
   241  121  123 2    
   242  122  242 1    
   243  122  243 1    
   244  124  125 1    
   245  124  244 1    
   246  124  245 1    
   247  125  126 1    
   248  126  246 1    
   249  126  247 1    
@<TRIPOS>SUBSTRUCTURE
     1 UNK         1 GROUP             0       ****    0 ROOT    
