@<TRIPOS>MOLECULE
3R540
247   249    1
SMALL
USER_CHARGES


@<TRIPOS>ATOM
      1 CA          2.0434   -8.9087  -48.6609 C.3       0 UNK        -0.1800 
      2 C           2.1163  -10.3087  -48.0708 C.2       0 UNK         0.5000 
      3 O           3.2042  -10.7759  -47.7343 O.2       0 UNK        -0.5000 
      4 N           0.9641  -10.9765  -47.9237 N.am      1 UNK        -0.5000 
      5 CA          0.8431  -12.3502  -47.4140 C.3       1 UNK         0.1400 
      6 C6         -0.5956  -12.9047  -47.5401 C.3       23 UNK        -0.0398 
      7 S7         -1.1832  -12.9230  -49.2621 S.3       23 UNK        -0.2404 
      8 C8         -2.8239  -13.6930  -49.0583 C.3       23 UNK        -0.0205 
      9 C9         -2.7779  -15.2036  -48.8436 C.ar      23 UNK        -0.0193 
     10 C10        -2.0044  -16.0197  -49.6758 C.ar      23 UNK        -0.1150 
     11 C11        -2.0312  -17.4108  -49.5412 C.ar      23 UNK        -0.0193 
     12 C12        -2.8346  -17.9876  -48.5540 C.ar      23 UNK        -0.1150 
     13 C13        -3.6200  -17.1870  -47.7190 C.ar      23 UNK        -0.0193 
     14 C14        -3.5782  -15.7960  -47.8607 C.ar      23 UNK        -0.1150 
     15 C15        -4.5585  -17.8326  -46.7102 C.3       23 UNK        -0.0205 
     16 S16        -3.7063  -18.2449  -45.1566 S.3       23 UNK        -0.2404 
     17 C17        -4.3787  -19.9027  -44.8175 C.3       23 UNK        -0.0398 
     18 CA         -3.5652  -21.0154  -45.5222 C.3       11 UNK         0.1400 
     19 N          -2.2038  -21.1559  -44.9875 N.am      11 UNK        -0.5000 
     20 C          -1.2541  -21.9340  -45.5322 C.2       10 UNK         0.5000 
     21 O          -1.4235  -22.5814  -46.5621 O.2       10 UNK        -0.5000 
     22 CA          0.0784  -22.1051  -44.7754 C.3       10 UNK         0.1400 
     23 CB          1.1551  -21.1641  -45.3335 C.3       10 UNK        -0.1800 
     24 N          -0.0233  -21.9166  -43.3290 N.am      10 UNK        -0.5000 
     25 C          -0.8475  -22.5748  -42.5006 C.2       9 UNK         0.5000 
     26 O          -1.5728  -23.5049  -42.8569 O.2       9 UNK        -0.5000 
     27 CA         -0.9268  -22.0549  -41.0500 C.3       9 UNK         0.1400 
     28 CB         -0.0406  -22.9059  -40.1290 C.3       9 UNK        -0.1800 
     29 N          -0.5568  -20.6393  -40.9047 N.am      9 UNK        -0.5000 
     30 C          -1.1571  -19.6148  -41.5292 C.2       8 UNK         0.5000 
     31 O          -2.1236  -19.7612  -42.2815 O.2       8 UNK        -0.5000 
     32 CA         -0.5576  -18.2114  -41.3290 C.3       8 UNK         0.1400 
     33 CB          0.9628  -18.2240  -41.0551 C.3       8 UNK        -0.1800 
     34 N          -0.8376  -17.4271  -42.5256 N.am      8 UNK        -0.5000 
     35 C          -0.8655  -16.0973  -42.6207 C.2       7 UNK         0.5000 
     36 O          -0.6449  -15.3375  -41.6756 O.2       7 UNK        -0.5000 
     37 CA         -1.1460  -15.5368  -44.0288 C.3       7 UNK         0.1400 
     38 CB         -1.4540  -14.0298  -44.0149 C.3       7 UNK        -0.1800 
     39 N          -0.0161  -15.7972  -44.9219 N.am      7 UNK        -0.5000 
     40 C           0.2532  -16.9739  -45.5093 C.2       6 UNK         0.5000 
     41 O          -0.4593  -17.9699  -45.4073 O.2       6 UNK        -0.5000 
     42 CA          1.5689  -17.0716  -46.2977 C.3       6 UNK         0.1400 
     43 CB          1.3809  -16.5820  -47.7415 C.3       6 UNK        -0.1800 
     44 N           2.6212  -16.2912  -45.6557 N.am      6 UNK        -0.5000 
     45 C           3.3272  -16.6771  -44.5854 C.2       5 UNK         0.5000 
     46 O           3.2401  -17.7969  -44.0794 O.2       5 UNK        -0.5000 
     47 CA          4.2657  -15.6149  -43.9710 C.3       5 UNK         0.1400 
     48 CB          5.4644  -16.2280  -43.2182 C.3       5 UNK        -0.1800 
     49 N           4.7024  -14.6034  -44.9415 N.am      5 UNK        -0.5000 
     50 C           5.4682  -14.7825  -46.0295 C.2       4 UNK         0.5000 
     51 O           5.9959  -15.8531  -46.3318 O.2       4 UNK        -0.5000 
     52 CA          5.6499  -13.5682  -46.9643 C.3       4 UNK         0.1400 
     53 CB          4.8209  -13.7606  -48.2441 C.3       4 UNK        -0.1800 
     54 N           5.2678  -12.2947  -46.3510 N.am      4 UNK        -0.5000 
     55 C           5.9664  -11.6550  -45.4034 C.2       3 UNK         0.5000 
     56 O           7.0550  -12.0396  -44.9753 O.2       3 UNK        -0.5000 
     57 CA          5.3136  -10.3947  -44.8089 C.3       3 UNK         0.1400 
     58 CB          5.6177   -9.1602  -45.6716 C.3       3 UNK        -0.1800 
     59 N           3.8638  -10.5454  -44.6648 N.am      3 UNK        -0.5000 
     60 C           3.2681  -11.3003  -43.7305 C.2       2 UNK         0.5000 
     61 O           3.8801  -11.9363  -42.8729 O.2       2 UNK        -0.5000 
     62 CA          1.7319  -11.3867  -43.7836 C.3       2 UNK         0.1400 
     63 CB          1.0928  -10.1995  -43.0486 C.3       2 UNK        -0.1800 
     64 N           1.2223  -11.4390  -45.1545 N.am      2 UNK        -0.5000 
     65 C           1.3427  -12.5010  -45.9628 C.2       1 UNK         0.5000 
     66 O           1.8378  -13.5704  -45.6081 O.2       1 UNK        -0.5000 
     67 C          -4.3607  -22.3408  -45.5165 C.2       11 UNK         0.5000 
     68 O          -5.2752  -22.4891  -46.3276 O.2       11 UNK        -0.5000 
     69 N          -4.0036  -23.2730  -44.6230 N.am      12 UNK        -0.5000 
     70 CA         -4.5563  -24.6238  -44.5745 C.3       12 UNK         0.1400 
     71 CB         -4.9105  -24.9678  -43.1189 C.3       12 UNK        -0.1800 
     72 C          -3.5626  -25.6511  -45.1418 C.2       12 UNK         0.5000 
     73 O          -3.9818  -26.5713  -45.8444 O.2       12 UNK        -0.5000 
     74 N          -2.2748  -25.5025  -44.8004 N.am      13 UNK        -0.5000 
     75 CA         -1.2373  -26.4942  -45.0777 C.3       13 UNK         0.1400 
     76 CB         -0.0610  -26.2766  -44.1130 C.3       13 UNK        -0.1800 
     77 C          -0.7433  -26.5245  -46.5357 C.2       13 UNK         0.5000 
     78 O          -0.3489  -27.5966  -46.9984 O.2       13 UNK        -0.5000 
     79 N          -0.7336  -25.3782  -47.2320 N.am      14 UNK        -0.5000 
     80 CA         -0.2383  -25.2891  -48.6064 C.3       14 UNK         0.1400 
     81 CB          0.1903  -23.8482  -48.9260 C.3       14 UNK        -0.1800 
     82 C          -1.2992  -25.7633  -49.6102 C.2       14 UNK         0.5000 
     83 O          -2.4636  -25.3679  -49.5108 O.2       14 UNK        -0.5000 
     84 N          -0.8618  -26.5476  -50.6039 N.am      15 UNK        -0.5000 
     85 CA         -1.6963  -27.0287  -51.7075 C.3       15 UNK         0.1400 
     86 CB         -0.9031  -28.0419  -52.5456 C.3       15 UNK        -0.1800 
     87 C          -2.2248  -25.8865  -52.5939 C.2       15 UNK         0.5000 
     88 O          -3.3621  -25.9553  -53.0562 O.2       15 UNK        -0.5000 
     89 N          -1.4111  -24.8346  -52.7701 N.am      16 UNK        -0.5000 
     90 CA         -1.7812  -23.6121  -53.4835 C.3       16 UNK         0.1400 
     91 CB         -0.5435  -22.7195  -53.6561 C.3       16 UNK        -0.1800 
     92 C          -2.9077  -22.8349  -52.7822 C.2       16 UNK         0.5000 
     93 O          -3.7872  -22.3071  -53.4601 O.2       16 UNK        -0.5000 
     94 N          -2.8861  -22.8053  -51.4431 N.am      17 UNK        -0.5000 
     95 CA         -3.9232  -22.1695  -50.6335 C.3       17 UNK         0.1400 
     96 CB         -3.4097  -21.9398  -49.2091 C.3       17 UNK        -0.1800 
     97 C          -5.2242  -22.9859  -50.6305 C.2       17 UNK         0.5000 
     98 O          -6.3006  -22.4019  -50.7523 O.2       17 UNK        -0.5000 
     99 N          -5.1010  -24.3194  -50.5561 N.am      18 UNK        -0.5000 
    100 CA        -6.2159  -25.2640  -50.6576 C.3       18 UNK         0.1400 
    101 CB        -5.7129  -26.6813  -50.3457 C.3       18 UNK        -0.1800 
    102 C         -6.9174  -25.2167  -52.0307 C.2       18 UNK         0.5000 
    103 O         -8.1451  -25.2906  -52.0905 O.2       18 UNK        -0.5000 
    104 N         -6.1288  -25.0568  -53.1022 N.am      19 UNK        -0.5000 
    105 CA        -6.6006  -24.8773  -54.4770 C.3       19 UNK         0.1400 
    106 CB        -5.4480  -25.2116  -55.4379 C.3       19 UNK        -0.1800 
    107 C         -7.1347  -23.4599  -54.7709 C.2       19 UNK         0.5000 
    108 O         -7.7656  -23.2671  -55.8111 O.2       19 UNK        -0.5000 
    109 N         -6.8525  -22.4982  -53.8781 N.am      20 UNK        -0.5000 
    110 CA        -7.1132  -21.0587  -54.0000 C.3       20 UNK         0.1400 
    111 CB        -8.6280  -20.7664  -54.0000 C.3       20 UNK        -0.1800 
    112 C         -6.3652  -20.4234  -55.1938 C.2       20 UNK         0.5000 
    113 O         -6.9070  -19.5613  -55.8878 O.2       20 UNK        -0.5000 
    114 N         -5.1246  -20.8769  -55.4089 N.am      21 UNK        -0.5000 
    115 CA        -4.2274  -20.4477  -56.4802 C.3       21 UNK         0.1400 
    116 CB        -3.3441  -21.6419  -56.8780 C.3       21 UNK        -0.1800 
    117 C         -3.3570  -19.2391  -56.0828 C.2       21 UNK         0.5000 
    118 O         -2.6953  -18.6709  -56.9531 O.2       21 UNK        -0.5000 
    119 N         -3.3546  -18.8768  -54.7919 N.am      22 UNK        -0.5000 
    120 CA        -2.6534  -17.7139  -54.2232 C.3       22 UNK         0.1400 
    121 C         -3.0671  -16.3669  -54.8840 C.2       22 UNK         0.5000 
    122 N         -2.1165  -15.4835  -55.1579 N.am      22 UNK        -0.7600 
    123 O         -4.2460  -16.0985  -55.1053 O.2       22 UNK        -0.5000 
    124 C124       -2.8608  -17.6201  -52.6908 C.3       23 UNK        -0.0398 
    125 S125       -2.2197  -19.0653  -51.7762 S.3       23 UNK        -0.2404 
    126 C126       -1.2051  -18.2885  -50.4734 C.3       23 UNK        -0.0205 
    127 H127        1.0180   -8.6180  -48.8901 H         1 UNK         0.0600 
    128 H128        2.6256   -8.8607  -49.5810 H         1 UNK         0.0600 
    129 H129        2.4548   -8.1843  -47.9578 H         1 UNK         0.0600 
    130 H130        0.1020  -10.5495  -48.2324 H         1 UNK         0.3000 
    131 H131        1.4925  -12.9741  -48.0311 H         1 UNK         0.0600 
    132 H132       -0.6509  -13.9266  -47.1608 H         1 UNK         0.0800 
    133 H133       -1.2900  -12.3101  -46.9440 H         1 UNK         0.0800 
    134 H134       -3.3498  -13.1988  -48.2399 H         1 UNK         0.0800 
    135 H135       -3.4086  -13.4978  -49.9580 H         1 UNK         0.0800 
    136 H136       -1.3951  -15.5690  -50.4463 H         1 UNK         0.1150 
    137 H137       -2.8661  -19.0624  -48.4511 H         1 UNK         0.1150 
    138 H138       -4.1973  -15.1774  -47.2263 H         1 UNK         0.1150 
    139 H139       -5.3971  -17.1706  -46.4895 H         1 UNK         0.0800 
    140 H140       -4.9917  -18.7287  -47.1569 H         1 UNK         0.0800 
    141 H141       -5.4254  -19.9153  -45.1283 H         1 UNK         0.0800 
    142 H142       -4.3866  -20.0616  -43.7382 H         1 UNK         0.0800 
    143 H143       -3.4553  -20.7285  -46.5680 H         1 UNK         0.0600 
    144 H144       -2.0085  -20.6514  -44.1293 H         1 UNK         0.3000 
    145 H145        0.4108  -23.1285  -44.9509 H         1 UNK         0.0600 
    146 H146        2.1392  -21.4129  -44.9364 H         1 UNK         0.0600 
    147 H147        1.2163  -21.2337  -46.4205 H         1 UNK         0.0600 
    148 H148        0.9486  -20.1254  -45.0798 H         1 UNK         0.0600 
    149 H149        0.5269  -21.1662  -42.9396 H         1 UNK         0.3000 
    150 H150       -1.9637  -22.1615  -40.7253 H         1 UNK         0.0600 
    151 H151        1.0147  -22.8156  -40.3897 H         1 UNK         0.0600 
    152 H152       -0.1566  -22.6108  -39.0860 H         1 UNK         0.0600 
    153 H153       -0.3065  -23.9618  -40.1976 H         1 UNK         0.0600 
    154 H154        0.2336  -20.4433  -40.3076 H         1 UNK         0.3000 
    155 H155       -1.0728  -17.7586  -40.4798 H         1 UNK         0.0600 
    156 H156        1.5101  -18.7261  -41.8542 H         1 UNK         0.0600 
    157 H157        1.1983  -18.7271  -40.1171 H         1 UNK         0.0600 
    158 H158        1.3595  -17.2119  -40.9739 H         1 UNK         0.0600 
    159 H159       -1.0487  -17.9696  -43.3584 H         1 UNK         0.3000 
    160 H160       -2.0300  -16.0423  -44.4179 H         1 UNK         0.0600 
    161 H161       -0.5925  -13.4425  -43.7002 H         1 UNK         0.0600 
    162 H162       -2.2712  -13.8061  -43.3281 H         1 UNK         0.0600 
    163 H163       -1.7636  -13.6829  -44.9989 H         1 UNK         0.0600 
    164 H164        0.6601  -15.0487  -45.0243 H         1 UNK         0.3000 
    165 H165        1.8719  -18.1203  -46.3290 H         1 UNK         0.0600 
    166 H166        0.6097  -17.1619  -48.2486 H         1 UNK         0.0600 
    167 H167        1.0828  -15.5346  -47.7805 H         1 UNK         0.0600 
    168 H168        2.3006  -16.6895  -48.3167 H         1 UNK         0.0600 
    169 H169        2.6968  -15.3198  -45.9354 H         1 UNK         0.3000 
    170 H170        3.6623  -15.0775  -43.2380 H         1 UNK         0.0600 
    171 H171        5.1266  -16.8487  -42.3876 H         1 UNK         0.0600 
    172 H172        6.0739  -16.8574  -43.8668 H         1 UNK         0.0600 
    173 H173        6.1064  -15.4518  -42.8018 H         1 UNK         0.0600 
    174 H174        4.3072  -13.6830  -44.8071 H         1 UNK         0.3000 
    175 H175        6.7051  -13.5169  -47.2402 H         1 UNK         0.0600 
    176 H176        4.9588  -12.9277  -48.9339 H         1 UNK         0.0600 
    177 H177        5.1149  -14.6702  -48.7694 H         1 UNK         0.0600 
    178 H178        3.7563  -13.8397  -48.0229 H         1 UNK         0.0600 
    179 H179        4.4192  -11.8579  -46.7013 H         1 UNK         0.3000 
    180 H180        5.7443  -10.2299  -43.8188 H         1 UNK         0.0600 
    181 H181        5.2013   -8.2563  -45.2267 H         1 UNK         0.0600 
    182 H182        5.2094   -9.2574  -46.6781 H         1 UNK         0.0600 
    183 H183        6.6935   -9.0087  -45.7682 H         1 UNK         0.0600 
    184 H184        3.2924  -10.1016  -45.3689 H         1 UNK         0.3000 
    185 H185        1.4376  -12.3026  -43.2671 H         1 UNK         0.0600 
    186 H186        1.4431  -10.1451  -42.0170 H         1 UNK         0.0600 
    187 H187        1.3333   -9.2498  -43.5279 H         1 UNK         0.0600 
    188 H188        0.0072  -10.2950  -43.0173 H         1 UNK         0.0600 
    189 H189        0.8007  -10.5978  -45.5206 H         1 UNK         0.3000 
    190 H190       -3.2256  -23.0830  -44.0020 H         1 UNK         0.3000 
    191 H191       -5.4728  -24.6884  -45.1648 H         1 UNK         0.0600 
    192 H192       -5.6577  -24.2794  -42.7240 H         1 UNK         0.0600 
    193 H193       -5.3241  -25.9743  -43.0450 H         1 UNK         0.0600 
    194 H194       -4.0369  -24.9223  -42.4672 H         1 UNK         0.0600 
    195 H195       -2.0151  -24.7424  -44.1782 H         1 UNK         0.3000 
    196 H196       -1.6539  -27.4807  -44.8621 H         1 UNK         0.0600 
    197 H197        0.7040  -27.0417  -44.2512 H         1 UNK         0.0600 
    198 H198       -0.3878  -26.3287  -43.0742 H         1 UNK         0.0600 
    199 H199        0.4145  -25.3088  -44.2647 H         1 UNK         0.0600 
    200 H200       -1.1222  -24.5288  -46.8344 H         1 UNK         0.3000 
    201 H201        0.6484  -25.9206  -48.6979 H         1 UNK         0.0600 
    202 H202        0.6865  -23.7961  -49.8956 H         1 UNK         0.0600 
    203 H203       -0.6614  -23.1694  -48.9630 H         1 UNK         0.0600 
    204 H204        0.8900  -23.4679  -48.1815 H         1 UNK         0.0600 
    205 H205        0.1076  -26.8304  -50.6170 H         1 UNK         0.3000 
    206 H206       -2.5589  -27.5416  -51.2775 H         1 UNK         0.0600 
    207 H207       -0.5906  -28.8943  -51.9421 H         1 UNK         0.0600 
    208 H208       -1.5104  -28.4305  -53.3643 H         1 UNK         0.0600 
    209 H209       -0.0101  -27.5938  -52.9832 H         1 UNK         0.0600 
    210 H210       -0.4899  -24.8642  -52.3596 H         1 UNK         0.3000 
    211 H211       -2.1410  -23.8960  -54.4746 H         1 UNK         0.0600 
    212 H212       -0.1185  -22.4280  -52.6947 H         1 UNK         0.0600 
    213 H213       -0.7952  -21.8035  -54.1929 H         1 UNK         0.0600 
    214 H214        0.2331  -23.2277  -54.2279 H         1 UNK         0.0600 
    215 H215       -2.1626  -23.3056  -50.9496 H         1 UNK         0.3000 
    216 H216       -4.1489  -21.1935  -51.0674 H         1 UNK         0.0600 
    217 H217       -4.1500  -21.3844  -48.6344 H         1 UNK         0.0600 
    218 H218       -2.4873  -21.3591  -49.2055 H         1 UNK         0.0600 
    219 H219       -3.2211  -22.8775  -48.6853 H         1 UNK         0.0600 
    220 H220       -4.1776  -24.7141  -50.4077 H         1 UNK         0.3000 
    221 H221       -6.9516  -24.9899  -49.8988 H         1 UNK         0.0600 
    222 H222       -4.9785  -27.0182  -51.0772 H         1 UNK         0.0600 
    223 H223       -5.2489  -26.7277  -49.3600 H         1 UNK         0.0600 
    224 H224       -6.5357  -27.3972  -50.3536 H         1 UNK         0.0600 
    225 H225       -5.1215  -25.0931  -52.9747 H         1 UNK         0.3000 
    226 H226       -7.4151  -25.5808  -54.6613 H         1 UNK         0.0600 
    227 H227       -5.7638  -25.1243  -56.4783 H         1 UNK         0.0600 
    228 H228       -4.6003  -24.5400  -55.2947 H         1 UNK         0.0600 
    229 H229       -5.0952  -26.2325  -55.2911 H         1 UNK         0.0600 
    230 H230       -6.3279  -22.7695  -53.0571 H         1 UNK         0.3000 
    231 H231       -6.6923  -20.6013  -53.1035 H         1 UNK         0.0600 
    232 H232       -9.1151  -21.1387  -54.9015 H         1 UNK         0.0600 
    233 H233       -8.8177  -19.6939  -53.9464 H         1 UNK         0.0600 
    234 H234       -9.1164  -21.2250  -53.1402 H         1 UNK         0.0600 
    235 H235       -4.7347  -21.5470  -54.7463 H         1 UNK         0.3000 
    236 H236       -4.8188  -20.1564  -57.3506 H         1 UNK         0.0600 
    237 H237       -2.7021  -21.3900  -57.7229 H         1 UNK         0.0600 
    238 H238       -2.6980  -21.9544  -56.0574 H         1 UNK         0.0600 
    239 H239       -3.9491  -22.4993  -57.1738 H         1 UNK         0.0600 
    240 H240       -3.9100  -19.4190  -54.1477 H         1 UNK         0.3000 
    241 H241       -1.5892  -17.8680  -54.4119 H         1 UNK         0.0600 
    242 H242       -1.1431  -15.6794  -54.9815 H         1 UNK         0.3800 
    243 H243       -2.3741  -14.6009  -55.5719 H         1 UNK         0.3800 
    244 H244       -3.9196  -17.5070  -52.4511 H         1 UNK         0.0800 
    245 H245       -2.3701  -16.7224  -52.3154 H         1 UNK         0.0800 
    246 H246       -0.7200  -19.0737  -49.8916 H         1 UNK         0.0800 
    247 H247       -0.4022  -17.7123  -50.9357 H         1 UNK         0.0800 
@<TRIPOS>BOND
     1    1    2 1    
     2    1  127 1    
     3    1  128 1    
     4    1  129 1    
     5    2    3 2    
     6    2    4 am   BACKBONE|DICT|INTERRES
     7    4    5 1    
     8    4  130 1    
     9    5    6 1    
    10    5   65 1    
    11    5  131 1    
    12    6    7 1    
    13    6  132 1    
    14    6  133 1    
    15    7    8 1    
    16    8    9 1    
    17    8  134 1    
    18    8  135 1    
    19    9   10 ar   
    20    9   14 ar   
    21   10   11 ar   
    22   10  136 1    
    23   11   12 ar   
    24   11  126 1    
    25   12   13 ar   
    26   12  137 1    
    27   13   14 ar   
    28   13   15 1    
    29   14  138 1    
    30   15   16 1    
    31   15  139 1    
    32   15  140 1    
    33   16   17 1    
    34   17   18 1    
    35   17  141 1    
    36   17  142 1    
    37   18   19 1    
    38   18   67 1    
    39   18  143 1    
    40   19   20 am   BACKBONE|DICT|INTERRES
    41   19  144 1    
    42   20   21 2    
    43   20   22 1    
    44   22   23 1    
    45   22   24 1    
    46   22  145 1    
    47   23  146 1    
    48   23  147 1    
    49   23  148 1    
    50   24   25 am   BACKBONE|DICT|INTERRES
    51   24  149 1    
    52   25   26 2    
    53   25   27 1    
    54   27   28 1    
    55   27   29 1    
    56   27  150 1    
    57   28  151 1    
    58   28  152 1    
    59   28  153 1    
    60   29   30 am   BACKBONE|DICT|INTERRES
    61   29  154 1    
    62   30   31 2    
    63   30   32 1    
    64   32   33 1    
    65   32   34 1    
    66   32  155 1    
    67   33  156 1    
    68   33  157 1    
    69   33  158 1    
    70   34   35 am   BACKBONE|DICT|INTERRES
    71   34  159 1    
    72   35   36 2    
    73   35   37 1    
    74   37   38 1    
    75   37   39 1    
    76   37  160 1    
    77   38  161 1    
    78   38  162 1    
    79   38  163 1    
    80   39   40 am   BACKBONE|DICT|INTERRES
    81   39  164 1    
    82   40   41 2    
    83   40   42 1    
    84   42   43 1    
    85   42   44 1    
    86   42  165 1    
    87   43  166 1    
    88   43  167 1    
    89   43  168 1    
    90   44   45 am   BACKBONE|DICT|INTERRES
    91   44  169 1    
    92   45   46 2    
    93   45   47 1    
    94   47   48 1    
    95   47   49 1    
    96   47  170 1    
    97   48  171 1    
    98   48  172 1    
    99   48  173 1    
   100   49   50 am   BACKBONE|DICT|INTERRES
   101   49  174 1    
   102   50   51 2    
   103   50   52 1    
   104   52   53 1    
   105   52   54 1    
   106   52  175 1    
   107   53  176 1    
   108   53  177 1    
   109   53  178 1    
   110   54   55 am   BACKBONE|DICT|INTERRES
   111   54  179 1    
   112   55   56 2    
   113   55   57 1    
   114   57   58 1    
   115   57   59 1    
   116   57  180 1    
   117   58  181 1    
   118   58  182 1    
   119   58  183 1    
   120   59   60 am   BACKBONE|DICT|INTERRES
   121   59  184 1    
   122   60   61 2    
   123   60   62 1    
   124   62   63 1    
   125   62   64 1    
   126   62  185 1    
   127   63  186 1    
   128   63  187 1    
   129   63  188 1    
   130   64   65 am   BACKBONE|DICT|INTERRES
   131   64  189 1    
   132   65   66 2    
   133   67   68 2    
   134   67   69 am   BACKBONE|DICT|INTERRES
   135   69   70 1    
   136   69  190 1    
   137   70   71 1    
   138   70   72 1    
   139   70  191 1    
   140   71  192 1    
   141   71  193 1    
   142   71  194 1    
   143   72   73 2    
   144   72   74 am   BACKBONE|DICT|INTERRES
   145   74   75 1    
   146   74  195 1    
   147   75   76 1    
   148   75   77 1    
   149   75  196 1    
   150   76  197 1    
   151   76  198 1    
   152   76  199 1    
   153   77   78 2    
   154   77   79 am   BACKBONE|DICT|INTERRES
   155   79   80 1    
   156   79  200 1    
   157   80   81 1    
   158   80   82 1    
   159   80  201 1    
   160   81  202 1    
   161   81  203 1    
   162   81  204 1    
   163   82   83 2    
   164   82   84 am   BACKBONE|DICT|INTERRES
   165   84   85 1    
   166   84  205 1    
   167   85   86 1    
   168   85   87 1    
   169   85  206 1    
   170   86  207 1    
   171   86  208 1    
   172   86  209 1    
   173   87   88 2    
   174   87   89 am   BACKBONE|DICT|INTERRES
   175   89   90 1    
   176   89  210 1    
   177   90   91 1    
   178   90   92 1    
   179   90  211 1    
   180   91  212 1    
   181   91  213 1    
   182   91  214 1    
   183   92   93 2    
   184   92   94 am   BACKBONE|DICT|INTERRES
   185   94   95 1    
   186   94  215 1    
   187   95   96 1    
   188   95   97 1    
   189   95  216 1    
   190   96  217 1    
   191   96  218 1    
   192   96  219 1    
   193   97   98 2    
   194   97   99 am   BACKBONE|DICT|INTERRES
   195   99  100 1    
   196   99  220 1    
   197  100  101 1    
   198  100  102 1    
   199  100  221 1    
   200  101  222 1    
   201  101  223 1    
   202  101  224 1    
   203  102  103 2    
   204  102  104 am   BACKBONE|DICT|INTERRES
   205  104  105 1    
   206  104  225 1    
   207  105  106 1    
   208  105  107 1    
   209  105  226 1    
   210  106  227 1    
   211  106  228 1    
   212  106  229 1    
   213  107  108 2    
   214  107  109 am   BACKBONE|DICT|INTERRES
   215  109  110 1    
   216  109  230 1    
   217  110  111 1    
   218  110  112 1    
   219  110  231 1    
   220  111  232 1    
   221  111  233 1    
   222  111  234 1    
   223  112  113 2    
   224  112  114 am   BACKBONE|DICT|INTERRES
   225  114  115 1    
   226  114  235 1    
   227  115  116 1    
   228  115  117 1    
   229  115  236 1    
   230  116  237 1    
   231  116  238 1    
   232  116  239 1    
   233  117  118 2    
   234  117  119 am   BACKBONE|DICT|INTERRES
   235  119  120 1    
   236  119  240 1    
   237  120  121 1    
   238  120  124 1    
   239  120  241 1    
   240  121  122 am   BACKBONE|DICT|INTERRES
   241  121  123 2    
   242  122  242 1    
   243  122  243 1    
   244  124  125 1    
   245  124  244 1    
   246  124  245 1    
   247  125  126 1    
   248  126  246 1    
   249  126  247 1    
@<TRIPOS>SUBSTRUCTURE
     1 UNK         1 GROUP             0       ****    0 ROOT    
