@<TRIPOS>MOLECULE
3R540
247   249    1
SMALL
USER_CHARGES


@<TRIPOS>ATOM
      1 CA         -1.7239  -14.7787  -47.5270 C.3       0 UNK        -0.1800 
      2 C          -0.3873  -14.3566  -48.1180 C.2       0 UNK         0.5000 
      3 O           0.1078  -13.2740  -47.8080 O.2       0 UNK        -0.5000 
      4 N           0.2053  -15.2193  -48.9515 N.am      1 UNK        -0.5000 
      5 CA          1.4597  -15.0104  -49.6893 C.3       1 UNK         0.1400 
      6 C6          1.7584  -16.1680  -50.6821 C.3       23 UNK        -0.0398 
      7 S7          1.3681  -17.8459  -50.0522 S.3       23 UNK        -0.2404 
      8 C8          0.0828  -18.3899  -51.2257 C.3       23 UNK        -0.0205 
      9 C9         -1.3097  -17.8711  -50.8820 C.ar      23 UNK        -0.0193 
     10 C10        -1.6957  -16.5870  -51.2752 C.ar      23 UNK        -0.1150 
     11 C11        -2.9985  -16.1341  -51.0560 C.ar      23 UNK        -0.0193 
     12 C12        -3.9257  -16.9762  -50.4399 C.ar      23 UNK        -0.1150 
     13 C13        -3.5666  -18.2734  -50.0707 C.ar      23 UNK        -0.0193 
     14 C14        -2.2491  -18.7063  -50.2652 C.ar      23 UNK        -0.1150 
     15 C15        -4.6390  -19.2391  -49.5887 C.3       23 UNK        -0.0205 
     16 S16        -5.2201  -18.9176  -47.8915 S.3       23 UNK        -0.2404 
     17 C17        -3.7544  -19.3332  -46.8989 C.3       23 UNK        -0.0398 
     18 CA         -3.3434  -20.8287  -47.0027 C.3       11 UNK         0.1400 
     19 N          -1.9495  -20.9490  -47.4291 N.am      11 UNK        -0.5000 
     20 C          -1.2652  -22.0791  -47.6408 C.2       10 UNK         0.5000 
     21 O          -1.7704  -23.1997  -47.6184 O.2       10 UNK        -0.5000 
     22 CA          0.2522  -21.9319  -47.8636 C.3       10 UNK         0.1400 
     23 CB          0.5743  -22.0705  -49.3562 C.3       10 UNK        -0.1800 
     24 N           0.8047  -20.6656  -47.3632 N.am      10 UNK        -0.5000 
     25 C           0.7395  -20.2352  -46.0942 C.2       9 UNK         0.5000 
     26 O           0.2225  -20.8800  -45.1770 O.2       9 UNK        -0.5000 
     27 CA          1.2316  -18.8008  -45.8544 C.3       9 UNK         0.1400 
     28 CB          0.1908  -17.7897  -46.3660 C.3       9 UNK        -0.1800 
     29 N           1.4638  -18.5322  -44.4402 N.am      9 UNK        -0.5000 
     30 C           2.5429  -18.9140  -43.7462 C.2       8 UNK         0.5000 
     31 O           3.4660  -19.5739  -44.2243 O.2       8 UNK        -0.5000 
     32 CA          2.6318  -18.4287  -42.2871 C.3       8 UNK         0.1400 
     33 CB          3.5903  -17.2307  -42.1903 C.3       8 UNK        -0.1800 
     34 N           1.3276  -18.0312  -41.7522 N.am      8 UNK        -0.5000 
     35 C           0.4483  -18.8804  -41.2035 C.2       7 UNK         0.5000 
     36 O           0.6791  -20.0744  -41.0133 O.2       7 UNK        -0.5000 
     37 CA         -0.9228  -18.3011  -40.8098 C.3       7 UNK         0.1400 
     38 CB         -0.9208  -17.8676  -39.3365 C.3       7 UNK        -0.1800 
     39 N          -1.3234  -17.1724  -41.6542 N.am      7 UNK        -0.5000 
     40 C          -1.7627  -17.2946  -42.9172 C.2       6 UNK         0.5000 
     41 O          -1.8519  -18.3780  -43.4943 O.2       6 UNK        -0.5000 
     42 CA         -2.1167  -16.0091  -43.6947 C.3       6 UNK         0.1400 
     43 CB         -3.4013  -16.1583  -44.5342 C.3       6 UNK        -0.1800 
     44 N          -2.1503  -14.8004  -42.8688 N.am      6 UNK        -0.5000 
     45 C          -3.0393  -14.4567  -41.9243 C.2       5 UNK         0.5000 
     46 O          -4.0484  -15.1109  -41.6591 O.2       5 UNK        -0.5000 
     47 CA         -2.7221  -13.1661  -41.1314 C.3       5 UNK         0.1400 
     48 CB         -3.3055  -13.1908  -39.7030 C.3       5 UNK        -0.1800 
     49 N          -1.2884  -12.8340  -41.0995 N.am      5 UNK        -0.5000 
     50 C          -0.2985  -13.5959  -40.6078 C.2       4 UNK         0.5000 
     51 O          -0.4811  -14.6971  -40.0878 O.2       4 UNK        -0.5000 
     52 CA          1.1335  -13.0608  -40.8164 C.3       4 UNK         0.1400 
     53 CB          2.2141  -14.0878  -40.4206 C.3       4 UNK        -0.1800 
     54 N           1.3629  -12.5815  -42.1873 N.am      4 UNK        -0.5000 
     55 C           1.2188  -13.2781  -43.3263 C.2       3 UNK         0.5000 
     56 O           0.8172  -14.4442  -43.3685 O.2       3 UNK        -0.5000 
     57 CA          1.5263  -12.5420  -44.6500 C.3       3 UNK         0.1400 
     58 CB          2.3152  -11.2238  -44.4800 C.3       3 UNK        -0.1800 
     59 N           2.1802  -13.4191  -45.6247 N.am      3 UNK        -0.5000 
     60 C           3.3611  -14.0428  -45.4860 C.2       2 UNK         0.5000 
     61 O           4.1074  -13.8829  -44.5190 O.2       2 UNK        -0.5000 
     62 CA          3.7863  -15.0203  -46.6010 C.3       2 UNK         0.1400 
     63 CB          4.2025  -16.3750  -46.0104 C.3       2 UNK        -0.1800 
     64 N           2.7231  -15.2467  -47.5851 N.am      2 UNK        -0.5000 
     65 C           2.6886  -14.6993  -48.8059 C.2       1 UNK         0.5000 
     66 O           3.5686  -13.9582  -49.2462 O.2       1 UNK        -0.5000 
     67 C          -3.6463  -21.6088  -45.7048 C.2       11 UNK         0.5000 
     68 O          -4.7120  -22.2167  -45.6012 O.2       11 UNK        -0.5000 
     69 N          -2.6859  -21.6192  -44.7719 N.am      12 UNK        -0.5000 
     70 CA         -2.7313  -22.4200  -43.5533 C.3       12 UNK         0.1400 
     71 CB         -2.3281  -21.5436  -42.3604 C.3       12 UNK        -0.1800 
     72 C          -1.8023  -23.6377  -43.6676 C.2       12 UNK         0.5000 
     73 O          -2.2219  -24.7487  -43.3441 O.2       12 UNK        -0.5000 
     74 N          -0.5623  -23.4169  -44.1291 N.am      13 UNK        -0.5000 
     75 CA          0.5175  -24.4080  -44.1163 C.3       13 UNK         0.1400 
     76 CB          1.8546  -23.6987  -44.3821 C.3       13 UNK        -0.1800 
     77 C           0.3243  -25.5896  -45.0866 C.2       13 UNK         0.5000 
     78 O           0.8722  -26.6634  -44.8345 O.2       13 UNK        -0.5000 
     79 N          -0.4431  -25.3828  -46.1633 N.am      14 UNK        -0.5000 
     80 CA         -0.7672  -26.3919  -47.1737 C.3       14 UNK         0.1400 
     81 CB          0.0240  -26.0879  -48.4595 C.3       14 UNK        -0.1800 
     82 C          -2.2828  -26.4502  -47.4412 C.2       14 UNK         0.5000 
     83 O          -2.6914  -26.9907  -48.4682 O.2       14 UNK        -0.5000 
     84 N          -3.0928  -25.8657  -46.5431 N.am      15 UNK        -0.5000 
     85 CA         -4.5576  -25.7664  -46.6068 C.3       15 UNK         0.1400 
     86 CB         -5.1917  -27.1419  -46.3144 C.3       15 UNK        -0.1800 
     87 C          -5.0890  -25.1307  -47.9143 C.2       15 UNK         0.5000 
     88 O          -6.1470  -25.5268  -48.4059 O.2       15 UNK        -0.5000 
     89 N          -4.3269  -24.1701  -48.4585 N.am      16 UNK        -0.5000 
     90 CA         -4.5607  -23.4304  -49.7028 C.3       16 UNK         0.1400 
     91 CB         -5.9074  -22.6758  -49.6719 C.3       16 UNK        -0.1800 
     92 C          -4.3795  -24.2626  -50.9889 C.2       16 UNK         0.5000 
     93 O          -4.7570  -23.7916  -52.0625 O.2       16 UNK        -0.5000 
     94 N          -3.7588  -25.4495  -50.8965 N.am      17 UNK        -0.5000 
     95 CA         -3.4601  -26.3081  -52.0498 C.3       17 UNK         0.1400 
     96 CB         -3.0309  -27.6978  -51.5572 C.3       17 UNK        -0.1800 
     97 C          -2.3890  -25.7227  -52.9937 C.2       17 UNK         0.5000 
     98 O          -2.3520  -26.0930  -54.1675 O.2       17 UNK        -0.5000 
     99 N          -1.5518  -24.8179  -52.4698 N.am      18 UNK        -0.5000 
    100 CA        -0.4856  -24.1227  -53.1904 C.3       18 UNK         0.1400 
    101 CB         0.8738  -24.5329  -52.5944 C.3       18 UNK        -0.1800 
    102 C         -0.7140  -22.5977  -53.1813 C.2       18 UNK         0.5000 
    103 O          0.2486  -21.8322  -53.1205 O.2       18 UNK        -0.5000 
    104 N         -1.9860  -22.1726  -53.2457 N.am      19 UNK        -0.5000 
    105 CA        -2.3826  -20.7616  -53.3353 C.3       19 UNK         0.1400 
    106 CB        -3.8790  -20.6306  -53.0182 C.3       19 UNK        -0.1800 
    107 C         -2.0584  -20.1103  -54.6955 C.2       19 UNK         0.5000 
    108 O         -1.9368  -18.8859  -54.7650 O.2       19 UNK        -0.5000 
    109 N         -1.9191  -20.9380  -55.7437 N.am      20 UNK        -0.5000 
    110 CA        -1.5779  -20.5741  -57.1218 C.3       20 UNK         0.1400 
    111 CB        -0.0989  -20.1322  -57.2034 C.3       20 UNK        -0.1800 
    112 C         -2.5807  -19.5565  -57.7061 C.2       20 UNK         0.5000 
    113 O         -3.7835  -19.8269  -57.6942 O.2       20 UNK        -0.5000 
    114 N         -2.0890  -18.4004  -58.1727 N.am      21 UNK        -0.5000 
    115 CA        -2.8812  -17.3004  -58.7318 C.3       21 UNK         0.1400 
    116 CB        -1.9249  -16.2329  -59.2857 C.3       21 UNK        -0.1800 
    117 C         -3.8802  -16.6676  -57.7400 C.2       21 UNK         0.5000 
    118 O         -4.8610  -16.0654  -58.1789 O.2       21 UNK        -0.5000 
    119 N         -3.6294  -16.8263  -56.4338 N.am      22 UNK        -0.5000 
    120 CA        -4.5494  -16.4459  -55.3529 C.3       22 UNK         0.1400 
    121 C         -5.6857  -17.4881  -55.1025 C.2       22 UNK         0.5000 
    122 N         -5.6763  -18.6625  -55.7252 N.am      22 UNK        -0.7600 
    123 O         -6.6146  -17.2216  -54.3458 O.2       22 UNK        -0.5000 
    124 C124       -3.7576  -16.1151  -54.0615 C.3       23 UNK        -0.0398 
    125 S125       -4.6008  -14.9128  -52.9711 S.3       23 UNK        -0.2404 
    126 C126       -3.4294  -14.7720  -51.5776 C.3       23 UNK        -0.0205 
    127 H127       -2.5309  -14.2010  -47.9773 H         1 UNK         0.0600 
    128 H128       -1.7299  -14.5941  -46.4537 H         1 UNK         0.0600 
    129 H129       -1.9277  -15.8369  -47.6947 H         1 UNK         0.0600 
    130 H130       -0.2572  -16.0930  -49.1616 H         1 UNK         0.3000 
    131 H131        1.3041  -14.1108  -50.2887 H         1 UNK         0.0600 
    132 H132        1.2052  -15.9938  -51.6033 H         1 UNK         0.0800 
    133 H133        2.8035  -16.1602  -50.9982 H         1 UNK         0.0800 
    134 H134        0.0785  -19.4783  -51.2525 H         1 UNK         0.0800 
    135 H135        0.3505  -18.0859  -52.2388 H         1 UNK         0.0800 
    136 H136       -0.9980  -15.9494  -51.7962 H         1 UNK         0.1150 
    137 H137       -4.9469  -16.6451  -50.3119 H         1 UNK         0.1150 
    138 H138       -1.9742  -19.7180  -50.0047 H         1 UNK         0.1150 
    139 H139       -5.4966  -19.1677  -50.2595 H         1 UNK         0.0800 
    140 H140       -4.2861  -20.2639  -49.6810 H         1 UNK         0.0800 
    141 H141       -3.9587  -19.0402  -45.8672 H         1 UNK         0.0800 
    142 H142       -2.9508  -18.6701  -47.2225 H         1 UNK         0.0800 
    143 H143       -3.9346  -21.3215  -47.7715 H         1 UNK         0.0600 
    144 H144       -1.4261  -20.0887  -47.4678 H         1 UNK         0.3000 
    145 H145        0.7400  -22.7489  -47.3309 H         1 UNK         0.0600 
    146 H146        0.2010  -23.0156  -49.7477 H         1 UNK         0.0600 
    147 H147        1.6488  -22.0437  -49.5382 H         1 UNK         0.0600 
    148 H148        0.1117  -21.2780  -49.9408 H         1 UNK         0.0600 
    149 H149        1.2377  -20.0705  -48.0557 H         1 UNK         0.3000 
    150 H150        2.1652  -18.6591  -46.4026 H         1 UNK         0.0600 
    151 H151        0.0419  -17.8800  -47.4411 H         1 UNK         0.0600 
    152 H152        0.5016  -16.7650  -46.1633 H         1 UNK         0.0600 
    153 H153       -0.7808  -17.9399  -45.8958 H         1 UNK         0.0600 
    154 H154        0.7153  -18.0789  -43.9397 H         1 UNK         0.3000 
    155 H155        3.0423  -19.2443  -41.6881 H         1 UNK         0.0600 
    156 H156        3.2287  -16.3762  -42.7648 H         1 UNK         0.0600 
    157 H157        4.5783  -17.4872  -42.5748 H         1 UNK         0.0600 
    158 H158        3.7196  -16.9120  -41.1560 H         1 UNK         0.0600 
    159 H159        1.0642  -17.0614  -41.8566 H         1 UNK         0.3000 
    160 H160       -1.6662  -19.0920  -40.9225 H         1 UNK         0.0600 
    161 H161       -0.1422  -17.1319  -39.1327 H         1 UNK         0.0600 
    162 H162       -0.7404  -18.7211  -38.6818 H         1 UNK         0.0600 
    163 H163       -1.8783  -17.4327  -39.0494 H         1 UNK         0.0600 
    164 H164       -1.2411  -16.2491  -41.2416 H         1 UNK         0.3000 
    165 H165       -1.2929  -15.8553  -44.3920 H         1 UNK         0.0600 
    166 H166       -3.6901  -15.2134  -44.9942 H         1 UNK         0.0600 
    167 H167       -4.2409  -16.5107  -43.9345 H         1 UNK         0.0600 
    168 H168       -3.2514  -16.8739  -45.3411 H         1 UNK         0.0600 
    169 H169       -1.3234  -14.2233  -42.9551 H         1 UNK         0.3000 
    170 H170       -3.2113  -12.3550  -41.6725 H         1 UNK         0.0600 
    171 H171       -4.3918  -13.2845  -39.7245 H         1 UNK         0.0600 
    172 H172       -2.9178  -14.0275  -39.1210 H         1 UNK         0.0600 
    173 H173       -3.0722  -12.2717  -39.1657 H         1 UNK         0.0600 
    174 H174       -1.0351  -11.9561  -41.5314 H         1 UNK         0.3000 
    175 H175        1.2395  -12.1971  -40.1586 H         1 UNK         0.0600 
    176 H176        2.1246  -15.0058  -41.0000 H         1 UNK         0.0600 
    177 H177        3.2163  -13.6889  -40.5771 H         1 UNK         0.0600 
    178 H178        2.1311  -14.3575  -39.3671 H         1 UNK         0.0600 
    179 H179        1.6861  -11.6272  -42.2627 H         1 UNK         0.3000 
    180 H180        0.5569  -12.2895  -45.0818 H         1 UNK         0.0600 
    181 H181        3.2663  -11.3775  -43.9688 H         1 UNK         0.0600 
    182 H182        1.7446  -10.4890  -43.9112 H         1 UNK         0.0600 
    183 H183        2.5313  -10.7730  -45.4488 H         1 UNK         0.0600 
    184 H184        1.6410  -13.5927  -46.4654 H         1 UNK         0.3000 
    185 H185        4.6648  -14.5873  -47.0834 H         1 UNK         0.0600 
    186 H186        5.0773  -16.2736  -45.3670 H         1 UNK         0.0600 
    187 H187        3.4025  -16.7947  -45.4063 H         1 UNK         0.0600 
    188 H188        4.4540  -17.0932  -46.7909 H         1 UNK         0.0600 
    189 H189        1.9547  -15.8347  -47.3011 H         1 UNK         0.3000 
    190 H190       -1.8258  -21.1090  -44.9402 H         1 UNK         0.3000 
    191 H191       -3.7425  -22.7884  -43.3680 H         1 UNK         0.0600 
    192 H192       -2.3143  -22.1177  -41.4332 H         1 UNK         0.0600 
    193 H193       -3.0308  -20.7211  -42.2267 H         1 UNK         0.0600 
    194 H194       -1.3359  -21.1142  -42.5002 H         1 UNK         0.0600 
    195 H195       -0.2946  -22.4721  -44.3961 H         1 UNK         0.3000 
    196 H196        0.5610  -24.8285  -43.1094 H         1 UNK         0.0600 
    197 H197        1.8869  -23.2517  -45.3749 H         1 UNK         0.0600 
    198 H198        2.0321  -22.9057  -43.6550 H         1 UNK         0.0600 
    199 H199        2.6891  -24.3974  -44.3107 H         1 UNK         0.0600 
    200 H200       -0.8598  -24.4711  -46.3127 H         1 UNK         0.3000 
    201 H201       -0.4839  -27.3863  -46.8240 H         1 UNK         0.0600 
    202 H202       -0.2996  -25.1532  -48.9156 H         1 UNK         0.0600 
    203 H203       -0.1110  -26.8766  -49.2006 H         1 UNK         0.0600 
    204 H204        1.0927  -26.0126  -48.2588 H         1 UNK         0.0600 
    205 H205       -2.6647  -25.4632  -45.7210 H         1 UNK         0.3000 
    206 H206       -4.8516  -25.0893  -45.8035 H         1 UNK         0.0600 
    207 H207       -4.8211  -27.5550  -45.3763 H         1 UNK         0.0600 
    208 H208       -6.2760  -27.0647  -46.2264 H         1 UNK         0.0600 
    209 H209       -4.9767  -27.8607  -47.1058 H         1 UNK         0.0600 
    210 H210       -3.4496  -23.9493  -47.9929 H         1 UNK         0.3000 
    211 H211       -3.7704  -22.6804  -49.7427 H         1 UNK         0.0600 
    212 H212       -5.9840  -21.9753  -50.5040 H         1 UNK         0.0600 
    213 H213       -6.0226  -22.1012  -48.7529 H         1 UNK         0.0600 
    214 H214       -6.7558  -23.3557  -49.7487 H         1 UNK         0.0600 
    215 H215       -3.4827  -25.8021  -49.9857 H         1 UNK         0.3000 
    216 H216       -4.3787  -26.4243  -52.6286 H         1 UNK         0.0600 
    217 H217       -2.0904  -27.6558  -51.0066 H         1 UNK         0.0600 
    218 H218       -2.8887  -28.3822  -52.3945 H         1 UNK         0.0600 
    219 H219       -3.7846  -28.1365  -50.9030 H         1 UNK         0.0600 
    220 H220       -1.6725  -24.5700  -51.4989 H         1 UNK         0.3000 
    221 H221       -0.4842  -24.4159  -54.2420 H         1 UNK         0.0600 
    222 H222        1.0172  -25.6118  -52.6550 H         1 UNK         0.0600 
    223 H223        0.9627  -24.2450  -51.5478 H         1 UNK         0.0600 
    224 H224        1.6989  -24.0684  -53.1358 H         1 UNK         0.0600 
    225 H225       -2.7304  -22.8568  -53.2706 H         1 UNK         0.3000 
    226 H226       -1.8277  -20.2090  -52.5784 H         1 UNK         0.0600 
    227 H227       -4.4934  -21.1634  -53.7449 H         1 UNK         0.0600 
    228 H228       -4.1080  -21.0284  -52.0306 H         1 UNK         0.0600 
    229 H229       -4.1904  -19.5850  -53.0262 H         1 UNK         0.0600 
    230 H230       -2.0850  -21.9204  -55.5825 H         1 UNK         0.3000 
    231 H231       -1.6853  -21.4808  -57.7186 H         1 UNK         0.0600 
    232 H232        0.0929  -19.2238  -56.6310 H         1 UNK         0.0600 
    233 H233        0.2050  -19.9513  -58.2352 H         1 UNK         0.0600 
    234 H234        0.5582  -20.9086  -56.8111 H         1 UNK         0.0600 
    235 H235       -1.0917  -18.2519  -58.1213 H         1 UNK         0.3000 
    236 H236       -3.4635  -17.7026  -59.5633 H         1 UNK         0.0600 
    237 H237       -1.2728  -16.6469  -60.0550 H         1 UNK         0.0600 
    238 H238       -2.4781  -15.4097  -59.7401 H         1 UNK         0.0600 
    239 H239       -1.2955  -15.8115  -58.5009 H         1 UNK         0.0600 
    240 H240       -2.8249  -17.3740  -56.1529 H         1 UNK         0.3000 
    241 H241       -5.0519  -15.5300  -55.6695 H         1 UNK         0.0600 
    242 H242       -4.9459  -18.9131  -56.3831 H         1 UNK         0.3800 
    243 H243       -6.4305  -19.3083  -55.5569 H         1 UNK         0.3800 
    244 H244       -3.5396  -17.0324  -53.5127 H         1 UNK         0.0800 
    245 H245       -2.7885  -15.6819  -54.3134 H         1 UNK         0.0800 
    246 H246       -2.5648  -14.1890  -51.8984 H         1 UNK         0.0800 
    247 H247       -3.8986  -14.2078  -50.7706 H         1 UNK         0.0800 
@<TRIPOS>BOND
     1    1    2 1    
     2    1  127 1    
     3    1  128 1    
     4    1  129 1    
     5    2    3 2    
     6    2    4 am   BACKBONE|DICT|INTERRES
     7    4    5 1    
     8    4  130 1    
     9    5    6 1    
    10    5   65 1    
    11    5  131 1    
    12    6    7 1    
    13    6  132 1    
    14    6  133 1    
    15    7    8 1    
    16    8    9 1    
    17    8  134 1    
    18    8  135 1    
    19    9   10 ar   
    20    9   14 ar   
    21   10   11 ar   
    22   10  136 1    
    23   11   12 ar   
    24   11  126 1    
    25   12   13 ar   
    26   12  137 1    
    27   13   14 ar   
    28   13   15 1    
    29   14  138 1    
    30   15   16 1    
    31   15  139 1    
    32   15  140 1    
    33   16   17 1    
    34   17   18 1    
    35   17  141 1    
    36   17  142 1    
    37   18   19 1    
    38   18   67 1    
    39   18  143 1    
    40   19   20 am   BACKBONE|DICT|INTERRES
    41   19  144 1    
    42   20   21 2    
    43   20   22 1    
    44   22   23 1    
    45   22   24 1    
    46   22  145 1    
    47   23  146 1    
    48   23  147 1    
    49   23  148 1    
    50   24   25 am   BACKBONE|DICT|INTERRES
    51   24  149 1    
    52   25   26 2    
    53   25   27 1    
    54   27   28 1    
    55   27   29 1    
    56   27  150 1    
    57   28  151 1    
    58   28  152 1    
    59   28  153 1    
    60   29   30 am   BACKBONE|DICT|INTERRES
    61   29  154 1    
    62   30   31 2    
    63   30   32 1    
    64   32   33 1    
    65   32   34 1    
    66   32  155 1    
    67   33  156 1    
    68   33  157 1    
    69   33  158 1    
    70   34   35 am   BACKBONE|DICT|INTERRES
    71   34  159 1    
    72   35   36 2    
    73   35   37 1    
    74   37   38 1    
    75   37   39 1    
    76   37  160 1    
    77   38  161 1    
    78   38  162 1    
    79   38  163 1    
    80   39   40 am   BACKBONE|DICT|INTERRES
    81   39  164 1    
    82   40   41 2    
    83   40   42 1    
    84   42   43 1    
    85   42   44 1    
    86   42  165 1    
    87   43  166 1    
    88   43  167 1    
    89   43  168 1    
    90   44   45 am   BACKBONE|DICT|INTERRES
    91   44  169 1    
    92   45   46 2    
    93   45   47 1    
    94   47   48 1    
    95   47   49 1    
    96   47  170 1    
    97   48  171 1    
    98   48  172 1    
    99   48  173 1    
   100   49   50 am   BACKBONE|DICT|INTERRES
   101   49  174 1    
   102   50   51 2    
   103   50   52 1    
   104   52   53 1    
   105   52   54 1    
   106   52  175 1    
   107   53  176 1    
   108   53  177 1    
   109   53  178 1    
   110   54   55 am   BACKBONE|DICT|INTERRES
   111   54  179 1    
   112   55   56 2    
   113   55   57 1    
   114   57   58 1    
   115   57   59 1    
   116   57  180 1    
   117   58  181 1    
   118   58  182 1    
   119   58  183 1    
   120   59   60 am   BACKBONE|DICT|INTERRES
   121   59  184 1    
   122   60   61 2    
   123   60   62 1    
   124   62   63 1    
   125   62   64 1    
   126   62  185 1    
   127   63  186 1    
   128   63  187 1    
   129   63  188 1    
   130   64   65 am   BACKBONE|DICT|INTERRES
   131   64  189 1    
   132   65   66 2    
   133   67   68 2    
   134   67   69 am   BACKBONE|DICT|INTERRES
   135   69   70 1    
   136   69  190 1    
   137   70   71 1    
   138   70   72 1    
   139   70  191 1    
   140   71  192 1    
   141   71  193 1    
   142   71  194 1    
   143   72   73 2    
   144   72   74 am   BACKBONE|DICT|INTERRES
   145   74   75 1    
   146   74  195 1    
   147   75   76 1    
   148   75   77 1    
   149   75  196 1    
   150   76  197 1    
   151   76  198 1    
   152   76  199 1    
   153   77   78 2    
   154   77   79 am   BACKBONE|DICT|INTERRES
   155   79   80 1    
   156   79  200 1    
   157   80   81 1    
   158   80   82 1    
   159   80  201 1    
   160   81  202 1    
   161   81  203 1    
   162   81  204 1    
   163   82   83 2    
   164   82   84 am   BACKBONE|DICT|INTERRES
   165   84   85 1    
   166   84  205 1    
   167   85   86 1    
   168   85   87 1    
   169   85  206 1    
   170   86  207 1    
   171   86  208 1    
   172   86  209 1    
   173   87   88 2    
   174   87   89 am   BACKBONE|DICT|INTERRES
   175   89   90 1    
   176   89  210 1    
   177   90   91 1    
   178   90   92 1    
   179   90  211 1    
   180   91  212 1    
   181   91  213 1    
   182   91  214 1    
   183   92   93 2    
   184   92   94 am   BACKBONE|DICT|INTERRES
   185   94   95 1    
   186   94  215 1    
   187   95   96 1    
   188   95   97 1    
   189   95  216 1    
   190   96  217 1    
   191   96  218 1    
   192   96  219 1    
   193   97   98 2    
   194   97   99 am   BACKBONE|DICT|INTERRES
   195   99  100 1    
   196   99  220 1    
   197  100  101 1    
   198  100  102 1    
   199  100  221 1    
   200  101  222 1    
   201  101  223 1    
   202  101  224 1    
   203  102  103 2    
   204  102  104 am   BACKBONE|DICT|INTERRES
   205  104  105 1    
   206  104  225 1    
   207  105  106 1    
   208  105  107 1    
   209  105  226 1    
   210  106  227 1    
   211  106  228 1    
   212  106  229 1    
   213  107  108 2    
   214  107  109 am   BACKBONE|DICT|INTERRES
   215  109  110 1    
   216  109  230 1    
   217  110  111 1    
   218  110  112 1    
   219  110  231 1    
   220  111  232 1    
   221  111  233 1    
   222  111  234 1    
   223  112  113 2    
   224  112  114 am   BACKBONE|DICT|INTERRES
   225  114  115 1    
   226  114  235 1    
   227  115  116 1    
   228  115  117 1    
   229  115  236 1    
   230  116  237 1    
   231  116  238 1    
   232  116  239 1    
   233  117  118 2    
   234  117  119 am   BACKBONE|DICT|INTERRES
   235  119  120 1    
   236  119  240 1    
   237  120  121 1    
   238  120  124 1    
   239  120  241 1    
   240  121  122 am   BACKBONE|DICT|INTERRES
   241  121  123 2    
   242  122  242 1    
   243  122  243 1    
   244  124  125 1    
   245  124  244 1    
   246  124  245 1    
   247  125  126 1    
   248  126  246 1    
   249  126  247 1    
@<TRIPOS>SUBSTRUCTURE
     1 UNK         1 GROUP             0       ****    0 ROOT    
