@<TRIPOS>MOLECULE
3R540
247   249    1
SMALL
USER_CHARGES


@<TRIPOS>ATOM
      1 CA          8.3801  -17.9933  -47.0943 C.3       0 UNK        -0.1800 
      2 C           7.3883  -16.9969  -47.6777 C.2       0 UNK         0.5000 
      3 O           7.5799  -16.5309  -48.8006 O.2       0 UNK        -0.5000 
      4 N           6.3323  -16.6749  -46.9180 N.am      1 UNK        -0.5000 
      5 CA          5.2668  -15.7298  -47.2753 C.3       1 UNK         0.1400 
      6 C6          4.4090  -16.2006  -48.4820 C.3       23 UNK        -0.0398 
      7 S7          2.6863  -15.5944  -48.3924 S.3       23 UNK        -0.2404 
      8 C8          1.7798  -17.1409  -48.0812 C.3       23 UNK        -0.0205 
      9 C9          0.2758  -16.9356  -48.1656 C.ar      23 UNK        -0.0193 
     10 C10        -0.3338  -16.7425  -49.4081 C.ar      23 UNK        -0.1150 
     11 C11        -1.7169  -16.5674  -49.5039 C.ar      23 UNK        -0.0193 
     12 C12        -2.4953  -16.6036  -48.3441 C.ar      23 UNK        -0.1150 
     13 C13        -1.9002  -16.7988  -47.0938 C.ar      23 UNK        -0.0193 
     14 C14        -0.5107  -16.9521  -47.0111 C.ar      23 UNK        -0.1150 
     15 C15        -2.7627  -16.8031  -45.8374 C.3       23 UNK        -0.0205 
     16 S16        -2.3783  -18.1772  -44.7070 S.3       23 UNK        -0.2404 
     17 C17        -3.0237  -19.6210  -45.6112 C.3       23 UNK        -0.0398 
     18 CA         -1.9748  -20.3222  -46.5098 C.3       11 UNK         0.1400 
     19 N          -0.7211  -20.6316  -45.8092 N.am      11 UNK        -0.5000 
     20 C           0.3550  -21.2041  -46.3696 C.2       10 UNK         0.5000 
     21 O           0.3859  -21.5861  -47.5396 O.2       10 UNK        -0.5000 
     22 CA          1.5997  -21.4139  -45.4922 C.3       10 UNK         0.1400 
     23 CB          2.7147  -20.4406  -45.9017 C.3       10 UNK        -0.1800 
     24 N           1.3239  -21.2659  -44.0622 N.am      10 UNK        -0.5000 
     25 C           0.8458  -22.2463  -43.2817 C.2       9 UNK         0.5000 
     26 O           0.5434  -23.3621  -43.7059 O.2       9 UNK        -0.5000 
     27 CA          0.6859  -21.9471  -41.7775 C.3       9 UNK         0.1400 
     28 CB          1.8842  -22.5036  -40.9933 C.3       9 UNK        -0.1800 
     29 N           0.5548  -20.5198  -41.4856 N.am      9 UNK        -0.5000 
     30 C          -0.5628  -19.8067  -41.6768 C.2       8 UNK         0.5000 
     31 O          -1.6236  -20.2993  -42.0607 O.2       8 UNK        -0.5000 
     32 CA         -0.4741  -18.2893  -41.4112 C.3       8 UNK         0.1400 
     33 CB         -0.9466  -17.9622  -39.9871 C.3       8 UNK        -0.1800 
     34 N           0.8609  -17.7173  -41.6098 N.am      8 UNK        -0.5000 
     35 C           1.5524  -17.7221  -42.7571 C.2       7 UNK         0.5000 
     36 O           1.1727  -18.3058  -43.7726 O.2       7 UNK        -0.5000 
     37 CA          2.9011  -16.9728  -42.7533 C.3       7 UNK         0.1400 
     38 CB          3.5210  -16.8650  -44.1554 C.3       7 UNK        -0.1800 
     39 N           2.7835  -15.6253  -42.1984 N.am      7 UNK        -0.5000 
     40 C           2.7787  -15.3129  -40.8967 C.2       6 UNK         0.5000 
     41 O           2.8556  -16.1478  -39.9946 O.2       6 UNK        -0.5000 
     42 CA          2.6104  -13.8252  -40.5530 C.3       6 UNK         0.1400 
     43 CB          3.9122  -13.0498  -40.8106 C.3       6 UNK        -0.1800 
     44 N           1.5198  -13.2321  -41.3254 N.am      6 UNK        -0.5000 
     45 C           0.2204  -13.3778  -41.0279 C.2       5 UNK         0.5000 
     46 O          -0.1904  -13.9722  -40.0307 O.2       5 UNK        -0.5000 
     47 CA         -0.7940  -12.7537  -42.0054 C.3       5 UNK         0.1400 
     48 CB         -1.1410  -11.3197  -41.5768 C.3       5 UNK        -0.1800 
     49 N          -0.3172  -12.7362  -43.3887 N.am      5 UNK        -0.5000 
     50 C          -0.1976  -13.8242  -44.1627 C.2       4 UNK         0.5000 
     51 O          -0.5161  -14.9559  -43.8035 O.2       4 UNK        -0.5000 
     52 CA          0.4135  -13.6089  -45.5607 C.3       4 UNK         0.1400 
     53 CB         -0.6795  -13.2879  -46.5914 C.3       4 UNK        -0.1800 
     54 N           1.4264  -12.5487  -45.5938 N.am      4 UNK        -0.5000 
     55 C           2.5915  -12.6016  -44.9393 C.2       3 UNK         0.5000 
     56 O           2.9208  -13.5341  -44.2006 O.2       3 UNK        -0.5000 
     57 CA          3.5499  -11.4205  -45.1216 C.3       3 UNK         0.1400 
     58 CB          3.4943  -10.4595  -43.9230 C.3       3 UNK        -0.1800 
     59 N           4.8770  -11.9976  -45.2499 N.am      3 UNK        -0.5000 
     60 C           5.8935  -11.5022  -45.9619 C.2       2 UNK         0.5000 
     61 O           5.9158  -10.3671  -46.4391 O.2       2 UNK        -0.5000 
     62 CA          7.0569  -12.4784  -46.2334 C.3       2 UNK         0.1400 
     63 CB          8.0907  -12.4231  -45.0986 C.3       2 UNK        -0.1800 
     64 N           6.5917  -13.8614  -46.3997 N.am      2 UNK        -0.5000 
     65 C           5.7938  -14.2808  -47.3955 C.2       1 UNK         0.5000 
     66 O           5.4752  -13.5712  -48.3513 O.2       1 UNK        -0.5000 
     67 C          -2.6068  -21.5638  -47.1688 C.2       11 UNK         0.5000 
     68 O          -3.0723  -21.4749  -48.3015 O.2       11 UNK        -0.5000 
     69 N          -2.5635  -22.7060  -46.4686 N.am      12 UNK        -0.5000 
     70 CA         -3.0820  -23.9935  -46.9363 C.3       12 UNK         0.1400 
     71 CB         -3.2104  -24.9368  -45.7304 C.3       12 UNK        -0.1800 
     72 C          -2.2311  -24.6481  -48.0437 C.2       12 UNK         0.5000 
     73 O          -2.7264  -25.5483  -48.7225 O.2       12 UNK        -0.5000 
     74 N          -0.9753  -24.2075  -48.2002 N.am      13 UNK        -0.5000 
     75 CA         -0.0811  -24.6321  -49.2754 C.3       13 UNK         0.1400 
     76 CB          1.3648  -24.6797  -48.7560 C.3       13 UNK        -0.1800 
     77 C          -0.2019  -23.6898  -50.4836 C.2       13 UNK         0.5000 
     78 O          -0.2317  -24.1654  -51.6185 O.2       13 UNK        -0.5000 
     79 N          -0.2819  -22.3770  -50.2188 N.am      14 UNK        -0.5000 
     80 CA         -0.4631  -21.3258  -51.2198 C.3       14 UNK         0.1400 
     81 CB         -0.2638  -19.9550  -50.5581 C.3       14 UNK        -0.1800 
     82 C          -1.8326  -21.4262  -51.9146 C.2       14 UNK         0.5000 
     83 O          -1.8938  -21.5033  -53.1422 O.2       14 UNK        -0.5000 
     84 N          -2.9015  -21.5030  -51.1138 N.am      15 UNK        -0.5000 
     85 CA         -4.2373  -21.8882  -51.5438 C.3       15 UNK         0.1400 
     86 CB         -5.2899  -21.0533  -50.7925 C.3       15 UNK        -0.1800 
     87 C          -4.3775  -23.3945  -51.2895 C.2       15 UNK         0.5000 
     88 O          -5.0253  -23.8031  -50.3247 O.2       15 UNK        -0.5000 
     89 N          -3.7196  -24.1856  -52.1484 N.am      16 UNK        -0.5000 
     90 CA         -3.7019  -25.6483  -52.1473 C.3       16 UNK         0.1400 
     91 CB         -2.9337  -26.1400  -53.3836 C.3       16 UNK        -0.1800 
     92 C          -5.1205  -26.2449  -52.1058 C.2       16 UNK         0.5000 
     93 O          -5.8997  -26.0310  -53.0383 O.2       16 UNK        -0.5000 
     94 N          -5.4331  -26.9217  -50.9910 N.am      17 UNK        -0.5000 
     95 CA         -6.7367  -27.5016  -50.6422 C.3       17 UNK         0.1400 
     96 CB         -7.0625  -28.6907  -51.5701 C.3       17 UNK        -0.1800 
     97 C          -7.8806  -26.4624  -50.5858 C.2       17 UNK         0.5000 
     98 O          -9.0348  -26.8083  -50.8439 O.2       17 UNK        -0.5000 
     99 N          -7.5358  -25.1992  -50.2897 N.am      18 UNK        -0.5000 
    100 CA        -8.3557  -23.9806  -50.2794 C.3       18 UNK         0.1400 
    101 CB        -9.5288  -24.0876  -49.2874 C.3       18 UNK        -0.1800 
    102 C         -8.8393  -23.5345  -51.6737 C.2       18 UNK         0.5000 
    103 O         -8.7839  -22.3427  -51.9773 O.2       18 UNK        -0.5000 
    104 N         -9.2828  -24.4913  -52.4981 N.am      19 UNK        -0.5000 
    105 CA        -9.8878  -24.3133  -53.8191 C.3       19 UNK         0.1400 
    106 CB       -10.2819  -25.6932  -54.3674 C.3       19 UNK        -0.1800 
    107 C         -9.0201  -23.5589  -54.8439 C.2       19 UNK         0.5000 
    108 O         -9.5751  -22.8952  -55.7206 O.2       19 UNK        -0.5000 
    109 N         -7.6880  -23.6557  -54.7200 N.am      20 UNK        -0.5000 
    110 CA        -6.7364  -22.9322  -55.5679 C.3       20 UNK         0.1400 
    111 CB        -5.3334  -23.5217  -55.3759 C.3       20 UNK        -0.1800 
    112 C         -6.7221  -21.4102  -55.3163 C.2       20 UNK         0.5000 
    113 O         -6.3578  -20.6601  -56.2226 O.2       20 UNK        -0.5000 
    114 N         -7.1109  -20.9842  -54.1021 N.am      21 UNK        -0.5000 
    115 CA        -7.3375  -19.5972  -53.6676 C.3       21 UNK         0.1400 
    116 CB        -8.6546  -19.0808  -54.2816 C.3       21 UNK        -0.1800 
    117 C         -6.1575  -18.6242  -53.9059 C.2       21 UNK         0.5000 
    118 O         -6.3833  -17.4296  -54.1069 O.2       21 UNK        -0.5000 
    119 N         -4.9267  -19.1548  -53.8983 N.am      22 UNK        -0.5000 
    120 CA        -3.6736  -18.4601  -54.2495 C.3       22 UNK         0.1400 
    121 C         -3.5617  -18.0589  -55.7552 C.2       22 UNK         0.5000 
    122 N         -4.3635  -18.6125  -56.6579 N.am      22 UNK        -0.7600 
    123 O         -2.7107  -17.2546  -56.1262 O.2       22 UNK        -0.5000 
    124 C124       -3.3203  -17.2861  -53.2902 C.3       23 UNK        -0.0398 
    125 S125       -3.0850  -17.8213  -51.5628 S.3       23 UNK        -0.2404 
    126 C126       -2.3617  -16.3095  -50.8569 C.3       23 UNK        -0.0205 
    127 H127        9.3678  -17.5385  -47.0189 H         1 UNK         0.0600 
    128 H128        8.4552  -18.8689  -47.7390 H         1 UNK         0.0600 
    129 H129        8.0832  -18.3280  -46.1000 H         1 UNK         0.0600 
    130 H130        6.2433  -17.1039  -46.0076 H         1 UNK         0.3000 
    131 H131        4.6117  -15.7139  -46.4062 H         1 UNK         0.0600 
    132 H132        4.8518  -15.8934  -49.4309 H         1 UNK         0.0800 
    133 H133        4.3879  -17.2905  -48.5151 H         1 UNK         0.0800 
    134 H134        2.0600  -17.5226  -47.0993 H         1 UNK         0.0800 
    135 H135        2.0755  -17.8977  -48.8093 H         1 UNK         0.0800 
    136 H136        0.2743  -16.7219  -50.3016 H         1 UNK         0.1150 
    137 H137       -3.5652  -16.4688  -48.4185 H         1 UNK         0.1150 
    138 H138       -0.0444  -17.0927  -46.0451 H         1 UNK         0.1150 
    139 H139       -2.6028  -15.8652  -45.3057 H         1 UNK         0.0800 
    140 H140       -3.8237  -16.8352  -46.0891 H         1 UNK         0.0800 
    141 H141       -3.8864  -19.3101  -46.2034 H         1 UNK         0.0800 
    142 H142       -3.4061  -20.3167  -44.8619 H         1 UNK         0.0800 
    143 H143       -1.7149  -19.6371  -47.3188 H         1 UNK         0.0600 
    144 H144       -0.6548  -20.3122  -44.8528 H         1 UNK         0.3000 
    145 H145        1.9607  -22.4273  -45.6808 H         1 UNK         0.0600 
    146 H146        3.6106  -20.5855  -45.2980 H         1 UNK         0.0600 
    147 H147        2.9970  -20.5867  -46.9452 H         1 UNK         0.0600 
    148 H148        2.3983  -19.4051  -45.7934 H         1 UNK         0.0600 
    149 H149        1.4656  -20.3403  -43.6737 H         1 UNK         0.3000 
    150 H150       -0.2139  -22.4607  -41.4323 H         1 UNK         0.0600 
    151 H151        1.9983  -23.5752  -41.1624 H         1 UNK         0.0600 
    152 H152        1.7559  -22.3575  -39.9206 H         1 UNK         0.0600 
    153 H153        2.8178  -22.0234  -41.2893 H         1 UNK         0.0600 
    154 H154        1.3802  -20.0401  -41.1582 H         1 UNK         0.3000 
    155 H155       -1.1458  -17.7913  -42.1114 H         1 UNK         0.0600 
    156 H156       -0.2907  -18.4022  -39.2349 H         1 UNK         0.0600 
    157 H157       -1.9531  -18.3443  -39.8114 H         1 UNK         0.0600 
    158 H158       -0.9752  -16.8850  -39.8197 H         1 UNK         0.0600 
    159 H159        1.2695  -17.2275  -40.8224 H         1 UNK         0.3000 
    160 H160        3.5880  -17.5513  -42.1323 H         1 UNK         0.0600 
    161 H161        2.8547  -16.3462  -44.8463 H         1 UNK         0.0600 
    162 H162        3.7322  -17.8502  -44.5707 H         1 UNK         0.0600 
    163 H163        4.4641  -16.3199  -44.1200 H         1 UNK         0.0600 
    164 H164        2.7039  -14.8736  -42.8784 H         1 UNK         0.3000 
    165 H165        2.3770  -13.7457  -39.4890 H         1 UNK         0.0600 
    166 H166        3.8018  -11.9969  -40.5507 H         1 UNK         0.0600 
    167 H167        4.7270  -13.4496  -40.2059 H         1 UNK         0.0600 
    168 H168        4.2232  -13.1076  -41.8540 H         1 UNK         0.0600 
    169 H169        1.7706  -12.7737  -42.1887 H         1 UNK         0.3000 
    170 H170       -1.7062  -13.3529  -41.9637 H         1 UNK         0.0600 
    171 H171       -1.5230  -11.2995  -40.5552 H         1 UNK         0.0600 
    172 H172       -0.2692  -10.6653  -41.6142 H         1 UNK         0.0600 
    173 H173       -1.9112  -10.8915  -42.2187 H         1 UNK         0.0600 
    174 H174       -0.0404  -11.8426  -43.7670 H         1 UNK         0.3000 
    175 H175        0.8952  -14.5447  -45.8531 H         1 UNK         0.0600 
    176 H176       -1.1382  -12.3164  -46.4049 H         1 UNK         0.0600 
    177 H177       -0.2743  -13.2834  -47.6036 H         1 UNK         0.0600 
    178 H178       -1.4746  -14.0325  -46.5680 H         1 UNK         0.0600 
    179 H179        1.2258  -11.7533  -46.1829 H         1 UNK         0.3000 
    180 H180        3.2911  -10.8849  -46.0375 H         1 UNK         0.0600 
    181 H181        3.7608  -10.9589  -42.9916 H         1 UNK         0.0600 
    182 H182        2.4935  -10.0439  -43.8008 H         1 UNK         0.0600 
    183 H183        4.1796   -9.6227  -44.0590 H         1 UNK         0.0600 
    184 H184        4.9392  -12.9460  -44.9030 H         1 UNK         0.3000 
    185 H185        7.5447  -12.1693  -47.1602 H         1 UNK         0.0600 
    186 H186        8.4695  -11.4087  -44.9663 H         1 UNK         0.0600 
    187 H187        7.6631  -12.7404  -44.1466 H         1 UNK         0.0600 
    188 H188        8.9467  -13.0631  -45.3131 H         1 UNK         0.0600 
    189 H189        6.8441  -14.5147  -45.6727 H         1 UNK         0.3000 
    190 H190       -2.1309  -22.6971  -45.5559 H         1 UNK         0.3000 
    191 H191       -4.0790  -23.8300  -47.3519 H         1 UNK         0.0600 
    192 H192       -2.2431  -25.1235  -45.2618 H         1 UNK         0.0600 
    193 H193       -3.6225  -25.9015  -46.0297 H         1 UNK         0.0600 
    194 H194       -3.8766  -24.5219  -44.9737 H         1 UNK         0.0600 
    195 H195       -0.6542  -23.4381  -47.6270 H         1 UNK         0.3000 
    196 H196       -0.3482  -25.6385  -49.6051 H         1 UNK         0.0600 
    197 H197        2.0440  -25.0318  -49.5334 H         1 UNK         0.0600 
    198 H198        1.4564  -25.3621  -47.9110 H         1 UNK         0.0600 
    199 H199        1.7179  -23.6999  -48.4342 H         1 UNK         0.0600 
    200 H200       -0.1903  -22.0692  -49.2544 H         1 UNK         0.3000 
    201 H201        0.3098  -21.4502  -51.9809 H         1 UNK         0.0600 
    202 H202        0.7187  -19.8790  -50.0920 H         1 UNK         0.0600 
    203 H203       -1.0119  -19.7630  -49.7878 H         1 UNK         0.0600 
    204 H204       -0.3367  -19.1549  -51.2951 H         1 UNK         0.0600 
    205 H205       -2.7729  -21.4647  -50.1040 H         1 UNK         0.3000 
    206 H206       -4.3680  -21.7076  -52.6115 H         1 UNK         0.0600 
    207 H207       -5.1592  -19.9887  -50.9833 H         1 UNK         0.0600 
    208 H208       -6.2966  -21.3214  -51.1121 H         1 UNK         0.0600 
    209 H209       -5.2422  -21.2044  -49.7143 H         1 UNK         0.0600 
    210 H210       -3.1681  -23.7433  -52.8701 H         1 UNK         0.3000 
    211 H211       -3.1515  -25.9700  -51.2626 H         1 UNK         0.0600 
    212 H212       -3.4034  -25.8073  -54.3099 H         1 UNK         0.0600 
    213 H213       -2.8924  -27.2296  -53.4090 H         1 UNK         0.0600 
    214 H214       -1.9058  -25.7764  -53.3791 H         1 UNK         0.0600 
    215 H215       -4.7286  -26.9832  -50.2676 H         1 UNK         0.3000 
    216 H216       -6.6360  -27.8915  -49.6285 H         1 UNK         0.0600 
    217 H217       -7.9527  -29.2215  -51.2306 H         1 UNK         0.0600 
    218 H218       -6.2454  -29.4118  -51.5891 H         1 UNK         0.0600 
    219 H219       -7.2472  -28.3658  -52.5946 H         1 UNK         0.0600 
    220 H220       -6.5449  -25.0105  -50.1604 H         1 UNK         0.3000 
    221 H221       -7.6968  -23.1915  -49.9141 H         1 UNK         0.0600 
    222 H222      -10.2632  -24.8312  -49.5973 H         1 UNK         0.0600 
    223 H223       -9.1784  -24.3558  -48.2908 H         1 UNK         0.0600 
    224 H224      -10.0509  -23.1337  -49.2028 H         1 UNK         0.0600 
    225 H225       -9.2800  -25.4381  -52.1293 H         1 UNK         0.3000 
    226 H226      -10.7989  -23.7287  -53.6780 H         1 UNK         0.0600 
    227 H227      -10.9851  -26.1959  -53.7031 H         1 UNK         0.0600 
    228 H228      -10.7626  -25.6064  -55.3428 H         1 UNK         0.0600 
    229 H229       -9.4112  -26.3399  -54.4850 H         1 UNK         0.0600 
    230 H230       -7.3061  -24.2578  -54.0017 H         1 UNK         0.3000 
    231 H231       -7.0256  -23.0872  -56.6095 H         1 UNK         0.0600 
    232 H232       -5.3173  -24.5876  -55.6042 H         1 UNK         0.0600 
    233 H233       -4.9882  -23.3927  -54.3532 H         1 UNK         0.0600 
    234 H234       -4.6094  -23.0361  -56.0316 H         1 UNK         0.0600 
    235 H235       -7.4404  -21.6841  -53.4463 H         1 UNK         0.3000 
    236 H236       -7.4760  -19.6377  -52.5866 H         1 UNK         0.0600 
    237 H237       -8.5766  -18.9720  -55.3639 H         1 UNK         0.0600 
    238 H238       -9.4787  -19.7634  -54.0726 H         1 UNK         0.0600 
    239 H239       -8.9298  -18.1089  -53.8707 H         1 UNK         0.0600 
    240 H240       -4.8432  -20.1478  -53.7528 H         1 UNK         0.3000 
    241 H241       -2.8917  -19.2089  -54.1262 H         1 UNK         0.0600 
    242 H242       -5.0695  -19.2959  -56.3952 H         1 UNK         0.3800 
    243 H243       -4.2688  -18.3493  -57.6256 H         1 UNK         0.3800 
    244 H244       -4.0813  -16.5062  -53.3229 H         1 UNK         0.0800 
    245 H245       -2.3902  -16.8124  -53.6076 H         1 UNK         0.0800 
    246 H246       -3.1392  -15.5505  -50.7595 H         1 UNK         0.0800 
    247 H247       -1.6195  -15.9012  -51.5445 H         1 UNK         0.0800 
@<TRIPOS>BOND
     1    1    2 1    
     2    1  127 1    
     3    1  128 1    
     4    1  129 1    
     5    2    3 2    
     6    2    4 am   BACKBONE|DICT|INTERRES
     7    4    5 1    
     8    4  130 1    
     9    5    6 1    
    10    5   65 1    
    11    5  131 1    
    12    6    7 1    
    13    6  132 1    
    14    6  133 1    
    15    7    8 1    
    16    8    9 1    
    17    8  134 1    
    18    8  135 1    
    19    9   10 ar   
    20    9   14 ar   
    21   10   11 ar   
    22   10  136 1    
    23   11   12 ar   
    24   11  126 1    
    25   12   13 ar   
    26   12  137 1    
    27   13   14 ar   
    28   13   15 1    
    29   14  138 1    
    30   15   16 1    
    31   15  139 1    
    32   15  140 1    
    33   16   17 1    
    34   17   18 1    
    35   17  141 1    
    36   17  142 1    
    37   18   19 1    
    38   18   67 1    
    39   18  143 1    
    40   19   20 am   BACKBONE|DICT|INTERRES
    41   19  144 1    
    42   20   21 2    
    43   20   22 1    
    44   22   23 1    
    45   22   24 1    
    46   22  145 1    
    47   23  146 1    
    48   23  147 1    
    49   23  148 1    
    50   24   25 am   BACKBONE|DICT|INTERRES
    51   24  149 1    
    52   25   26 2    
    53   25   27 1    
    54   27   28 1    
    55   27   29 1    
    56   27  150 1    
    57   28  151 1    
    58   28  152 1    
    59   28  153 1    
    60   29   30 am   BACKBONE|DICT|INTERRES
    61   29  154 1    
    62   30   31 2    
    63   30   32 1    
    64   32   33 1    
    65   32   34 1    
    66   32  155 1    
    67   33  156 1    
    68   33  157 1    
    69   33  158 1    
    70   34   35 am   BACKBONE|DICT|INTERRES
    71   34  159 1    
    72   35   36 2    
    73   35   37 1    
    74   37   38 1    
    75   37   39 1    
    76   37  160 1    
    77   38  161 1    
    78   38  162 1    
    79   38  163 1    
    80   39   40 am   BACKBONE|DICT|INTERRES
    81   39  164 1    
    82   40   41 2    
    83   40   42 1    
    84   42   43 1    
    85   42   44 1    
    86   42  165 1    
    87   43  166 1    
    88   43  167 1    
    89   43  168 1    
    90   44   45 am   BACKBONE|DICT|INTERRES
    91   44  169 1    
    92   45   46 2    
    93   45   47 1    
    94   47   48 1    
    95   47   49 1    
    96   47  170 1    
    97   48  171 1    
    98   48  172 1    
    99   48  173 1    
   100   49   50 am   BACKBONE|DICT|INTERRES
   101   49  174 1    
   102   50   51 2    
   103   50   52 1    
   104   52   53 1    
   105   52   54 1    
   106   52  175 1    
   107   53  176 1    
   108   53  177 1    
   109   53  178 1    
   110   54   55 am   BACKBONE|DICT|INTERRES
   111   54  179 1    
   112   55   56 2    
   113   55   57 1    
   114   57   58 1    
   115   57   59 1    
   116   57  180 1    
   117   58  181 1    
   118   58  182 1    
   119   58  183 1    
   120   59   60 am   BACKBONE|DICT|INTERRES
   121   59  184 1    
   122   60   61 2    
   123   60   62 1    
   124   62   63 1    
   125   62   64 1    
   126   62  185 1    
   127   63  186 1    
   128   63  187 1    
   129   63  188 1    
   130   64   65 am   BACKBONE|DICT|INTERRES
   131   64  189 1    
   132   65   66 2    
   133   67   68 2    
   134   67   69 am   BACKBONE|DICT|INTERRES
   135   69   70 1    
   136   69  190 1    
   137   70   71 1    
   138   70   72 1    
   139   70  191 1    
   140   71  192 1    
   141   71  193 1    
   142   71  194 1    
   143   72   73 2    
   144   72   74 am   BACKBONE|DICT|INTERRES
   145   74   75 1    
   146   74  195 1    
   147   75   76 1    
   148   75   77 1    
   149   75  196 1    
   150   76  197 1    
   151   76  198 1    
   152   76  199 1    
   153   77   78 2    
   154   77   79 am   BACKBONE|DICT|INTERRES
   155   79   80 1    
   156   79  200 1    
   157   80   81 1    
   158   80   82 1    
   159   80  201 1    
   160   81  202 1    
   161   81  203 1    
   162   81  204 1    
   163   82   83 2    
   164   82   84 am   BACKBONE|DICT|INTERRES
   165   84   85 1    
   166   84  205 1    
   167   85   86 1    
   168   85   87 1    
   169   85  206 1    
   170   86  207 1    
   171   86  208 1    
   172   86  209 1    
   173   87   88 2    
   174   87   89 am   BACKBONE|DICT|INTERRES
   175   89   90 1    
   176   89  210 1    
   177   90   91 1    
   178   90   92 1    
   179   90  211 1    
   180   91  212 1    
   181   91  213 1    
   182   91  214 1    
   183   92   93 2    
   184   92   94 am   BACKBONE|DICT|INTERRES
   185   94   95 1    
   186   94  215 1    
   187   95   96 1    
   188   95   97 1    
   189   95  216 1    
   190   96  217 1    
   191   96  218 1    
   192   96  219 1    
   193   97   98 2    
   194   97   99 am   BACKBONE|DICT|INTERRES
   195   99  100 1    
   196   99  220 1    
   197  100  101 1    
   198  100  102 1    
   199  100  221 1    
   200  101  222 1    
   201  101  223 1    
   202  101  224 1    
   203  102  103 2    
   204  102  104 am   BACKBONE|DICT|INTERRES
   205  104  105 1    
   206  104  225 1    
   207  105  106 1    
   208  105  107 1    
   209  105  226 1    
   210  106  227 1    
   211  106  228 1    
   212  106  229 1    
   213  107  108 2    
   214  107  109 am   BACKBONE|DICT|INTERRES
   215  109  110 1    
   216  109  230 1    
   217  110  111 1    
   218  110  112 1    
   219  110  231 1    
   220  111  232 1    
   221  111  233 1    
   222  111  234 1    
   223  112  113 2    
   224  112  114 am   BACKBONE|DICT|INTERRES
   225  114  115 1    
   226  114  235 1    
   227  115  116 1    
   228  115  117 1    
   229  115  236 1    
   230  116  237 1    
   231  116  238 1    
   232  116  239 1    
   233  117  118 2    
   234  117  119 am   BACKBONE|DICT|INTERRES
   235  119  120 1    
   236  119  240 1    
   237  120  121 1    
   238  120  124 1    
   239  120  241 1    
   240  121  122 am   BACKBONE|DICT|INTERRES
   241  121  123 2    
   242  122  242 1    
   243  122  243 1    
   244  124  125 1    
   245  124  244 1    
   246  124  245 1    
   247  125  126 1    
   248  126  246 1    
   249  126  247 1    
@<TRIPOS>SUBSTRUCTURE
     1 UNK         1 GROUP             0       ****    0 ROOT    
