@<TRIPOS>MOLECULE
3R540
247   249    1
SMALL
USER_CHARGES


@<TRIPOS>ATOM
      1 CA         -2.3298  -18.0600  -50.7612 C.3       0 UNK        -0.1800 
      2 C          -1.9011  -17.5876  -49.3840 C.2       0 UNK         0.5000 
      3 O          -0.7094  -17.4403  -49.1170 O.2       0 UNK        -0.5000 
      4 N          -2.8832  -17.3158  -48.5172 N.am      1 UNK        -0.5000 
      5 CA         -2.6929  -16.7625  -47.1731 C.3       1 UNK         0.1400 
      6 C6         -3.9448  -16.9568  -46.2820 C.3       23 UNK        -0.0398 
      7 S7         -5.4925  -16.3132  -47.0132 S.3       23 UNK        -0.2404 
      8 C8         -6.4814  -17.8310  -47.1946 C.3       23 UNK        -0.0205 
      9 C9         -5.9909  -18.7112  -48.3352 C.ar      23 UNK        -0.0193 
     10 C10        -6.3795  -18.4316  -49.6499 C.ar      23 UNK        -0.1150 
     11 C11        -5.9801  -19.2630  -50.7003 C.ar      23 UNK        -0.0193 
     12 C12        -5.1750  -20.3702  -50.4269 C.ar      23 UNK        -0.1150 
     13 C13        -4.7659  -20.6532  -49.1219 C.ar      23 UNK        -0.0193 
     14 C14        -5.1810  -19.8231  -48.0770 C.ar      23 UNK        -0.1150 
     15 C15        -3.8932  -21.8690  -48.8560 C.3       23 UNK        -0.0205 
     16 S16        -2.1493  -21.5202  -49.2322 S.3       23 UNK        -0.2404 
     17 C17        -1.4823  -21.0530  -47.5994 C.3       23 UNK        -0.0398 
     18 CA         -0.6332  -22.2048  -47.0090 C.3       11 UNK         0.1400 
     19 N           0.4500  -21.7354  -46.1424 N.am      11 UNK        -0.5000 
     20 C           1.4857  -22.5039  -45.7745 C.2       10 UNK         0.5000 
     21 O           1.6282  -23.6720  -46.1351 O.2       10 UNK        -0.5000 
     22 CA          2.5107  -21.8881  -44.8079 C.3       10 UNK         0.1400 
     23 CB          3.4639  -20.9403  -45.5504 C.3       10 UNK        -0.1800 
     24 N           1.8786  -21.1906  -43.6887 N.am      10 UNK        -0.5000 
     25 C           1.1007  -21.7840  -42.7718 C.2       9 UNK         0.5000 
     26 O           0.8620  -22.9917  -42.7562 O.2       9 UNK        -0.5000 
     27 CA          0.4437  -20.8727  -41.7204 C.3       9 UNK         0.1400 
     28 CB          1.4399  -20.5216  -40.6055 C.3       9 UNK        -0.1800 
     29 N          -0.1068  -19.6451  -42.2963 N.am      9 UNK        -0.5000 
     30 C          -1.0906  -19.6052  -43.2061 C.2       8 UNK         0.5000 
     31 O          -1.6609  -20.6030  -43.6456 O.2       8 UNK        -0.5000 
     32 CA         -1.4610  -18.2233  -43.7701 C.3       8 UNK         0.1400 
     33 CB         -2.2957  -17.4127  -42.7685 C.3       8 UNK        -0.1800 
     34 N          -0.2888  -17.4518  -44.1811 N.am      8 UNK        -0.5000 
     35 C           0.5836  -17.8398  -45.1228 C.2       7 UNK         0.5000 
     36 O           0.4561  -18.8655  -45.7913 O.2       7 UNK        -0.5000 
     37 CA          1.8394  -16.9707  -45.3030 C.3       7 UNK         0.1400 
     38 CB          1.5549  -15.7481  -46.1871 C.3       7 UNK        -0.1800 
     39 N           2.3902  -16.5372  -44.0187 N.am      7 UNK        -0.5000 
     40 C           2.9675  -17.3588  -43.1301 C.2       6 UNK         0.5000 
     41 O           3.1299  -18.5640  -43.3162 O.2       6 UNK        -0.5000 
     42 CA          3.3949  -16.7350  -41.7900 C.3       6 UNK         0.1400 
     43 CB          4.7461  -16.0179  -41.9293 C.3       6 UNK        -0.1800 
     44 N           2.3983  -15.7998  -41.2680 N.am      6 UNK        -0.5000 
     45 C           1.1716  -16.1519  -40.8575 C.2       5 UNK         0.5000 
     46 O           0.7628  -17.3119  -40.8401 O.2       5 UNK        -0.5000 
     47 CA          0.2287  -15.0102  -40.4374 C.3       5 UNK         0.1400 
     48 CB          0.4110  -14.6794  -38.9488 C.3       5 UNK        -0.1800 
     49 N           0.4102  -13.7931  -41.2332 N.am      5 UNK        -0.5000 
     50 C           0.1697  -13.7043  -42.5475 C.2       4 UNK         0.5000 
     51 O          -0.2085  -14.6505  -43.2410 O.2       4 UNK        -0.5000 
     52 CA          0.4468  -12.3468  -43.2006 C.3       4 UNK         0.1400 
     53 CB          1.8410  -12.3284  -43.8498 C.3       4 UNK        -0.1800 
     54 N          -0.5699  -12.0749  -44.2131 N.am      4 UNK        -0.5000 
     55 C          -1.0845  -10.8625  -44.4607 C.2       3 UNK         0.5000 
     56 O          -0.7268   -9.8421  -43.8690 O.2       3 UNK        -0.5000 
     57 CA         -2.1523  -10.7713  -45.5657 C.3       3 UNK         0.1400 
     58 CB         -2.3987   -9.3319  -46.0609 C.3       3 UNK        -0.1800 
     59 N          -1.7772  -11.6266  -46.6870 N.am      3 UNK        -0.5000 
     60 C          -2.6316  -12.2434  -47.5091 C.2       2 UNK         0.5000 
     61 O          -3.8550  -12.1049  -47.4559 O.2       2 UNK        -0.5000 
     62 CA         -2.0296  -13.1990  -48.5611 C.3       2 UNK         0.1400 
     63 CB         -0.4942  -13.0974  -48.7122 C.3       2 UNK        -0.1800 
     64 N          -2.4160  -14.5880  -48.3053 N.am      2 UNK        -0.5000 
     65 C          -2.2239  -15.2905  -47.1764 C.2       1 UNK         0.5000 
     66 O          -1.6972  -14.8313  -46.1629 O.2       1 UNK        -0.5000 
     67 C          -1.5022  -23.2815  -46.3256 C.2       11 UNK         0.5000 
     68 O          -1.8920  -24.2446  -46.9834 O.2       11 UNK        -0.5000 
     69 N          -1.7527  -23.1424  -45.0153 N.am      12 UNK        -0.5000 
     70 CA         -2.4498  -24.1444  -44.2054 C.3       12 UNK         0.1400 
     71 CB         -2.7360  -23.5791  -42.8063 C.3       12 UNK        -0.1800 
     72 C          -1.6806  -25.4763  -44.1126 C.2       12 UNK         0.5000 
     73 O          -2.3005  -26.5373  -44.1911 O.2       12 UNK        -0.5000 
     74 N          -0.3486  -25.3984  -43.9808 N.am      13 UNK        -0.5000 
     75 CA          0.5532  -26.5506  -43.9877 C.3       13 UNK         0.1400 
     76 CB          1.9427  -26.1197  -43.4936 C.3       13 UNK        -0.1800 
     77 C           0.6449  -27.2246  -45.3701 C.2       13 UNK         0.5000 
     78 O           0.6405  -28.4541  -45.4442 O.2       13 UNK        -0.5000 
     79 N           0.7147  -26.4152  -46.4370 N.am      14 UNK        -0.5000 
     80 CA          0.7469  -26.8734  -47.8285 C.3       14 UNK         0.1400 
     81 CB          1.1471  -25.7031  -48.7399 C.3       14 UNK        -0.1800 
     82 C          -0.5879  -27.4790  -48.3025 C.2       14 UNK         0.5000 
     83 O          -0.5787  -28.3667  -49.1565 O.2       14 UNK        -0.5000 
     84 N          -1.7028  -26.9721  -47.7586 N.am      15 UNK        -0.5000 
     85 CA         -3.1093  -27.2879  -48.0311 C.3       15 UNK         0.1400 
     86 CB         -3.4221  -28.7775  -47.7945 C.3       15 UNK        -0.1800 
     87 C          -3.5927  -26.8136  -49.4151 C.2       15 UNK         0.5000 
     88 O          -4.6533  -26.1935  -49.5052 O.2       15 UNK        -0.5000 
     89 N          -2.8098  -27.0923  -50.4631 N.am      16 UNK        -0.5000 
     90 CA         -2.9969  -26.5696  -51.8136 C.3       16 UNK         0.1400 
     91 CB         -2.1321  -27.3859  -52.7862 C.3       16 UNK        -0.1800 
     92 C          -2.6232  -25.0777  -51.8803 C.2       16 UNK         0.5000 
     93 O          -1.6712  -24.6561  -51.2191 O.2       16 UNK        -0.5000 
     94 N          -3.3654  -24.3158  -52.6927 N.am      17 UNK        -0.5000 
     95 CA         -3.1346  -22.8913  -52.9267 C.3       17 UNK         0.1400 
     96 CB         -4.3387  -22.3026  -53.6804 C.3       17 UNK        -0.1800 
     97 C          -1.8361  -22.6443  -53.7145 C.2       17 UNK         0.5000 
     98 O          -1.5851  -23.3275  -54.7106 O.2       17 UNK        -0.5000 
     99 N          -1.0606  -21.6524  -53.2740 N.am      18 UNK        -0.5000 
    100 CA         0.1550  -21.1683  -53.9145 C.3       18 UNK         0.1400 
    101 CB         1.3386  -22.0990  -53.5937 C.3       18 UNK        -0.1800 
    102 C          0.4098  -19.7477  -53.3983 C.2       18 UNK         0.5000 
    103 O          0.1405  -19.4840  -52.2254 O.2       18 UNK        -0.5000 
    104 N          0.9274  -18.8762  -54.2746 N.am      19 UNK        -0.5000 
    105 CA         1.1371  -17.4367  -54.0673 C.3       19 UNK         0.1400 
    106 CB         2.1212  -17.1755  -52.9041 C.3       19 UNK        -0.1800 
    107 C         -0.1889  -16.6526  -53.9274 C.2       19 UNK         0.5000 
    108 O         -1.2588  -17.1815  -54.2415 O.2       19 UNK        -0.5000 
    109 N         -0.0888  -15.3818  -53.5099 N.am      20 UNK        -0.5000 
    110 CA        -1.1799  -14.4052  -53.4043 C.3       20 UNK         0.1400 
    111 CB        -2.1167  -14.7642  -52.2278 C.3       20 UNK        -0.1800 
    112 C         -1.9104  -14.2108  -54.7542 C.2       20 UNK         0.5000 
    113 O         -1.2537  -14.1930  -55.7985 O.2       20 UNK        -0.5000 
    114 N         -3.2397  -14.0599  -54.7188 N.am      21 UNK        -0.5000 
    115 CA        -4.0844  -13.9533  -55.9084 C.3       21 UNK         0.1400 
    116 CB        -5.3301  -13.1239  -55.5584 C.3       21 UNK        -0.1800 
    117 C         -4.5006  -15.3276  -56.4681 C.2       21 UNK         0.5000 
    118 O         -4.7543  -15.4317  -57.6692 O.2       21 UNK        -0.5000 
    119 N         -4.6026  -16.3403  -55.5967 N.am      22 UNK        -0.5000 
    120 CA        -5.1260  -17.6759  -55.9283 C.3       22 UNK         0.1400 
    121 C         -4.0756  -18.6894  -56.4642 C.2       22 UNK         0.5000 
    122 N         -2.7811  -18.4993  -56.2497 N.am      22 UNK        -0.7600 
    123 O         -4.4454  -19.6624  -57.1159 O.2       22 UNK        -0.5000 
    124 C124       -5.9722  -18.2662  -54.7713 C.3       23 UNK        -0.0398 
    125 S125       -5.1063  -18.3430  -53.1671 S.3       23 UNK        -0.2404 
    126 C126       -6.4446  -18.9979  -52.1244 C.3       23 UNK        -0.0205 
    127 H127       -2.2565  -19.1425  -50.8409 H         1 UNK         0.0600 
    128 H128       -1.6911  -17.6218  -51.5256 H         1 UNK         0.0600 
    129 H129       -3.3572  -17.7681  -50.9708 H         1 UNK         0.0600 
    130 H130       -3.8448  -17.4781  -48.7855 H         1 UNK         0.3000 
    131 H131       -1.8797  -17.3279  -46.7173 H         1 UNK         0.0600 
    132 H132       -4.0646  -18.0169  -46.0607 H         1 UNK         0.0800 
    133 H133       -3.8044  -16.4789  -45.3111 H         1 UNK         0.0800 
    134 H134       -6.4858  -18.3832  -46.2535 H         1 UNK         0.0800 
    135 H135       -7.5190  -17.5492  -47.3798 H         1 UNK         0.0800 
    136 H136       -7.0100  -17.5766  -49.8506 H         1 UNK         0.1150 
    137 H137       -4.8647  -21.0134  -51.2354 H         1 UNK         0.1150 
    138 H138       -4.8816  -20.0496  -47.0637 H         1 UNK         0.1150 
    139 H139       -4.0028  -22.2135  -47.8268 H         1 UNK         0.0800 
    140 H140       -4.2234  -22.6976  -49.4849 H         1 UNK         0.0800 
    141 H141       -0.8570  -20.1745  -47.7647 H         1 UNK         0.0800 
    142 H142       -2.2739  -20.7306  -46.9206 H         1 UNK         0.0800 
    143 H143       -0.1336  -22.6993  -47.8452 H         1 UNK         0.0600 
    144 H144        0.4112  -20.7664  -45.8350 H         1 UNK         0.3000 
    145 H145        3.1049  -22.7054  -44.3938 H         1 UNK         0.0600 
    146 H146        4.2506  -20.5763  -44.8896 H         1 UNK         0.0600 
    147 H147        3.9496  -21.4490  -46.3840 H         1 UNK         0.0600 
    148 H148        2.9391  -20.0747  -45.9546 H         1 UNK         0.0600 
    149 H149        2.0677  -20.1960  -43.6079 H         1 UNK         0.3000 
    150 H150       -0.3833  -21.4274  -41.2728 H         1 UNK         0.0600 
    151 H151        1.8587  -21.4231  -40.1566 H         1 UNK         0.0600 
    152 H152        0.9556  -19.9565  -39.8091 H         1 UNK         0.0600 
    153 H153        2.2708  -19.9237  -40.9813 H         1 UNK         0.0600 
    154 H154        0.2865  -18.7709  -41.9571 H         1 UNK         0.3000 
    155 H155       -2.0706  -18.3956  -44.6565 H         1 UNK         0.0600 
    156 H156       -2.5631  -16.4368  -43.1742 H         1 UNK         0.0600 
    157 H157       -1.7589  -17.2476  -41.8350 H         1 UNK         0.0600 
    158 H158       -3.2232  -17.9323  -42.5252 H         1 UNK         0.0600 
    159 H159       -0.1433  -16.5579  -43.7204 H         1 UNK         0.3000 
    160 H160        2.5917  -17.5802  -45.8078 H         1 UNK         0.0600 
    161 H161        0.8736  -15.0503  -45.7018 H         1 UNK         0.0600 
    162 H162        1.0997  -16.0457  -47.1330 H         1 UNK         0.0600 
    163 H163        2.4727  -15.2092  -46.4218 H         1 UNK         0.0600 
    164 H164        2.2472  -15.5716  -43.7655 H         1 UNK         0.3000 
    165 H165        3.5113  -17.5456  -41.0673 H         1 UNK         0.0600 
    166 H166        4.6882  -15.1750  -42.6192 H         1 UNK         0.0600 
    167 H167        5.0930  -15.6411  -40.9671 H         1 UNK         0.0600 
    168 H168        5.5112  -16.6984  -42.3056 H         1 UNK         0.0600 
    169 H169        2.6525  -14.8237  -41.2441 H         1 UNK         0.3000 
    170 H170       -0.7960  -15.3567  -40.5855 H         1 UNK         0.0600 
    171 H171        0.2611  -15.5662  -38.3312 H         1 UNK         0.0600 
    172 H172        1.4113  -14.2985  -38.7390 H         1 UNK         0.0600 
    173 H173       -0.3100  -13.9309  -38.6198 H         1 UNK         0.0600 
    174 H174        0.7281  -12.9743  -40.7347 H         1 UNK         0.3000 
    175 H175        0.4099  -11.5841  -42.4196 H         1 UNK         0.0600 
    176 H176        2.0644  -11.3479  -44.2707 H         1 UNK         0.0600 
    177 H177        2.6188  -12.5519  -43.1187 H         1 UNK         0.0600 
    178 H178        1.9217  -13.0612  -44.6530 H         1 UNK         0.0600 
    179 H179       -0.9394  -12.8939  -44.6849 H         1 UNK         0.3000 
    180 H180       -3.0775  -11.1462  -45.1231 H         1 UNK         0.0600 
    181 H181       -3.1848   -9.3013  -46.8153 H         1 UNK         0.0600 
    182 H182       -2.7137   -8.6826  -45.2432 H         1 UNK         0.0600 
    183 H183       -1.4977   -8.9004  -46.4985 H         1 UNK         0.0600 
    184 H184       -0.7894  -11.8180  -46.7814 H         1 UNK         0.3000 
    185 H185       -2.4748  -12.9206  -49.5172 H         1 UNK         0.0600 
    186 H186       -0.1420  -13.7401  -49.5193 H         1 UNK         0.0600 
    187 H187       -0.1880  -12.0799  -48.9584 H         1 UNK         0.0600 
    188 H188        0.0330  -13.3976  -47.8059 H         1 UNK         0.0600 
    189 H189       -2.8976  -15.0552  -49.0589 H         1 UNK         0.3000 
    190 H190       -1.4522  -22.2983  -44.5351 H         1 UNK         0.3000 
    191 H191       -3.4080  -24.3507  -44.6868 H         1 UNK         0.0600 
    192 H192       -3.2678  -24.3068  -42.1921 H         1 UNK         0.0600 
    193 H193       -3.3577  -22.6855  -42.8624 H         1 UNK         0.0600 
    194 H194       -1.8176  -23.3154  -42.2820 H         1 UNK         0.0600 
    195 H195        0.0789  -24.4856  -43.8593 H         1 UNK         0.3000 
    196 H196        0.1614  -27.2886  -43.2846 H         1 UNK         0.0600 
    197 H197        2.6288  -26.9670  -43.4693 H         1 UNK         0.0600 
    198 H198        1.8919  -25.7125  -42.4836 H         1 UNK         0.0600 
    199 H199        2.3831  -25.3582  -44.1375 H         1 UNK         0.0600 
    200 H200        0.7896  -25.4130  -46.2858 H         1 UNK         0.3000 
    201 H201        1.5117  -27.6480  -47.9129 H         1 UNK         0.0600 
    202 H202        2.1146  -25.2903  -48.4539 H         1 UNK         0.0600 
    203 H203        0.4129  -24.8975  -48.7028 H         1 UNK         0.0600 
    204 H204        1.2235  -26.0251  -49.7793 H         1 UNK         0.0600 
    205 H205       -1.5818  -26.1555  -47.1662 H         1 UNK         0.3000 
    206 H206       -3.6748  -26.7177  -47.2923 H         1 UNK         0.0600 
    207 H207       -3.1161  -29.0888  -46.7956 H         1 UNK         0.0600 
    208 H208       -4.4929  -28.9654  -47.8809 H         1 UNK         0.0600 
    209 H209       -2.9213  -29.4228  -48.5163 H         1 UNK         0.0600 
    210 H210       -1.9415  -27.5837  -50.2755 H         1 UNK         0.3000 
    211 H211       -4.0461  -26.6902  -52.0917 H         1 UNK         0.0600 
    212 H212       -1.0720  -27.3124  -52.5390 H         1 UNK         0.0600 
    213 H213       -2.2558  -27.0322  -53.8106 H         1 UNK         0.0600 
    214 H214       -2.4079  -28.4405  -52.7699 H         1 UNK         0.0600 
    215 H215       -4.1014  -24.7446  -53.2340 H         1 UNK         0.3000 
    216 H216       -3.0592  -22.3980  -51.9564 H         1 UNK         0.0600 
    217 H217       -4.2132  -21.2302  -53.8360 H         1 UNK         0.0600 
    218 H218       -5.2658  -22.4453  -53.1253 H         1 UNK         0.0600 
    219 H219       -4.4625  -22.7611  -54.6623 H         1 UNK         0.0600 
    220 H220       -1.3241  -21.1202  -52.4530 H         1 UNK         0.3000 
    221 H221       -0.0011  -21.1310  -54.9947 H         1 UNK         0.0600 
    222 H222        1.5049  -22.1774  -52.5185 H         1 UNK         0.0600 
    223 H223        1.1706  -23.1044  -53.9798 H         1 UNK         0.0600 
    224 H224        2.2599  -21.7279  -54.0438 H         1 UNK         0.0600 
    225 H225        1.0991  -19.1976  -55.2166 H         1 UNK         0.3000 
    226 H226        1.6062  -17.0737  -54.9828 H         1 UNK         0.0600 
    227 H227        2.9958  -17.8221  -52.9753 H         1 UNK         0.0600 
    228 H228        2.4851  -16.1480  -52.9143 H         1 UNK         0.0600 
    229 H229        1.6572  -17.3476  -51.9320 H         1 UNK         0.0600 
    230 H230        0.8332  -15.0197  -53.3147 H         1 UNK         0.3000 
    231 H231       -0.7102  -13.4485  -53.1724 H         1 UNK         0.0600 
    232 H232       -2.7957  -13.9431  -51.9964 H         1 UNK         0.0600 
    233 H233       -1.5447  -14.9682  -51.3226 H         1 UNK         0.0600 
    234 H234       -2.7207  -15.6461  -52.4437 H         1 UNK         0.0600 
    235 H235       -3.7088  -14.0663  -53.8251 H         1 UNK         0.3000 
    236 H236       -3.5416  -13.4247  -56.6951 H         1 UNK         0.0600 
    237 H237       -5.9230  -13.5965  -54.7743 H         1 UNK         0.0600 
    238 H238       -5.0557  -12.1256  -55.2170 H         1 UNK         0.0600 
    239 H239       -5.9755  -13.0022  -56.4294 H         1 UNK         0.0600 
    240 H240       -4.3341  -16.1993  -54.6345 H         1 UNK         0.3000 
    241 H241       -5.8255  -17.5507  -56.7575 H         1 UNK         0.0600 
    242 H242       -2.1268  -19.1621  -56.6295 H         1 UNK         0.3800 
    243 H243       -2.4432  -17.7766  -55.6199 H         1 UNK         0.3800 
    244 H244       -6.8655  -17.6544  -54.6382 H         1 UNK         0.0800 
    245 H245       -6.3340  -19.2638  -55.0276 H         1 UNK         0.0800 
    246 H246       -7.2802  -18.2963  -52.1294 H         1 UNK         0.0800 
    247 H247       -6.8182  -19.9271  -52.5574 H         1 UNK         0.0800 
@<TRIPOS>BOND
     1    1    2 1    
     2    1  127 1    
     3    1  128 1    
     4    1  129 1    
     5    2    3 2    
     6    2    4 am   BACKBONE|DICT|INTERRES
     7    4    5 1    
     8    4  130 1    
     9    5    6 1    
    10    5   65 1    
    11    5  131 1    
    12    6    7 1    
    13    6  132 1    
    14    6  133 1    
    15    7    8 1    
    16    8    9 1    
    17    8  134 1    
    18    8  135 1    
    19    9   10 ar   
    20    9   14 ar   
    21   10   11 ar   
    22   10  136 1    
    23   11   12 ar   
    24   11  126 1    
    25   12   13 ar   
    26   12  137 1    
    27   13   14 ar   
    28   13   15 1    
    29   14  138 1    
    30   15   16 1    
    31   15  139 1    
    32   15  140 1    
    33   16   17 1    
    34   17   18 1    
    35   17  141 1    
    36   17  142 1    
    37   18   19 1    
    38   18   67 1    
    39   18  143 1    
    40   19   20 am   BACKBONE|DICT|INTERRES
    41   19  144 1    
    42   20   21 2    
    43   20   22 1    
    44   22   23 1    
    45   22   24 1    
    46   22  145 1    
    47   23  146 1    
    48   23  147 1    
    49   23  148 1    
    50   24   25 am   BACKBONE|DICT|INTERRES
    51   24  149 1    
    52   25   26 2    
    53   25   27 1    
    54   27   28 1    
    55   27   29 1    
    56   27  150 1    
    57   28  151 1    
    58   28  152 1    
    59   28  153 1    
    60   29   30 am   BACKBONE|DICT|INTERRES
    61   29  154 1    
    62   30   31 2    
    63   30   32 1    
    64   32   33 1    
    65   32   34 1    
    66   32  155 1    
    67   33  156 1    
    68   33  157 1    
    69   33  158 1    
    70   34   35 am   BACKBONE|DICT|INTERRES
    71   34  159 1    
    72   35   36 2    
    73   35   37 1    
    74   37   38 1    
    75   37   39 1    
    76   37  160 1    
    77   38  161 1    
    78   38  162 1    
    79   38  163 1    
    80   39   40 am   BACKBONE|DICT|INTERRES
    81   39  164 1    
    82   40   41 2    
    83   40   42 1    
    84   42   43 1    
    85   42   44 1    
    86   42  165 1    
    87   43  166 1    
    88   43  167 1    
    89   43  168 1    
    90   44   45 am   BACKBONE|DICT|INTERRES
    91   44  169 1    
    92   45   46 2    
    93   45   47 1    
    94   47   48 1    
    95   47   49 1    
    96   47  170 1    
    97   48  171 1    
    98   48  172 1    
    99   48  173 1    
   100   49   50 am   BACKBONE|DICT|INTERRES
   101   49  174 1    
   102   50   51 2    
   103   50   52 1    
   104   52   53 1    
   105   52   54 1    
   106   52  175 1    
   107   53  176 1    
   108   53  177 1    
   109   53  178 1    
   110   54   55 am   BACKBONE|DICT|INTERRES
   111   54  179 1    
   112   55   56 2    
   113   55   57 1    
   114   57   58 1    
   115   57   59 1    
   116   57  180 1    
   117   58  181 1    
   118   58  182 1    
   119   58  183 1    
   120   59   60 am   BACKBONE|DICT|INTERRES
   121   59  184 1    
   122   60   61 2    
   123   60   62 1    
   124   62   63 1    
   125   62   64 1    
   126   62  185 1    
   127   63  186 1    
   128   63  187 1    
   129   63  188 1    
   130   64   65 am   BACKBONE|DICT|INTERRES
   131   64  189 1    
   132   65   66 2    
   133   67   68 2    
   134   67   69 am   BACKBONE|DICT|INTERRES
   135   69   70 1    
   136   69  190 1    
   137   70   71 1    
   138   70   72 1    
   139   70  191 1    
   140   71  192 1    
   141   71  193 1    
   142   71  194 1    
   143   72   73 2    
   144   72   74 am   BACKBONE|DICT|INTERRES
   145   74   75 1    
   146   74  195 1    
   147   75   76 1    
   148   75   77 1    
   149   75  196 1    
   150   76  197 1    
   151   76  198 1    
   152   76  199 1    
   153   77   78 2    
   154   77   79 am   BACKBONE|DICT|INTERRES
   155   79   80 1    
   156   79  200 1    
   157   80   81 1    
   158   80   82 1    
   159   80  201 1    
   160   81  202 1    
   161   81  203 1    
   162   81  204 1    
   163   82   83 2    
   164   82   84 am   BACKBONE|DICT|INTERRES
   165   84   85 1    
   166   84  205 1    
   167   85   86 1    
   168   85   87 1    
   169   85  206 1    
   170   86  207 1    
   171   86  208 1    
   172   86  209 1    
   173   87   88 2    
   174   87   89 am   BACKBONE|DICT|INTERRES
   175   89   90 1    
   176   89  210 1    
   177   90   91 1    
   178   90   92 1    
   179   90  211 1    
   180   91  212 1    
   181   91  213 1    
   182   91  214 1    
   183   92   93 2    
   184   92   94 am   BACKBONE|DICT|INTERRES
   185   94   95 1    
   186   94  215 1    
   187   95   96 1    
   188   95   97 1    
   189   95  216 1    
   190   96  217 1    
   191   96  218 1    
   192   96  219 1    
   193   97   98 2    
   194   97   99 am   BACKBONE|DICT|INTERRES
   195   99  100 1    
   196   99  220 1    
   197  100  101 1    
   198  100  102 1    
   199  100  221 1    
   200  101  222 1    
   201  101  223 1    
   202  101  224 1    
   203  102  103 2    
   204  102  104 am   BACKBONE|DICT|INTERRES
   205  104  105 1    
   206  104  225 1    
   207  105  106 1    
   208  105  107 1    
   209  105  226 1    
   210  106  227 1    
   211  106  228 1    
   212  106  229 1    
   213  107  108 2    
   214  107  109 am   BACKBONE|DICT|INTERRES
   215  109  110 1    
   216  109  230 1    
   217  110  111 1    
   218  110  112 1    
   219  110  231 1    
   220  111  232 1    
   221  111  233 1    
   222  111  234 1    
   223  112  113 2    
   224  112  114 am   BACKBONE|DICT|INTERRES
   225  114  115 1    
   226  114  235 1    
   227  115  116 1    
   228  115  117 1    
   229  115  236 1    
   230  116  237 1    
   231  116  238 1    
   232  116  239 1    
   233  117  118 2    
   234  117  119 am   BACKBONE|DICT|INTERRES
   235  119  120 1    
   236  119  240 1    
   237  120  121 1    
   238  120  124 1    
   239  120  241 1    
   240  121  122 am   BACKBONE|DICT|INTERRES
   241  121  123 2    
   242  122  242 1    
   243  122  243 1    
   244  124  125 1    
   245  124  244 1    
   246  124  245 1    
   247  125  126 1    
   248  126  246 1    
   249  126  247 1    
@<TRIPOS>SUBSTRUCTURE
     1 UNK         1 GROUP             0       ****    0 ROOT    
