@<TRIPOS>MOLECULE
3R540
247   249    1
SMALL
USER_CHARGES


@<TRIPOS>ATOM
      1 CA          6.5320  -12.5810  -50.3505 C.3       0 UNK        -0.1800 
      2 C           5.7806  -12.8267  -49.0504 C.2       0 UNK         0.5000 
      3 O           6.4018  -12.9697  -47.9969 O.2       0 UNK        -0.5000 
      4 N           4.4442  -12.8608  -49.1114 N.am      1 UNK        -0.5000 
      5 CA          3.5221  -13.0885  -47.9908 C.3       1 UNK         0.1400 
      6 C6          2.1783  -13.7137  -48.4566 C.3       23 UNK        -0.0398 
      7 S7          1.4236  -12.9173  -49.9195 S.3       23 UNK        -0.2404 
      8 C8          1.5982  -14.2282  -51.1736 C.3       23 UNK        -0.0205 
      9 C9          0.6326  -15.3805  -50.9327 C.ar      23 UNK        -0.0193 
     10 C10        -0.6991  -15.2689  -51.3350 C.ar      23 UNK        -0.1150 
     11 C11        -1.5936  -16.3262  -51.1458 C.ar      23 UNK        -0.0193 
     12 C12        -1.1542  -17.4924  -50.5103 C.ar      23 UNK        -0.1150 
     13 C13         0.1812  -17.6223  -50.1082 C.ar      23 UNK        -0.0193 
     14 C14         1.0678  -16.5639  -50.3299 C.ar      23 UNK        -0.1150 
     15 C15         0.6853  -18.8898  -49.4273 C.3       23 UNK        -0.0205 
     16 S16         0.3312  -20.3975  -50.3824 S.3       23 UNK        -0.2404 
     17 C17        -1.1442  -21.0363  -49.5208 C.3       23 UNK        -0.0398 
     18 CA         -0.8030  -22.2739  -48.6604 C.3       11 UNK         0.1400 
     19 N          -0.0364  -21.9313  -47.4581 N.am      11 UNK        -0.5000 
     20 C           0.5830  -22.8271  -46.6777 C.2       10 UNK         0.5000 
     21 O           0.6062  -24.0340  -46.9164 O.2       10 UNK        -0.5000 
     22 CA          1.2167  -22.2948  -45.3816 C.3       10 UNK         0.1400 
     23 CB          2.5948  -21.6763  -45.6587 C.3       10 UNK        -0.1800 
     24 N           0.3473  -21.3185  -44.7213 N.am      10 UNK        -0.5000 
     25 C          -0.7919  -21.6478  -44.0916 C.2       9 UNK         0.5000 
     26 O          -1.1769  -22.8085  -43.9571 O.2       9 UNK        -0.5000 
     27 CA         -1.6709  -20.5071  -43.5390 C.3       9 UNK         0.1400 
     28 CB         -1.3529  -20.2633  -42.0564 C.3       9 UNK        -0.1800 
     29 N          -1.5582  -19.2449  -44.2694 N.am      9 UNK        -0.5000 
     30 C          -1.7997  -19.0683  -45.5761 C.2       8 UNK         0.5000 
     31 O          -2.1898  -19.9616  -46.3291 O.2       8 UNK        -0.5000 
     32 CA         -1.4758  -17.6744  -46.1488 C.3       8 UNK         0.1400 
     33 CB         -2.6821  -16.7373  -46.0050 C.3       8 UNK        -0.1800 
     34 N          -0.2977  -17.0558  -45.5292 N.am      8 UNK        -0.5000 
     35 C           0.9331  -17.5910  -45.4995 C.2       7 UNK         0.5000 
     36 O           1.2193  -18.6700  -46.0164 O.2       7 UNK        -0.5000 
     37 CA          2.0073  -16.8258  -44.7103 C.3       7 UNK         0.1400 
     38 CB          2.5762  -15.6598  -45.5301 C.3       7 UNK        -0.1800 
     39 N           1.4701  -16.3344  -43.4421 N.am      7 UNK        -0.5000 
     40 C           1.3881  -17.0779  -42.3293 C.2       6 UNK         0.5000 
     41 O           1.8661  -18.2079  -42.2295 O.2       6 UNK        -0.5000 
     42 CA          0.6241  -16.4806  -41.1313 C.3       6 UNK         0.1400 
     43 CB          1.5896  -15.8529  -40.1172 C.3       6 UNK        -0.1800 
     44 N          -0.3774  -15.4880  -41.5236 N.am      6 UNK        -0.5000 
     45 C          -1.5350  -15.7937  -42.1261 C.2       5 UNK         0.5000 
     46 O          -1.8729  -16.9429  -42.4071 O.2       5 UNK        -0.5000 
     47 CA         -2.4478  -14.6189  -42.5258 C.3       5 UNK         0.1400 
     48 CB         -3.3903  -14.2547  -41.3694 C.3       5 UNK        -0.1800 
     49 N          -1.7229  -13.4199  -42.9517 N.am      5 UNK        -0.5000 
     50 C          -0.8326  -13.3602  -43.9514 C.2       4 UNK         0.5000 
     51 O          -0.4970  -14.3374  -44.6224 O.2       4 UNK        -0.5000 
     52 CA         -0.1792  -11.9957  -44.2407 C.3       4 UNK         0.1400 
     53 CB         -0.8619  -10.8025  -43.5351 C.3       4 UNK        -0.1800 
     54 N           1.2555  -12.0046  -43.9473 N.am      4 UNK        -0.5000 
     55 C           1.8523  -12.2801  -42.7753 C.2       3 UNK         0.5000 
     56 O           1.2406  -12.6482  -41.7709 O.2       3 UNK        -0.5000 
     57 CA          3.3889  -12.1252  -42.6990 C.3       3 UNK         0.1400 
     58 CB          4.0637  -13.4498  -42.3084 C.3       3 UNK        -0.1800 
     59 N           3.9876  -11.6437  -43.9458 N.am      3 UNK        -0.5000 
     60 C           4.0035  -10.3669  -44.3547 C.2       2 UNK         0.5000 
     61 O           3.5750   -9.4287  -43.6824 O.2       2 UNK        -0.5000 
     62 CA          4.5612  -10.0979  -45.7678 C.3       2 UNK         0.1400 
     63 CB          6.0221   -9.6296  -45.6916 C.3       2 UNK        -0.1800 
     64 N           4.4809  -11.2566  -46.6632 N.am      2 UNK        -0.5000 
     65 C           3.3536  -11.8428  -47.0881 C.2       1 UNK         0.5000 
     66 O           2.2328  -11.4522  -46.7585 O.2       1 UNK        -0.5000 
     67 C          -2.0683  -23.0791  -48.3066 C.2       11 UNK         0.5000 
     68 O          -2.3868  -24.0345  -49.0101 O.2       11 UNK        -0.5000 
     69 N          -2.7260  -22.7271  -47.1930 N.am      12 UNK        -0.5000 
     70 CA         -3.8766  -23.4516  -46.6464 C.3       12 UNK         0.1400 
     71 CB         -4.5587  -22.5811  -45.5816 C.3       12 UNK        -0.1800 
     72 C          -3.5394  -24.8469  -46.0789 C.2       12 UNK         0.5000 
     73 O          -4.4581  -25.6381  -45.8651 O.2       12 UNK        -0.5000 
     74 N          -2.2521  -25.1254  -45.8344 N.am      13 UNK        -0.5000 
     75 CA         -1.7488  -26.4456  -45.4632 C.3       13 UNK         0.1400 
     76 CB         -0.5835  -26.2907  -44.4730 C.3       13 UNK        -0.1800 
     77 C          -1.3116  -27.2385  -46.7076 C.2       13 UNK         0.5000 
     78 O          -1.5940  -28.4344  -46.7915 O.2       13 UNK        -0.5000 
     79 N          -0.6223  -26.5684  -47.6430 N.am      14 UNK        -0.5000 
     80 CA         -0.1006  -27.1552  -48.8786 C.3       14 UNK         0.1400 
     81 CB          0.8963  -26.1772  -49.5196 C.3       14 UNK        -0.1800 
     82 C          -1.1978  -27.5420  -49.8879 C.2       14 UNK         0.5000 
     83 O          -1.0980  -28.5984  -50.5141 O.2       14 UNK        -0.5000 
     84 N          -2.2122  -26.6834  -50.0280 N.am      15 UNK        -0.5000 
     85 CA         -3.3756  -26.8638  -50.8913 C.3       15 UNK         0.1400 
     86 CB         -3.4016  -25.7153  -51.9158 C.3       15 UNK        -0.1800 
     87 C          -4.6576  -26.9010  -50.0395 C.2       15 UNK         0.5000 
     88 O          -4.5924  -26.8205  -48.8119 O.2       15 UNK        -0.5000 
     89 N          -5.8119  -27.0427  -50.7056 N.am      16 UNK        -0.5000 
     90 CA         -7.1359  -27.1456  -50.0785 C.3       16 UNK         0.1400 
     91 CB         -8.1590  -27.5458  -51.1531 C.3       16 UNK        -0.1800 
     92 C          -7.6001  -25.8654  -49.3517 C.2       16 UNK         0.5000 
     93 O          -8.4374  -25.9467  -48.4520 O.2       16 UNK        -0.5000 
     94 N          -7.0547  -24.7155  -49.7552 N.am      17 UNK        -0.5000 
     95 CA         -7.2875  -23.3918  -49.1949 C.3       17 UNK         0.1400 
     96 CB         -8.6152  -22.8210  -49.7259 C.3       17 UNK        -0.1800 
     97 C          -6.1083  -22.5072  -49.6139 C.2       17 UNK         0.5000 
     98 O          -5.3885  -22.8622  -50.5508 O.2       17 UNK        -0.5000 
     99 N          -5.9412  -21.3537  -48.9530 N.am      18 UNK        -0.5000 
    100 CA        -4.8803  -20.3888  -49.2646 C.3       18 UNK         0.1400 
    101 CB        -4.9181  -19.2212  -48.2691 C.3       18 UNK        -0.1800 
    102 C         -4.9478  -19.8679  -50.7119 C.2       18 UNK         0.5000 
    103 O         -3.9170  -19.7593  -51.3738 O.2       18 UNK        -0.5000 
    104 N         -6.1771  -19.6188  -51.1814 N.am      19 UNK        -0.5000 
    105 CA        -6.4961  -19.1749  -52.5368 C.3       19 UNK         0.1400 
    106 CB        -7.9405  -18.6507  -52.5494 C.3       19 UNK        -0.1800 
    107 C         -6.3129  -20.2621  -53.6161 C.2       19 UNK         0.5000 
    108 O         -6.2507  -19.9177  -54.7963 O.2       19 UNK        -0.5000 
    109 N         -6.2476  -21.5430  -53.2176 N.am      20 UNK        -0.5000 
    110 CA        -6.0918  -22.6780  -54.1333 C.3       20 UNK         0.1400 
    111 CB        -6.5609  -23.9705  -53.4460 C.3       20 UNK        -0.1800 
    112 C         -4.6532  -22.8207  -54.6676 C.2       20 UNK         0.5000 
    113 O         -4.4688  -23.3820  -55.7484 O.2       20 UNK        -0.5000 
    114 N         -3.6734  -22.2927  -53.9219 N.am      21 UNK        -0.5000 
    115 CA        -2.3009  -22.0881  -54.3747 C.3       21 UNK         0.1400 
    116 CB        -1.3264  -22.4951  -53.2552 C.3       21 UNK        -0.1800 
    117 C         -2.1804  -20.6183  -54.8145 C.2       21 UNK         0.5000 
    118 O         -2.6429  -20.2863  -55.9067 O.2       21 UNK        -0.5000 
    119 N         -1.6097  -19.7595  -53.9568 N.am      22 UNK        -0.5000 
    120 CA        -1.5531  -18.2955  -54.1302 C.3       22 UNK         0.1400 
    121 C         -0.6668  -17.8068  -55.3199 C.2       22 UNK         0.5000 
    122 N          0.2914  -18.5994  -55.7858 N.am      22 UNK        -0.7600 
    123 O         -0.8243  -16.6968  -55.8202 O.2       22 UNK        -0.5000 
    124 C124       -2.9816  -17.6747  -54.0980 C.3       23 UNK        -0.0398 
    125 S125       -3.0861  -15.9675  -53.4592 S.3       23 UNK        -0.2404 
    126 C126       -3.0247  -16.2017  -51.6494 C.3       23 UNK        -0.0205 
    127 H127        5.8529  -12.4729  -51.1967 H         1 UNK         0.0600 
    128 H128        7.2042  -13.4135  -50.5579 H         1 UNK         0.0600 
    129 H129        7.1274  -11.6713  -50.2733 H         1 UNK         0.0600 
    130 H130        3.9890  -12.6909  -49.9974 H         1 UNK         0.3000 
    131 H131        3.9888  -13.8326  -47.3424 H         1 UNK         0.0600 
    132 H132        2.3555  -14.7641  -48.6787 H         1 UNK         0.0800 
    133 H133        1.4372  -13.7221  -47.6561 H         1 UNK         0.0800 
    134 H134        1.4073  -13.7990  -52.1583 H         1 UNK         0.0800 
    135 H135        2.6292  -14.5850  -51.1944 H         1 UNK         0.0800 
    136 H136       -1.0371  -14.3618  -51.8164 H         1 UNK         0.1150 
    137 H137       -1.8452  -18.3083  -50.3557 H         1 UNK         0.1150 
    138 H138        2.1016  -16.6608  -50.0301 H         1 UNK         0.1150 
    139 H139        1.7652  -18.8379  -49.2805 H         1 UNK         0.0800 
    140 H140        0.2573  -18.9656  -48.4304 H         1 UNK         0.0800 
    141 H141       -1.8801  -21.2885  -50.2830 H         1 UNK         0.0800 
    142 H142       -1.6051  -20.2541  -48.9172 H         1 UNK         0.0800 
    143 H143       -0.1807  -22.9368  -49.2654 H         1 UNK         0.0600 
    144 H144       -0.0494  -20.9640  -47.1679 H         1 UNK         0.3000 
    145 H145        1.3591  -23.1400  -44.7046 H         1 UNK         0.0600 
    146 H146        3.0333  -21.2622  -44.7506 H         1 UNK         0.0600 
    147 H147        2.5430  -20.8797  -46.4010 H         1 UNK         0.0600 
    148 H148        3.2852  -22.4292  -46.0406 H         1 UNK         0.0600 
    149 H149        0.5901  -20.3413  -44.8345 H         1 UNK         0.3000 
    150 H150       -2.7104  -20.8285  -43.6112 H         1 UNK         0.0600 
    151 H151       -1.4343  -21.1863  -41.4807 H         1 UNK         0.0600 
    152 H152       -2.0465  -19.5471  -41.6160 H         1 UNK         0.0600 
    153 H153       -0.3415  -19.8794  -41.9209 H         1 UNK         0.0600 
    154 H154       -1.3122  -18.4305  -43.7172 H         1 UNK         0.3000 
    155 H155       -1.2689  -17.7886  -47.2131 H         1 UNK         0.0600 
    156 H156       -3.5477  -17.1293  -46.5389 H         1 UNK         0.0600 
    157 H157       -2.4678  -15.7488  -46.4122 H         1 UNK         0.0600 
    158 H158       -2.9722  -16.6179  -44.9622 H         1 UNK         0.0600 
    159 H159       -0.4350  -16.1381  -45.1130 H         1 UNK         0.3000 
    160 H160        2.8279  -17.5196  -44.5144 H         1 UNK         0.0600 
    161 H161        1.8459  -14.8631  -45.6623 H         1 UNK         0.0600 
    162 H162        2.8858  -15.9982  -46.5195 H         1 UNK         0.0600 
    163 H163        3.4544  -15.2323  -45.0488 H         1 UNK         0.0600 
    164 H164        0.9928  -15.4428  -43.4672 H         1 UNK         0.3000 
    165 H165        0.1100  -17.3065  -40.6345 H         1 UNK         0.0600 
    166 H166        1.0639  -15.5443  -39.2135 H         1 UNK         0.0600 
    167 H167        2.3630  -16.5616  -39.8181 H         1 UNK         0.0600 
    168 H168        2.0857  -14.9762  -40.5289 H         1 UNK         0.0600 
    169 H169       -0.1458  -14.5146  -41.3676 H         1 UNK         0.3000 
    170 H170       -3.0587  -14.9454  -43.3682 H         1 UNK         0.0600 
    171 H171       -2.8407  -13.8802  -40.5048 H         1 UNK         0.0600 
    172 H172       -4.1070  -13.4901  -41.6695 H         1 UNK         0.0600 
    173 H173       -3.9626  -15.1244  -41.0434 H         1 UNK         0.0600 
    174 H174       -1.9117  -12.5738  -42.4343 H         1 UNK         0.3000 
    175 H175       -0.2724  -11.8394  -45.3164 H         1 UNK         0.0600 
    176 H176       -0.7787  -10.8587  -42.4492 H         1 UNK         0.0600 
    177 H177       -0.4104   -9.8609  -43.8480 H         1 UNK         0.0600 
    178 H178       -1.9213  -10.7471  -43.7887 H         1 UNK         0.0600 
    179 H179        1.8420  -11.7491  -44.7332 H         1 UNK         0.3000 
    180 H180        3.6006  -11.3981  -41.9123 H         1 UNK         0.0600 
    181 H181        5.1500  -13.3739  -42.3598 H         1 UNK         0.0600 
    182 H182        3.7519  -14.2725  -42.9510 H         1 UNK         0.0600 
    183 H183        3.8156  -13.7198  -41.2827 H         1 UNK         0.0600 
    184 H184        4.3765  -12.3433  -44.5603 H         1 UNK         0.3000 
    185 H185        3.9651   -9.2951  -46.2065 H         1 UNK         0.0600 
    186 H186        6.4013   -9.3588  -46.6773 H         1 UNK         0.0600 
    187 H187        6.1188   -8.7496  -45.0542 H         1 UNK         0.0600 
    188 H188        6.6717  -10.4049  -45.2834 H         1 UNK         0.0600 
    189 H189        5.3600  -11.6596  -46.9745 H         1 UNK         0.3000 
    190 H190       -2.4275  -21.8947  -46.6935 H         1 UNK         0.3000 
    191 H191       -4.5848  -23.6115  -47.4597 H         1 UNK         0.0600 
    192 H192       -4.7978  -21.5908  -45.9673 H         1 UNK         0.0600 
    193 H193       -3.9251  -22.4592  -44.7042 H         1 UNK         0.0600 
    194 H194       -5.4925  -23.0351  -45.2480 H         1 UNK         0.0600 
    195 H195       -1.5630  -24.4026  -45.9870 H         1 UNK         0.3000 
    196 H196       -2.5340  -27.0149  -44.9613 H         1 UNK         0.0600 
    197 H197       -0.8986  -25.7541  -43.5778 H         1 UNK         0.0600 
    198 H198        0.2543  -25.7464  -44.9085 H         1 UNK         0.0600 
    199 H199       -0.2112  -27.2652  -44.1552 H         1 UNK         0.0600 
    200 H200       -0.3708  -25.6010  -47.4656 H         1 UNK         0.3000 
    201 H201        0.4423  -28.0649  -48.6140 H         1 UNK         0.0600 
    202 H202        1.7164  -25.9464  -48.8393 H         1 UNK         0.0600 
    203 H203        0.4158  -25.2381  -49.7954 H         1 UNK         0.0600 
    204 H204        1.3330  -26.6011  -50.4247 H         1 UNK         0.0600 
    205 H205       -2.2358  -25.8430  -49.4541 H         1 UNK         0.3000 
    206 H206       -3.3122  -27.8117  -51.4291 H         1 UNK         0.0600 
    207 H207       -3.5671  -24.7485  -51.4382 H         1 UNK         0.0600 
    208 H208       -2.4595  -25.6590  -52.4606 H         1 UNK         0.0600 
    209 H209       -4.1859  -25.8613  -52.6580 H         1 UNK         0.0600 
    210 H210       -5.7895  -27.1163  -51.7121 H         1 UNK         0.3000 
    211 H211       -7.0925  -27.9432  -49.3338 H         1 UNK         0.0600 
    212 H212       -8.2286  -26.7943  -51.9408 H         1 UNK         0.0600 
    213 H213       -9.1543  -27.6621  -50.7220 H         1 UNK         0.0600 
    214 H214       -7.8949  -28.4966  -51.6164 H         1 UNK         0.0600 
    215 H215       -6.3288  -24.7325  -50.4608 H         1 UNK         0.3000 
    216 H216       -7.3103  -23.4556  -48.1051 H         1 UNK         0.0600 
    217 H217       -8.8061  -21.8256  -49.3237 H         1 UNK         0.0600 
    218 H218       -9.4591  -23.4493  -49.4409 H         1 UNK         0.0600 
    219 H219       -8.6114  -22.7420  -50.8139 H         1 UNK         0.0600 
    220 H220       -6.5727  -21.1113  -48.2031 H         1 UNK         0.3000 
    221 H221       -3.9300  -20.9051  -49.1429 H         1 UNK         0.0600 
    222 H222       -5.8619  -18.6771  -48.3169 H         1 UNK         0.0600 
    223 H223       -4.7816  -19.5672  -47.2452 H         1 UNK         0.0600 
    224 H224       -4.1169  -18.5111  -48.4783 H         1 UNK         0.0600 
    225 H225       -6.9601  -19.7558  -50.5595 H         1 UNK         0.3000 
    226 H226       -5.8354  -18.3437  -52.7881 H         1 UNK         0.0600 
    227 H227       -8.0692  -17.8305  -51.8428 H         1 UNK         0.0600 
    228 H228       -8.2113  -18.2717  -53.5358 H         1 UNK         0.0600 
    229 H229       -8.6548  -19.4336  -52.2911 H         1 UNK         0.0600 
    230 H230       -6.2446  -21.7564  -52.2288 H         1 UNK         0.3000 
    231 H231       -6.7424  -22.5110  -54.9945 H         1 UNK         0.0600 
    232 H232       -6.5544  -24.8059  -54.1470 H         1 UNK         0.0600 
    233 H233       -7.5778  -23.8729  -53.0657 H         1 UNK         0.0600 
    234 H234       -5.9155  -24.2431  -52.6141 H         1 UNK         0.0600 
    235 H235       -3.9333  -21.8269  -53.0630 H         1 UNK         0.3000 
    236 H236       -2.0816  -22.7076  -55.2467 H         1 UNK         0.0600 
    237 H237       -1.5434  -21.9791  -52.3243 H         1 UNK         0.0600 
    238 H238       -1.3876  -23.5646  -53.0569 H         1 UNK         0.0600 
    239 H239       -0.2933  -22.2774  -53.5292 H         1 UNK         0.0600 
    240 H240       -1.2552  -20.1107  -53.0788 H         1 UNK         0.3000 
    241 H241       -1.0192  -17.9456  -53.2497 H         1 UNK         0.0600 
    242 H242        0.4415  -19.5123  -55.3871 H         1 UNK         0.3800 
    243 H243        0.8679  -18.2843  -56.5502 H         1 UNK         0.3800 
    244 H244       -3.6353  -18.2846  -53.4780 H         1 UNK         0.0800 
    245 H245       -3.4286  -17.7003  -55.0931 H         1 UNK         0.0800 
    246 H246       -3.6238  -17.0671  -51.3650 H         1 UNK         0.0800 
    247 H247       -3.4875  -15.3385  -51.1694 H         1 UNK         0.0800 
@<TRIPOS>BOND
     1    1    2 1    
     2    1  127 1    
     3    1  128 1    
     4    1  129 1    
     5    2    3 2    
     6    2    4 am   BACKBONE|DICT|INTERRES
     7    4    5 1    
     8    4  130 1    
     9    5    6 1    
    10    5   65 1    
    11    5  131 1    
    12    6    7 1    
    13    6  132 1    
    14    6  133 1    
    15    7    8 1    
    16    8    9 1    
    17    8  134 1    
    18    8  135 1    
    19    9   10 ar   
    20    9   14 ar   
    21   10   11 ar   
    22   10  136 1    
    23   11   12 ar   
    24   11  126 1    
    25   12   13 ar   
    26   12  137 1    
    27   13   14 ar   
    28   13   15 1    
    29   14  138 1    
    30   15   16 1    
    31   15  139 1    
    32   15  140 1    
    33   16   17 1    
    34   17   18 1    
    35   17  141 1    
    36   17  142 1    
    37   18   19 1    
    38   18   67 1    
    39   18  143 1    
    40   19   20 am   BACKBONE|DICT|INTERRES
    41   19  144 1    
    42   20   21 2    
    43   20   22 1    
    44   22   23 1    
    45   22   24 1    
    46   22  145 1    
    47   23  146 1    
    48   23  147 1    
    49   23  148 1    
    50   24   25 am   BACKBONE|DICT|INTERRES
    51   24  149 1    
    52   25   26 2    
    53   25   27 1    
    54   27   28 1    
    55   27   29 1    
    56   27  150 1    
    57   28  151 1    
    58   28  152 1    
    59   28  153 1    
    60   29   30 am   BACKBONE|DICT|INTERRES
    61   29  154 1    
    62   30   31 2    
    63   30   32 1    
    64   32   33 1    
    65   32   34 1    
    66   32  155 1    
    67   33  156 1    
    68   33  157 1    
    69   33  158 1    
    70   34   35 am   BACKBONE|DICT|INTERRES
    71   34  159 1    
    72   35   36 2    
    73   35   37 1    
    74   37   38 1    
    75   37   39 1    
    76   37  160 1    
    77   38  161 1    
    78   38  162 1    
    79   38  163 1    
    80   39   40 am   BACKBONE|DICT|INTERRES
    81   39  164 1    
    82   40   41 2    
    83   40   42 1    
    84   42   43 1    
    85   42   44 1    
    86   42  165 1    
    87   43  166 1    
    88   43  167 1    
    89   43  168 1    
    90   44   45 am   BACKBONE|DICT|INTERRES
    91   44  169 1    
    92   45   46 2    
    93   45   47 1    
    94   47   48 1    
    95   47   49 1    
    96   47  170 1    
    97   48  171 1    
    98   48  172 1    
    99   48  173 1    
   100   49   50 am   BACKBONE|DICT|INTERRES
   101   49  174 1    
   102   50   51 2    
   103   50   52 1    
   104   52   53 1    
   105   52   54 1    
   106   52  175 1    
   107   53  176 1    
   108   53  177 1    
   109   53  178 1    
   110   54   55 am   BACKBONE|DICT|INTERRES
   111   54  179 1    
   112   55   56 2    
   113   55   57 1    
   114   57   58 1    
   115   57   59 1    
   116   57  180 1    
   117   58  181 1    
   118   58  182 1    
   119   58  183 1    
   120   59   60 am   BACKBONE|DICT|INTERRES
   121   59  184 1    
   122   60   61 2    
   123   60   62 1    
   124   62   63 1    
   125   62   64 1    
   126   62  185 1    
   127   63  186 1    
   128   63  187 1    
   129   63  188 1    
   130   64   65 am   BACKBONE|DICT|INTERRES
   131   64  189 1    
   132   65   66 2    
   133   67   68 2    
   134   67   69 am   BACKBONE|DICT|INTERRES
   135   69   70 1    
   136   69  190 1    
   137   70   71 1    
   138   70   72 1    
   139   70  191 1    
   140   71  192 1    
   141   71  193 1    
   142   71  194 1    
   143   72   73 2    
   144   72   74 am   BACKBONE|DICT|INTERRES
   145   74   75 1    
   146   74  195 1    
   147   75   76 1    
   148   75   77 1    
   149   75  196 1    
   150   76  197 1    
   151   76  198 1    
   152   76  199 1    
   153   77   78 2    
   154   77   79 am   BACKBONE|DICT|INTERRES
   155   79   80 1    
   156   79  200 1    
   157   80   81 1    
   158   80   82 1    
   159   80  201 1    
   160   81  202 1    
   161   81  203 1    
   162   81  204 1    
   163   82   83 2    
   164   82   84 am   BACKBONE|DICT|INTERRES
   165   84   85 1    
   166   84  205 1    
   167   85   86 1    
   168   85   87 1    
   169   85  206 1    
   170   86  207 1    
   171   86  208 1    
   172   86  209 1    
   173   87   88 2    
   174   87   89 am   BACKBONE|DICT|INTERRES
   175   89   90 1    
   176   89  210 1    
   177   90   91 1    
   178   90   92 1    
   179   90  211 1    
   180   91  212 1    
   181   91  213 1    
   182   91  214 1    
   183   92   93 2    
   184   92   94 am   BACKBONE|DICT|INTERRES
   185   94   95 1    
   186   94  215 1    
   187   95   96 1    
   188   95   97 1    
   189   95  216 1    
   190   96  217 1    
   191   96  218 1    
   192   96  219 1    
   193   97   98 2    
   194   97   99 am   BACKBONE|DICT|INTERRES
   195   99  100 1    
   196   99  220 1    
   197  100  101 1    
   198  100  102 1    
   199  100  221 1    
   200  101  222 1    
   201  101  223 1    
   202  101  224 1    
   203  102  103 2    
   204  102  104 am   BACKBONE|DICT|INTERRES
   205  104  105 1    
   206  104  225 1    
   207  105  106 1    
   208  105  107 1    
   209  105  226 1    
   210  106  227 1    
   211  106  228 1    
   212  106  229 1    
   213  107  108 2    
   214  107  109 am   BACKBONE|DICT|INTERRES
   215  109  110 1    
   216  109  230 1    
   217  110  111 1    
   218  110  112 1    
   219  110  231 1    
   220  111  232 1    
   221  111  233 1    
   222  111  234 1    
   223  112  113 2    
   224  112  114 am   BACKBONE|DICT|INTERRES
   225  114  115 1    
   226  114  235 1    
   227  115  116 1    
   228  115  117 1    
   229  115  236 1    
   230  116  237 1    
   231  116  238 1    
   232  116  239 1    
   233  117  118 2    
   234  117  119 am   BACKBONE|DICT|INTERRES
   235  119  120 1    
   236  119  240 1    
   237  120  121 1    
   238  120  124 1    
   239  120  241 1    
   240  121  122 am   BACKBONE|DICT|INTERRES
   241  121  123 2    
   242  122  242 1    
   243  122  243 1    
   244  124  125 1    
   245  124  244 1    
   246  124  245 1    
   247  125  126 1    
   248  126  246 1    
   249  126  247 1    
@<TRIPOS>SUBSTRUCTURE
     1 UNK         1 GROUP             0       ****    0 ROOT    
