@<TRIPOS>MOLECULE
3R540
247   249    1
SMALL
USER_CHARGES


@<TRIPOS>ATOM
      1 CA         -1.2803   -9.6154  -49.2717 C.3       0 UNK        -0.1800 
      2 C          -2.0881  -10.8129  -48.7760 C.2       0 UNK         0.5000 
      3 O          -3.3146  -10.7879  -48.8523 O.2       0 UNK        -0.5000 
      4 N          -1.4587  -11.8789  -48.2618 N.am      1 UNK        -0.5000 
      5 CA         -0.0116  -12.0499  -48.0661 C.3       1 UNK         0.1400 
      6 C6          0.3964  -13.5441  -48.0840 C.3       23 UNK        -0.0398 
      7 S7         -0.4785  -14.5965  -46.8678 S.3       23 UNK        -0.2404 
      8 C8         -1.6261  -15.5519  -47.9263 C.3       23 UNK        -0.0205 
      9 C9         -0.9468  -16.3555  -49.0340 C.ar      23 UNK        -0.0193 
     10 C10        -1.5203  -16.3984  -50.3088 C.ar      23 UNK        -0.1150 
     11 C11        -0.9057  -17.1107  -51.3427 C.ar      23 UNK        -0.0193 
     12 C12         0.2967  -17.7800  -51.0984 C.ar      23 UNK        -0.1150 
     13 C13         0.8761  -17.7582  -49.8269 C.ar      23 UNK        -0.0193 
     14 C14         0.2417  -17.0545  -48.7995 C.ar      23 UNK        -0.1150 
     15 C15         2.2048  -18.4584  -49.5665 C.3       23 UNK        -0.0205 
     16 S16         2.1762  -20.2402  -49.9467 S.3       23 UNK        -0.2404 
     17 C17         0.7806  -20.8512  -48.9449 C.3       23 UNK        -0.0398 
     18 CA          1.1388  -22.1640  -48.2018 C.3       11 UNK         0.1400 
     19 N           1.8873  -21.9099  -46.9658 N.am      11 UNK        -0.5000 
     20 C           2.6143  -22.8347  -46.3244 C.2       10 UNK         0.5000 
     21 O           2.7465  -23.9949  -46.7164 O.2       10 UNK        -0.5000 
     22 CA          3.3036  -22.3956  -45.0216 C.3       10 UNK         0.1400 
     23 CB          4.5831  -21.6031  -45.3305 C.3       10 UNK        -0.1800 
     24 N           2.4280  -21.6106  -44.1486 N.am      10 UNK        -0.5000 
     25 C           1.3714  -22.1093  -43.4894 C.2       9 UNK         0.5000 
     26 O           1.0244  -23.2891  -43.5490 O.2       9 UNK        -0.5000 
     27 CA          0.5483  -21.1271  -42.6328 C.3       9 UNK         0.1400 
     28 CB          1.2636  -20.8170  -41.3087 C.3       9 UNK        -0.1800 
     29 N           0.2589  -19.8750  -43.3255 N.am      9 UNK        -0.5000 
     30 C          -0.4763  -19.7599  -44.4393 C.2       8 UNK         0.5000 
     31 O          -1.0684  -20.6915  -44.9831 O.2       8 UNK        -0.5000 
     32 CA         -0.5129  -18.3688  -45.0893 C.3       8 UNK         0.1400 
     33 CB         -1.6609  -17.5322  -44.5031 C.3       8 UNK        -0.1800 
     34 N           0.7662  -17.6615  -44.9662 N.am      8 UNK        -0.5000 
     35 C           1.9064  -18.0885  -45.5281 C.2       7 UNK         0.5000 
     36 O           1.9987  -19.1327  -46.1738 O.2       7 UNK        -0.5000 
     37 CA          3.1503  -17.2117  -45.3302 C.3       7 UNK         0.1400 
     38 CB          2.9920  -15.8468  -46.0202 C.3       7 UNK        -0.1800 
     39 N           3.4937  -17.0098  -43.9248 N.am      7 UNK        -0.5000 
     40 C           3.9305  -17.9661  -43.0947 C.2       6 UNK         0.5000 
     41 O           3.9327  -19.1639  -43.3719 O.2       6 UNK        -0.5000 
     42 CA          4.4635  -17.5057  -41.7304 C.3       6 UNK         0.1400 
     43 CB          5.6866  -16.5867  -41.8914 C.3       6 UNK        -0.1800 
     44 N           3.4215  -16.7964  -40.9997 N.am      6 UNK        -0.5000 
     45 C           2.8126  -17.2512  -39.8970 C.2       5 UNK         0.5000 
     46 O           3.1305  -18.2883  -39.3138 O.2       5 UNK        -0.5000 
     47 CA          1.6369  -16.4143  -39.3496 C.3       5 UNK         0.1400 
     48 CB          2.1004  -15.5443  -38.1711 C.3       5 UNK        -0.1800 
     49 N           0.9990  -15.5542  -40.3496 N.am      5 UNK        -0.5000 
     50 C           0.3933  -15.9882  -41.4628 C.2       4 UNK         0.5000 
     51 O           0.2897  -17.1767  -41.7662 O.2       4 UNK        -0.5000 
     52 CA         -0.1280  -14.9113  -42.4321 C.3       4 UNK         0.1400 
     53 CB         -1.5904  -14.5625  -42.1215 C.3       4 UNK        -0.1800 
     54 N           0.6606  -13.6775  -42.4649 N.am      4 UNK        -0.5000 
     55 C           1.9657  -13.5719  -42.7483 C.2       3 UNK         0.5000 
     56 O           2.7111  -14.5443  -42.8792 O.2       3 UNK        -0.5000 
     57 CA          2.5136  -12.1421  -42.9392 C.3       3 UNK         0.1400 
     58 CB          3.9661  -12.1349  -43.4483 C.3       3 UNK        -0.1800 
     59 N           1.6901  -11.3643  -43.8681 N.am      3 UNK        -0.5000 
     60 C           0.5288  -10.7643  -43.5862 C.2       2 UNK         0.5000 
     61 O           0.0026  -10.8056  -42.4733 O.2       2 UNK        -0.5000 
     62 CA         -0.1890  -10.0330  -44.7361 C.3       2 UNK         0.1400 
     63 CB          0.4912   -8.6884  -45.0573 C.3       2 UNK        -0.1800 
     64 N          -0.3854  -10.8405  -45.9484 N.am      2 UNK        -0.5000 
     65 C           0.5239  -11.3141  -46.8153 C.2       1 UNK         0.5000 
     66 O           1.7397  -11.1722  -46.6787 O.2       1 UNK        -0.5000 
     67 C          -0.1254  -23.0180  -47.9674 C.2       11 UNK         0.5000 
     68 O          -0.5724  -23.6762  -48.9050 O.2       11 UNK        -0.5000 
     69 N          -0.6818  -22.9827  -46.7468 N.am      12 UNK        -0.5000 
     70 CA         -1.9942  -23.5129  -46.3598 C.3       12 UNK         0.1400 
     71 CB         -2.0780  -25.0434  -46.5384 C.3       12 UNK        -0.1800 
     72 C          -3.1241  -22.7457  -47.0760 C.2       12 UNK         0.5000 
     73 O          -4.0415  -23.3449  -47.6388 O.2       12 UNK        -0.5000 
     74 N          -3.0307  -21.4089  -47.0340 N.am      13 UNK        -0.5000 
     75 CA         -3.9061  -20.4620  -47.7350 C.3       13 UNK         0.1400 
     76 CB         -3.2231  -19.0874  -47.7915 C.3       13 UNK        -0.1800 
     77 C          -5.3465  -20.3728  -47.1880 C.2       13 UNK         0.5000 
     78 O          -6.1528  -19.6159  -47.7292 O.2       13 UNK        -0.5000 
     79 N          -5.6607  -21.1621  -46.1521 N.am      14 UNK        -0.5000 
     80 CA         -7.0238  -21.4445  -45.7042 C.3       14 UNK         0.1400 
     81 CB         -6.9656  -22.1405  -44.3359 C.3       14 UNK        -0.1800 
     82 C          -7.8087  -22.3046  -46.7183 C.2       14 UNK         0.5000 
     83 O          -9.0345  -22.1971  -46.7760 O.2       14 UNK        -0.5000 
     84 N          -7.0991  -23.1289  -47.5047 N.am      15 UNK        -0.5000 
     85 CA         -7.6541  -23.8718  -48.6346 C.3       15 UNK         0.1400 
     86 CB         -6.7121  -25.0368  -48.9782 C.3       15 UNK        -0.1800 
     87 C          -7.8320  -22.9510  -49.8549 C.2       15 UNK         0.5000 
     88 O          -7.0752  -21.9892  -50.0140 O.2       15 UNK        -0.5000 
     89 N          -8.8004  -23.2844  -50.7188 N.am      16 UNK        -0.5000 
     90 CA         -9.0888  -22.5808  -51.9718 C.3       16 UNK         0.1400 
     91 CB        -10.3001  -23.2346  -52.6544 C.3       16 UNK        -0.1800 
     92 C          -7.8661  -22.5761  -52.9077 C.2       16 UNK         0.5000 
     93 O          -7.3518  -23.6487  -53.2305 O.2       16 UNK        -0.5000 
     94 N          -7.3904  -21.3712  -53.2568 N.am      17 UNK        -0.5000 
     95 CA         -6.1631  -21.0878  -54.0171 C.3       17 UNK         0.1400 
     96 CB         -6.3141  -21.5465  -55.4825 C.3       17 UNK        -0.1800 
     97 C          -4.8800  -21.6464  -53.3597 C.2       17 UNK         0.5000 
     98 O          -3.9021  -21.9136  -54.0623 O.2       17 UNK        -0.5000 
     99 N          -4.9177  -21.8362  -52.0292 N.am      18 UNK        -0.5000 
    100 CA        -3.9099  -22.5136  -51.2090 C.3       18 UNK         0.1400 
    101 CB        -2.6379  -21.6557  -51.1047 C.3       18 UNK        -0.1800 
    102 C         -3.6443  -23.9477  -51.7091 C.2       18 UNK         0.5000 
    103 O         -2.4914  -24.3465  -51.8921 O.2       18 UNK        -0.5000 
    104 N         -4.7401  -24.6542  -52.0302 N.am      19 UNK        -0.5000 
    105 CA        -4.8476  -25.9486  -52.7145 C.3       19 UNK         0.1400 
    106 CB        -4.1286  -27.0691  -51.9398 C.3       19 UNK        -0.1800 
    107 C         -4.3998  -25.8882  -54.1888 C.2       19 UNK         0.5000 
    108 O         -5.1298  -26.3466  -55.0684 O.2       19 UNK        -0.5000 
    109 N         -3.2264  -25.2972  -54.4248 N.am      20 UNK        -0.5000 
    110 CA        -2.6479  -24.9898  -55.7281 C.3       20 UNK         0.1400 
    111 CB        -2.1072  -26.2753  -56.3839 C.3       20 UNK        -0.1800 
    112 C         -1.5415  -23.9197  -55.6446 C.2       20 UNK         0.5000 
    113 O         -1.1387  -23.4137  -56.6937 O.2       20 UNK        -0.5000 
    114 N         -1.0397  -23.5931  -54.4397 N.am      21 UNK        -0.5000 
    115 CA         0.1391  -22.7413  -54.2460 C.3       21 UNK         0.1400 
    116 CB         0.6166  -22.8318  -52.7871 C.3       21 UNK        -0.1800 
    117 C         -0.0248  -21.2757  -54.6985 C.2       21 UNK         0.5000 
    118 O          0.9863  -20.6383  -54.9981 O.2       21 UNK        -0.5000 
    119 N         -1.2650  -20.7743  -54.7831 N.am      22 UNK        -0.5000 
    120 CA        -1.5751  -19.4612  -55.3786 C.3       22 UNK         0.1400 
    121 C         -1.7531  -19.5008  -56.9262 C.2       22 UNK         0.5000 
    122 N         -1.6579  -20.6464  -57.5921 N.am      22 UNK        -0.7600 
    123 O         -1.9696  -18.4620  -57.5445 O.2       22 UNK        -0.5000 
    124 C124       -2.7757  -18.7509  -54.6973 C.3       23 UNK        -0.0398 
    125 S125       -2.6080  -18.6165  -52.8867 S.3       23 UNK        -0.2404 
    126 C126       -1.5339  -17.1601  -52.7256 C.3       23 UNK        -0.0205 
    127 H127       -1.9453   -8.8254  -49.6213 H         1 UNK         0.0600 
    128 H128       -0.6383   -9.9003  -50.1050 H         1 UNK         0.0600 
    129 H129       -0.6634   -9.1983  -48.4762 H         1 UNK         0.0600 
    130 H130       -2.0174  -12.6570  -47.9423 H         1 UNK         0.3000 
    131 H131        0.4988  -11.5909  -48.9143 H         1 UNK         0.0600 
    132 H132        1.4692  -13.6501  -47.9128 H         1 UNK         0.0800 
    133 H133        0.2330  -13.9379  -49.0872 H         1 UNK         0.0800 
    134 H134       -2.1913  -16.2408  -47.2990 H         1 UNK         0.0800 
    135 H135       -2.3543  -14.8614  -48.3536 H         1 UNK         0.0800 
    136 H136       -2.4473  -15.8766  -50.5004 H         1 UNK         0.1150 
    137 H137        0.7790  -18.3262  -51.8972 H         1 UNK         0.1150 
    138 H138        0.6847  -17.0292  -47.8172 H         1 UNK         0.1150 
    139 H139        2.9710  -17.9863  -50.1825 H         1 UNK         0.0800 
    140 H140        2.5256  -18.3212  -48.5353 H         1 UNK         0.0800 
    141 H141        0.4464  -20.0877  -48.2408 H         1 UNK         0.0800 
    142 H142       -0.0451  -20.9936  -49.6431 H         1 UNK         0.0800 
    143 H143        1.7753  -22.7611  -48.8591 H         1 UNK         0.0600 
    144 H144        1.8730  -20.9574  -46.6066 H         1 UNK         0.3000 
    145 H145        3.5939  -23.2992  -44.4814 H         1 UNK         0.0600 
    146 H146        5.1439  -21.3925  -44.4199 H         1 UNK         0.0600 
    147 H147        4.3610  -20.6514  -45.8150 H         1 UNK         0.0600 
    148 H148        5.2420  -22.1646  -45.9939 H         1 UNK         0.0600 
    149 H149        2.6758  -20.6340  -44.0263 H         1 UNK         0.3000 
    150 H150       -0.4054  -21.6057  -42.4008 H         1 UNK         0.0600 
    151 H151        2.2154  -20.3102  -41.4715 H         1 UNK         0.0600 
    152 H152        0.6530  -20.1772  -40.6709 H         1 UNK         0.0600 
    153 H153        1.4694  -21.7318  -40.7516 H         1 UNK         0.0600 
    154 H154        0.6597  -19.0318  -42.9329 H         1 UNK         0.3000 
    155 H155       -0.7054  -18.5067  -46.1550 H         1 UNK         0.0600 
    156 H156       -2.6245  -18.0029  -44.6954 H         1 UNK         0.0600 
    157 H157       -1.6953  -16.5328  -44.9333 H         1 UNK         0.0600 
    158 H158       -1.5825  -17.4327  -43.4231 H         1 UNK         0.0600 
    159 H159        0.7797  -16.8166  -44.4175 H         1 UNK         0.3000 
    160 H160        3.9887  -17.7271  -45.8038 H         1 UNK         0.0600 
    161 H161        2.2022  -15.2494  -45.5643 H         1 UNK         0.0600 
    162 H162        2.7490  -15.9650  -47.0766 H         1 UNK         0.0600 
    163 H163        3.9151  -15.2697  -45.9637 H         1 UNK         0.0600 
    164 H164        3.4366  -16.0526  -43.5847 H         1 UNK         0.3000 
    165 H165        4.7845  -18.3965  -41.1864 H         1 UNK         0.0600 
    166 H166        6.1158  -16.3363  -40.9212 H         1 UNK         0.0600 
    167 H167        6.4675  -17.0740  -42.4763 H         1 UNK         0.0600 
    168 H168        5.4333  -15.6514  -42.3925 H         1 UNK         0.0600 
    169 H169        3.0686  -15.9509  -41.4341 H         1 UNK         0.3000 
    170 H170        0.8826  -17.1146  -38.9851 H         1 UNK         0.0600 
    171 H171        2.5556  -16.1544  -37.3897 H         1 UNK         0.0600 
    172 H172        2.8400  -14.8060  -38.4837 H         1 UNK         0.0600 
    173 H173        1.2631  -15.0123  -37.7190 H         1 UNK         0.0600 
    174 H174        1.0526  -14.5584  -40.1935 H         1 UNK         0.3000 
    175 H175       -0.0870  -15.3325  -43.4368 H         1 UNK         0.0600 
    176 H176       -1.6876  -14.0644  -41.1561 H         1 UNK         0.0600 
    177 H177       -2.0074  -13.9032  -42.8831 H         1 UNK         0.0600 
    178 H178       -2.2132  -15.4574  -42.0926 H         1 UNK         0.0600 
    179 H179        0.1469  -12.8095  -42.3553 H         1 UNK         0.3000 
    180 H180        2.4986  -11.6574  -41.9610 H         1 UNK         0.0600 
    181 H181        4.6274  -12.6621  -42.7593 H         1 UNK         0.0600 
    182 H182        4.3449  -11.1173  -43.5448 H         1 UNK         0.0600 
    183 H183        4.0517  -12.6182  -44.4227 H         1 UNK         0.0600 
    184 H184        2.0026  -11.3266  -44.8352 H         1 UNK         0.3000 
    185 H185       -1.1934   -9.8044  -44.3757 H         1 UNK         0.0600 
    186 H186       -0.0634   -8.1390  -45.8182 H         1 UNK         0.0600 
    187 H187        0.5383   -8.0560  -44.1699 H         1 UNK         0.0600 
    188 H188        1.5123   -8.8190  -45.4163 H         1 UNK         0.0600 
    189 H189       -1.3506  -11.0569  -46.1554 H         1 UNK         0.3000 
    190 H190       -0.2479  -22.3878  -46.0516 H         1 UNK         0.3000 
    191 H191       -2.1046  -23.3035  -45.2949 H         1 UNK         0.0600 
    192 H192       -2.9983  -25.4324  -46.1016 H         1 UNK         0.0600 
    193 H193       -1.2455  -25.5436  -46.0437 H         1 UNK         0.0600 
    194 H194       -2.0719  -25.3372  -47.5882 H         1 UNK         0.0600 
    195 H195       -2.2829  -21.0116  -46.4729 H         1 UNK         0.3000 
    196 H196       -4.0113  -20.8150  -48.7590 H         1 UNK         0.0600 
    197 H197       -3.1427  -18.6436  -46.8020 H         1 UNK         0.0600 
    198 H198       -2.2219  -19.1574  -48.2178 H         1 UNK         0.0600 
    199 H199       -3.7881  -18.3936  -48.4153 H         1 UNK         0.0600 
    200 H200       -4.9287  -21.7364  -45.7625 H         1 UNK         0.3000 
    201 H201       -7.5535  -20.4968  -45.5872 H         1 UNK         0.0600 
    202 H202       -7.9689  -22.3441  -43.9593 H         1 UNK         0.0600 
    203 H203       -6.4623  -21.5169  -43.5969 H         1 UNK         0.0600 
    204 H204       -6.4359  -23.0925  -44.3903 H         1 UNK         0.0600 
    205 H205       -6.0874  -23.1275  -47.4326 H         1 UNK         0.3000 
    206 H206       -8.6266  -24.2800  -48.3515 H         1 UNK         0.0600 
    207 H207       -6.5869  -25.7063  -48.1271 H         1 UNK         0.0600 
    208 H208       -7.1048  -25.6309  -49.8045 H         1 UNK         0.0600 
    209 H209       -5.7232  -24.6837  -49.2711 H         1 UNK         0.0600 
    210 H210       -9.3559  -24.1071  -50.5351 H         1 UNK         0.3000 
    211 H211       -9.3522  -21.5510  -51.7218 H         1 UNK         0.0600 
    212 H212      -10.1102  -24.2812  -52.8963 H         1 UNK         0.0600 
    213 H213      -10.5460  -22.7222  -53.5854 H         1 UNK         0.0600 
    214 H214      -11.1837  -23.1917  -52.0174 H         1 UNK         0.0600 
    215 H215       -7.8740  -20.5543  -52.9094 H         1 UNK         0.3000 
    216 H216       -6.0493  -20.0029  -54.0200 H         1 UNK         0.0600 
    217 H217       -7.2206  -21.1417  -55.9321 H         1 UNK         0.0600 
    218 H218       -6.3546  -22.6333  -55.5629 H         1 UNK         0.0600 
    219 H219       -5.4733  -21.2065  -56.0887 H         1 UNK         0.0600 
    220 H220       -5.7742  -21.6036  -51.5363 H         1 UNK         0.3000 
    221 H221       -4.3336  -22.6157  -50.2105 H         1 UNK         0.0600 
    222 H222       -1.9165  -22.1197  -50.4369 H         1 UNK         0.0600 
    223 H223       -2.1616  -21.5256  -52.0748 H         1 UNK         0.0600 
    224 H224       -2.8536  -20.6631  -50.7125 H         1 UNK         0.0600 
    225 H225       -5.6249  -24.1657  -51.9662 H         1 UNK         0.3000 
    226 H226       -5.9124  -26.1869  -52.7196 H         1 UNK         0.0600 
    227 H227       -4.4822  -27.1238  -50.9101 H         1 UNK         0.0600 
    228 H228       -4.3167  -28.0391  -52.4013 H         1 UNK         0.0600 
    229 H229       -3.0481  -26.9265  -51.9161 H         1 UNK         0.0600 
    230 H230       -2.7402  -24.9422  -53.6080 H         1 UNK         0.3000 
    231 H231       -3.4359  -24.5751  -56.3600 H         1 UNK         0.0600 
    232 H232       -1.6541  -26.0620  -57.3529 H         1 UNK         0.0600 
    233 H233       -2.9006  -27.0023  -56.5560 H         1 UNK         0.0600 
    234 H234       -1.3469  -26.7497  -55.7624 H         1 UNK         0.0600 
    235 H235       -1.4344  -23.9820  -53.5931 H         1 UNK         0.3000 
    236 H236        0.9336  -23.1617  -54.8664 H         1 UNK         0.0600 
    237 H237        0.8556  -23.8595  -52.5137 H         1 UNK         0.0600 
    238 H238        1.5185  -22.2380  -52.6328 H         1 UNK         0.0600 
    239 H239       -0.1308  -22.4698  -52.0853 H         1 UNK         0.0600 
    240 H240       -2.0629  -21.3457  -54.5194 H         1 UNK         0.3000 
    241 H241       -0.7133  -18.8113  -55.2210 H         1 UNK         0.0600 
    242 H242       -1.4604  -21.5224  -57.1187 H         1 UNK         0.3800 
    243 H243       -1.7704  -20.6425  -58.5933 H         1 UNK         0.3800 
    244 H244       -3.6992  -19.2883  -54.9132 H         1 UNK         0.0800 
    245 H245       -2.9116  -17.7468  -55.1029 H         1 UNK         0.0800 
    246 H246       -2.1143  -16.2563  -52.9168 H         1 UNK         0.0800 
    247 H247       -0.7477  -17.1895  -53.4807 H         1 UNK         0.0800 
@<TRIPOS>BOND
     1    1    2 1    
     2    1  127 1    
     3    1  128 1    
     4    1  129 1    
     5    2    3 2    
     6    2    4 am   BACKBONE|DICT|INTERRES
     7    4    5 1    
     8    4  130 1    
     9    5    6 1    
    10    5   65 1    
    11    5  131 1    
    12    6    7 1    
    13    6  132 1    
    14    6  133 1    
    15    7    8 1    
    16    8    9 1    
    17    8  134 1    
    18    8  135 1    
    19    9   10 ar   
    20    9   14 ar   
    21   10   11 ar   
    22   10  136 1    
    23   11   12 ar   
    24   11  126 1    
    25   12   13 ar   
    26   12  137 1    
    27   13   14 ar   
    28   13   15 1    
    29   14  138 1    
    30   15   16 1    
    31   15  139 1    
    32   15  140 1    
    33   16   17 1    
    34   17   18 1    
    35   17  141 1    
    36   17  142 1    
    37   18   19 1    
    38   18   67 1    
    39   18  143 1    
    40   19   20 am   BACKBONE|DICT|INTERRES
    41   19  144 1    
    42   20   21 2    
    43   20   22 1    
    44   22   23 1    
    45   22   24 1    
    46   22  145 1    
    47   23  146 1    
    48   23  147 1    
    49   23  148 1    
    50   24   25 am   BACKBONE|DICT|INTERRES
    51   24  149 1    
    52   25   26 2    
    53   25   27 1    
    54   27   28 1    
    55   27   29 1    
    56   27  150 1    
    57   28  151 1    
    58   28  152 1    
    59   28  153 1    
    60   29   30 am   BACKBONE|DICT|INTERRES
    61   29  154 1    
    62   30   31 2    
    63   30   32 1    
    64   32   33 1    
    65   32   34 1    
    66   32  155 1    
    67   33  156 1    
    68   33  157 1    
    69   33  158 1    
    70   34   35 am   BACKBONE|DICT|INTERRES
    71   34  159 1    
    72   35   36 2    
    73   35   37 1    
    74   37   38 1    
    75   37   39 1    
    76   37  160 1    
    77   38  161 1    
    78   38  162 1    
    79   38  163 1    
    80   39   40 am   BACKBONE|DICT|INTERRES
    81   39  164 1    
    82   40   41 2    
    83   40   42 1    
    84   42   43 1    
    85   42   44 1    
    86   42  165 1    
    87   43  166 1    
    88   43  167 1    
    89   43  168 1    
    90   44   45 am   BACKBONE|DICT|INTERRES
    91   44  169 1    
    92   45   46 2    
    93   45   47 1    
    94   47   48 1    
    95   47   49 1    
    96   47  170 1    
    97   48  171 1    
    98   48  172 1    
    99   48  173 1    
   100   49   50 am   BACKBONE|DICT|INTERRES
   101   49  174 1    
   102   50   51 2    
   103   50   52 1    
   104   52   53 1    
   105   52   54 1    
   106   52  175 1    
   107   53  176 1    
   108   53  177 1    
   109   53  178 1    
   110   54   55 am   BACKBONE|DICT|INTERRES
   111   54  179 1    
   112   55   56 2    
   113   55   57 1    
   114   57   58 1    
   115   57   59 1    
   116   57  180 1    
   117   58  181 1    
   118   58  182 1    
   119   58  183 1    
   120   59   60 am   BACKBONE|DICT|INTERRES
   121   59  184 1    
   122   60   61 2    
   123   60   62 1    
   124   62   63 1    
   125   62   64 1    
   126   62  185 1    
   127   63  186 1    
   128   63  187 1    
   129   63  188 1    
   130   64   65 am   BACKBONE|DICT|INTERRES
   131   64  189 1    
   132   65   66 2    
   133   67   68 2    
   134   67   69 am   BACKBONE|DICT|INTERRES
   135   69   70 1    
   136   69  190 1    
   137   70   71 1    
   138   70   72 1    
   139   70  191 1    
   140   71  192 1    
   141   71  193 1    
   142   71  194 1    
   143   72   73 2    
   144   72   74 am   BACKBONE|DICT|INTERRES
   145   74   75 1    
   146   74  195 1    
   147   75   76 1    
   148   75   77 1    
   149   75  196 1    
   150   76  197 1    
   151   76  198 1    
   152   76  199 1    
   153   77   78 2    
   154   77   79 am   BACKBONE|DICT|INTERRES
   155   79   80 1    
   156   79  200 1    
   157   80   81 1    
   158   80   82 1    
   159   80  201 1    
   160   81  202 1    
   161   81  203 1    
   162   81  204 1    
   163   82   83 2    
   164   82   84 am   BACKBONE|DICT|INTERRES
   165   84   85 1    
   166   84  205 1    
   167   85   86 1    
   168   85   87 1    
   169   85  206 1    
   170   86  207 1    
   171   86  208 1    
   172   86  209 1    
   173   87   88 2    
   174   87   89 am   BACKBONE|DICT|INTERRES
   175   89   90 1    
   176   89  210 1    
   177   90   91 1    
   178   90   92 1    
   179   90  211 1    
   180   91  212 1    
   181   91  213 1    
   182   91  214 1    
   183   92   93 2    
   184   92   94 am   BACKBONE|DICT|INTERRES
   185   94   95 1    
   186   94  215 1    
   187   95   96 1    
   188   95   97 1    
   189   95  216 1    
   190   96  217 1    
   191   96  218 1    
   192   96  219 1    
   193   97   98 2    
   194   97   99 am   BACKBONE|DICT|INTERRES
   195   99  100 1    
   196   99  220 1    
   197  100  101 1    
   198  100  102 1    
   199  100  221 1    
   200  101  222 1    
   201  101  223 1    
   202  101  224 1    
   203  102  103 2    
   204  102  104 am   BACKBONE|DICT|INTERRES
   205  104  105 1    
   206  104  225 1    
   207  105  106 1    
   208  105  107 1    
   209  105  226 1    
   210  106  227 1    
   211  106  228 1    
   212  106  229 1    
   213  107  108 2    
   214  107  109 am   BACKBONE|DICT|INTERRES
   215  109  110 1    
   216  109  230 1    
   217  110  111 1    
   218  110  112 1    
   219  110  231 1    
   220  111  232 1    
   221  111  233 1    
   222  111  234 1    
   223  112  113 2    
   224  112  114 am   BACKBONE|DICT|INTERRES
   225  114  115 1    
   226  114  235 1    
   227  115  116 1    
   228  115  117 1    
   229  115  236 1    
   230  116  237 1    
   231  116  238 1    
   232  116  239 1    
   233  117  118 2    
   234  117  119 am   BACKBONE|DICT|INTERRES
   235  119  120 1    
   236  119  240 1    
   237  120  121 1    
   238  120  124 1    
   239  120  241 1    
   240  121  122 am   BACKBONE|DICT|INTERRES
   241  121  123 2    
   242  122  242 1    
   243  122  243 1    
   244  124  125 1    
   245  124  244 1    
   246  124  245 1    
   247  125  126 1    
   248  126  246 1    
   249  126  247 1    
@<TRIPOS>SUBSTRUCTURE
     1 UNK         1 GROUP             0       ****    0 ROOT    
