@<TRIPOS>MOLECULE
3R540
247   249    1
SMALL
USER_CHARGES


@<TRIPOS>ATOM
      1 CA         -1.3977  -16.2779  -49.0830 C.3       0 UNK        -0.1800 
      2 C          -0.4988  -15.0617  -48.9091 C.2       0 UNK         0.5000 
      3 O          -0.8329  -14.1619  -48.1380 O.2       0 UNK        -0.5000 
      4 N           0.6386  -15.0292  -49.6185 N.am      1 UNK        -0.5000 
      5 CA          1.5533  -13.8785  -49.7196 C.3       1 UNK         0.1400 
      6 C6          2.6829  -14.1116  -50.7505 C.3       23 UNK        -0.0398 
      7 S7          2.0602  -14.5374  -52.4116 S.3       23 UNK        -0.2404 
      8 C8          2.9445  -16.0928  -52.7421 C.3       23 UNK        -0.0205 
      9 C9          2.3225  -17.2767  -52.0169 C.ar      23 UNK        -0.0193 
     10 C10         1.2168  -17.9255  -52.5733 C.ar      23 UNK        -0.1150 
     11 C11         0.6716  -19.0545  -51.9571 C.ar      23 UNK        -0.0193 
     12 C12         1.2343  -19.5266  -50.7689 C.ar      23 UNK        -0.1150 
     13 C13         2.3360  -18.8846  -50.1970 C.ar      23 UNK        -0.0193 
     14 C14         2.8756  -17.7577  -50.8249 C.ar      23 UNK        -0.1150 
     15 C15         2.9741  -19.4449  -48.9329 C.3       23 UNK        -0.0205 
     16 S16         2.5722  -18.4812  -47.4412 S.3       23 UNK        -0.2404 
     17 C17         0.7583  -18.6261  -47.3423 C.3       23 UNK        -0.0398 
     18 CA          0.2213  -20.0478  -47.0483 C.3       11 UNK         0.1400 
     19 N           0.8674  -20.6932  -45.9045 N.am      11 UNK        -0.5000 
     20 C           0.7318  -21.9867  -45.5819 C.2       10 UNK         0.5000 
     21 O           0.0778  -22.7813  -46.2601 O.2       10 UNK        -0.5000 
     22 CA          1.3558  -22.4497  -44.2497 C.3       10 UNK         0.1400 
     23 CB          1.9982  -23.8479  -44.3499 C.3       10 UNK        -0.1800 
     24 N           2.2659  -21.4671  -43.6480 N.am      10 UNK        -0.5000 
     25 C           3.4873  -21.0984  -44.0635 C.2       9 UNK         0.5000 
     26 O           4.0585  -21.5834  -45.0399 O.2       9 UNK        -0.5000 
     27 CA          4.1823  -19.9734  -43.2685 C.3       9 UNK         0.1400 
     28 CB          4.2155  -18.6765  -44.0918 C.3       9 UNK        -0.1800 
     29 N           3.5475  -19.6857  -41.9802 N.am      9 UNK        -0.5000 
     30 C           3.6348  -20.4541  -40.8859 C.2       8 UNK         0.5000 
     31 O           4.2741  -21.5051  -40.8349 O.2       8 UNK        -0.5000 
     32 CA          2.8556  -19.9741  -39.6508 C.3       8 UNK         0.1400 
     33 CB          3.6472  -18.8943  -38.8959 C.3       8 UNK        -0.1800 
     34 N           1.5440  -19.4411  -40.0215 N.am      8 UNK        -0.5000 
     35 C           0.4303  -20.1761  -40.1476 C.2       7 UNK         0.5000 
     36 O           0.3871  -21.3901  -39.9485 O.2       7 UNK        -0.5000 
     37 CA         -0.8527  -19.4350  -40.5754 C.3       7 UNK         0.1400 
     38 CB         -1.6273  -18.9421  -39.3443 C.3       7 UNK        -0.1800 
     39 N          -0.5850  -18.2990  -41.4577 N.am      7 UNK        -0.5000 
     40 C          -0.1946  -18.4165  -42.7324 C.2       6 UNK         0.5000 
     41 O          -0.1005  -19.4939  -43.3209 O.2       6 UNK        -0.5000 
     42 CA          0.1839  -17.1272  -43.4808 C.3       6 UNK         0.1400 
     43 CB         -0.9815  -16.6446  -44.3549 C.3       6 UNK        -0.1800 
     44 N           0.6513  -16.0267  -42.6283 N.am      6 UNK        -0.5000 
     45 C           1.7313  -16.0797  -41.8314 C.2       5 UNK         0.5000 
     46 O           2.4010  -17.1026  -41.6882 O.2       5 UNK        -0.5000 
     47 CA          2.1416  -14.8118  -41.0572 C.3       5 UNK         0.1400 
     48 CB          3.6102  -14.4460  -41.3289 C.3       5 UNK        -0.1800 
     49 N           1.3013  -13.6568  -41.3712 N.am      5 UNK        -0.5000 
     50 C           0.2262  -13.2789  -40.6661 C.2       4 UNK         0.5000 
     51 O          -0.1652  -13.8629  -39.6550 O.2       4 UNK        -0.5000 
     52 CA         -0.5598  -12.0549  -41.1812 C.3       4 UNK         0.1400 
     53 CB         -0.1279  -10.7858  -40.4311 C.3       4 UNK        -0.1800 
     54 N          -0.4230  -11.8245  -42.6218 N.am      4 UNK        -0.5000 
     55 C          -0.8378  -12.6686  -43.5757 C.2       3 UNK         0.5000 
     56 O          -1.4034  -13.7331  -43.3312 O.2       3 UNK        -0.5000 
     57 CA         -0.5456  -12.2908  -45.0419 C.3       3 UNK         0.1400 
     58 CB         -0.2203  -10.7949  -45.2488 C.3       3 UNK        -0.1800 
     59 N           0.5100  -13.1201  -45.6319 N.am      3 UNK        -0.5000 
     60 C           1.7627  -13.2926  -45.1767 C.2       2 UNK         0.5000 
     61 O           2.1710  -12.8259  -44.1120 O.2       2 UNK        -0.5000 
     62 CA          2.7405  -14.1089  -46.0513 C.3       2 UNK         0.1400 
     63 CB          3.0778  -15.4571  -45.4034 C.3       2 UNK        -0.1800 
     64 N           2.2599  -14.3582  -47.4109 N.am      2 UNK        -0.5000 
     65 C           2.1685  -13.4330  -48.3751 C.2       1 UNK         0.5000 
     66 O           2.5373  -12.2661  -48.2360 O.2       1 UNK        -0.5000 
     67 C          -1.3137  -20.0142  -46.8932 C.2       11 UNK         0.5000 
     68 O          -2.0167  -20.0352  -47.8994 O.2       11 UNK        -0.5000 
     69 N          -1.8116  -19.9994  -45.6465 N.am      12 UNK        -0.5000 
     70 CA         -3.2382  -20.0734  -45.3271 C.3       12 UNK         0.1400 
     71 CB         -3.4508  -19.7659  -43.8373 C.3       12 UNK        -0.1800 
     72 C          -3.8478  -21.4389  -45.6904 C.2       12 UNK         0.5000 
     73 O          -4.9694  -21.4885  -46.1940 O.2       12 UNK        -0.5000 
     74 N          -3.0830  -22.5179  -45.4681 N.am      13 UNK        -0.5000 
     75 CA         -3.4540  -23.8794  -45.8546 C.3       13 UNK         0.1400 
     76 CB         -2.5227  -24.8897  -45.1677 C.3       13 UNK        -0.1800 
     77 C          -3.4392  -24.0580  -47.3820 C.2       13 UNK         0.5000 
     78 O          -4.3465  -24.6858  -47.9279 O.2       13 UNK        -0.5000 
     79 N          -2.4424  -23.4549  -48.0470 N.am      14 UNK        -0.5000 
     80 CA         -2.3543  -23.3829  -49.5058 C.3       14 UNK         0.1400 
     81 CB         -1.0046  -22.7811  -49.9199 C.3       14 UNK        -0.1800 
     82 C          -3.5230  -22.5922  -50.1214 C.2       14 UNK         0.5000 
     83 O          -4.1043  -23.0508  -51.1011 O.2       14 UNK        -0.5000 
     84 N          -3.8785  -21.4530  -49.5105 N.am      15 UNK        -0.5000 
     85 CA         -5.0000  -20.6076  -49.9179 C.3       15 UNK         0.1400 
     86 CB         -4.9529  -19.2732  -49.1593 C.3       15 UNK        -0.1800 
     87 C          -6.3631  -21.2963  -49.7392 C.2       15 UNK         0.5000 
     88 O          -7.2154  -21.1822  -50.6199 O.2       15 UNK        -0.5000 
     89 N          -6.5329  -22.0417  -48.6371 N.am      16 UNK        -0.5000 
     90 CA         -7.7120  -22.8702  -48.3673 C.3       16 UNK         0.1400 
     91 CB         -7.6413  -23.4109  -46.9315 C.3       16 UNK        -0.1800 
     92 C          -7.8794  -24.0234  -49.3774 C.2       16 UNK         0.5000 
     93 O          -9.0078  -24.3606  -49.7363 O.2       16 UNK        -0.5000 
     94 N          -6.7534  -24.5748  -49.8475 N.am      17 UNK        -0.5000 
     95 CA         -6.6780  -25.5803  -50.9091 C.3       17 UNK         0.1400 
     96 CB         -5.4064  -26.4176  -50.6910 C.3       17 UNK        -0.1800 
     97 C          -6.6924  -24.9700  -52.3288 C.2       17 UNK         0.5000 
     98 O          -6.5799  -25.7166  -53.3024 O.2       17 UNK        -0.5000 
     99 N          -6.7840  -23.6357  -52.4313 N.am      18 UNK        -0.5000 
    100 CA        -6.7035  -22.7728  -53.6164 C.3       18 UNK         0.1400 
    101 CB        -7.7972  -23.1089  -54.6469 C.3       18 UNK        -0.1800 
    102 C         -5.3120  -22.7215  -54.2775 C.2       18 UNK         0.5000 
    103 O         -4.8719  -21.6376  -54.6709 O.2       18 UNK        -0.5000 
    104 N         -4.6636  -23.8865  -54.4231 N.am      19 UNK        -0.5000 
    105 CA        -3.3203  -24.1218  -54.9733 C.3       19 UNK         0.1400 
    106 CB        -2.2535  -23.4980  -54.0479 C.3       19 UNK        -0.1800 
    107 C         -3.1376  -23.6748  -56.4419 C.2       19 UNK         0.5000 
    108 O         -2.0028  -23.5956  -56.9144 O.2       19 UNK        -0.5000 
    109 N         -4.2524  -23.3652  -57.1241 N.am      20 UNK        -0.5000 
    110 CA        -4.3491  -22.6887  -58.4226 C.3       20 UNK         0.1400 
    111 CB        -3.8508  -23.6090  -59.5564 C.3       20 UNK        -0.1800 
    112 C         -3.6660  -21.3003  -58.4253 C.2       20 UNK         0.5000 
    113 O         -3.1508  -20.8726  -59.4605 O.2       20 UNK        -0.5000 
    114 N         -3.6519  -20.6307  -57.2637 N.am      21 UNK        -0.5000 
    115 CA        -2.9078  -19.4004  -57.0276 C.3       21 UNK         0.1400 
    116 CB        -1.4420  -19.7414  -56.6798 C.3       21 UNK        -0.1800 
    117 C         -3.6177  -18.5545  -55.9597 C.2       21 UNK         0.5000 
    118 O         -4.5274  -17.7963  -56.2981 O.2       21 UNK        -0.5000 
    119 N         -3.1682  -18.6680  -54.7047 N.am      22 UNK        -0.5000 
    120 CA        -3.5897  -17.8337  -53.5684 C.3       22 UNK         0.1400 
    121 C         -5.0106  -18.1188  -52.9999 C.2       22 UNK         0.5000 
    122 N         -5.6746  -19.2067  -53.3649 N.am      22 UNK        -0.7600 
    123 O         -5.5300  -17.3211  -52.2246 O.2       22 UNK        -0.5000 
    124 C124       -2.5050  -17.7988  -52.4591 C.3       23 UNK        -0.0398 
    125 S125       -2.0738  -19.4437  -51.7888 S.3       23 UNK        -0.2404 
    126 C126       -0.4866  -19.8003  -52.6007 C.3       23 UNK        -0.0205 
    127 H127       -0.9758  -17.0000  -49.7829 H         1 UNK         0.0600 
    128 H128       -1.5559  -16.7736  -48.1254 H         1 UNK         0.0600 
    129 H129       -2.3705  -15.9682  -49.4643 H         1 UNK         0.0600 
    130 H130        0.8571  -15.7996  -50.2354 H         1 UNK         0.3000 
    131 H131        0.9523  -13.0382  -50.0736 H         1 UNK         0.0600 
    132 H132        3.2899  -13.2104  -50.8571 H         1 UNK         0.0800 
    133 H133        3.3627  -14.8883  -50.3980 H         1 UNK         0.0800 
    134 H134        3.9978  -15.9857  -52.4778 H         1 UNK         0.0800 
    135 H135        2.9255  -16.2803  -53.8168 H         1 UNK         0.0800 
    136 H136        0.7980  -17.5638  -53.5020 H         1 UNK         0.1150 
    137 H137        0.8252  -20.4098  -50.3025 H         1 UNK         0.1150 
    138 H138        3.7412  -17.2734  -50.3955 H         1 UNK         0.1150 
    139 H139        2.6839  -20.4852  -48.7796 H         1 UNK         0.0800 
    140 H140        4.0580  -19.4548  -49.0555 H         1 UNK         0.0800 
    141 H141        0.3475  -18.2675  -48.2845 H         1 UNK         0.0800 
    142 H142        0.4246  -17.9231  -46.5795 H         1 UNK         0.0800 
    143 H143        0.4325  -20.6681  -47.9203 H         1 UNK         0.0600 
    144 H144        1.3922  -20.1000  -45.2798 H         1 UNK         0.3000 
    145 H145        0.5206  -22.5299  -43.5525 H         1 UNK         0.0600 
    146 H146        2.4330  -24.1517  -43.3977 H         1 UNK         0.0600 
    147 H147        1.2551  -24.5989  -44.6207 H         1 UNK         0.0600 
    148 H148        2.7825  -23.8835  -45.1061 H         1 UNK         0.0600 
    149 H149        1.8838  -20.9645  -42.8586 H         1 UNK         0.3000 
    150 H150        5.2111  -20.2893  -43.0844 H         1 UNK         0.0600 
    151 H151        4.7256  -18.8269  -45.0441 H         1 UNK         0.0600 
    152 H152        4.7438  -17.8837  -43.5618 H         1 UNK         0.0600 
    153 H153        3.2106  -18.3172  -44.3116 H         1 UNK         0.0600 
    154 H154        3.0489  -18.8011  -41.9109 H         1 UNK         0.3000 
    155 H155        2.7265  -20.8263  -38.9800 H         1 UNK         0.0600 
    156 H156        3.8163  -18.0091  -39.5101 H         1 UNK         0.0600 
    157 H157        4.6234  -19.2710  -38.5882 H         1 UNK         0.0600 
    158 H158        3.1215  -18.5801  -37.9941 H         1 UNK         0.0600 
    159 H159        1.5143  -18.4621  -40.2741 H         1 UNK         0.3000 
    160 H160       -1.4837  -20.1477  -41.1107 H         1 UNK         0.0600 
    161 H161       -2.5717  -18.4801  -39.6323 H         1 UNK         0.0600 
    162 H162       -1.0545  -18.2096  -38.7740 H         1 UNK         0.0600 
    163 H163       -1.8626  -19.7697  -38.6738 H         1 UNK         0.0600 
    164 H164       -0.6508  -17.3759  -41.0545 H         1 UNK         0.3000 
    165 H165        1.0057  -17.4036  -44.1389 H         1 UNK         0.0600 
    166 H166       -0.6827  -15.8055  -44.9832 H         1 UNK         0.0600 
    167 H167       -1.3375  -17.4283  -45.0205 H         1 UNK         0.0600 
    168 H168       -1.8309  -16.3287  -43.7487 H         1 UNK         0.0600 
    169 H169        0.1233  -15.1636  -42.6811 H         1 UNK         0.3000 
    170 H170        2.0569  -15.0545  -39.9961 H         1 UNK         0.0600 
    171 H171        4.2760  -15.2780  -41.0956 H         1 UNK         0.0600 
    172 H172        3.7759  -14.1744  -42.3708 H         1 UNK         0.0600 
    173 H173        3.9224  -13.6023  -40.7133 H         1 UNK         0.0600 
    174 H174        1.5419  -13.1466  -42.2164 H         1 UNK         0.3000 
    175 H175       -1.6163  -12.2340  -40.9711 H         1 UNK         0.0600 
    176 H176       -0.7334   -9.9280  -40.7243 H         1 UNK         0.0600 
    177 H177       -0.2434  -10.9100  -39.3534 H         1 UNK         0.0600 
    178 H178        0.9177  -10.5418  -40.6233 H         1 UNK         0.0600 
    179 H179        0.0655  -10.9867  -42.9024 H         1 UNK         0.3000 
    180 H180       -1.4571  -12.5099  -45.6001 H         1 UNK         0.0600 
    181 H181        0.7186  -10.5045  -44.7761 H         1 UNK         0.0600 
    182 H182       -1.0099  -10.1598  -44.8450 H         1 UNK         0.0600 
    183 H183       -0.1353  -10.5629  -46.3106 H         1 UNK         0.0600 
    184 H184        0.2542  -13.5665  -46.5067 H         1 UNK         0.3000 
    185 H185        3.6630  -13.5282  -46.1150 H         1 UNK         0.0600 
    186 H186        2.2208  -16.1252  -45.4287 H         1 UNK         0.0600 
    187 H187        3.8970  -15.9501  -45.9272 H         1 UNK         0.0600 
    188 H188        3.3837  -15.3425  -44.3642 H         1 UNK         0.0600 
    189 H189        1.9398  -15.2932  -47.6165 H         1 UNK         0.3000 
    190 H190       -1.1677  -19.9729  -44.8610 H         1 UNK         0.3000 
    191 H191       -3.7582  -19.3103  -45.9099 H         1 UNK         0.0600 
    192 H192       -2.9028  -20.4607  -43.2000 H         1 UNK         0.0600 
    193 H193       -4.5059  -19.8368  -43.5702 H         1 UNK         0.0600 
    194 H194       -3.1247  -18.7556  -43.5921 H         1 UNK         0.0600 
    195 H195       -2.1557  -22.3883  -45.0927 H         1 UNK         0.3000 
    196 H196       -4.4718  -24.0672  -45.5058 H         1 UNK         0.0600 
    197 H197       -2.8189  -25.9122  -45.4053 H         1 UNK         0.0600 
    198 H198       -2.5582  -24.7852  -44.0833 H         1 UNK         0.0600 
    199 H199       -1.4863  -24.7698  -45.4829 H         1 UNK         0.0600 
    200 H200       -1.7146  -22.9922  -47.5162 H         1 UNK         0.3000 
    201 H201       -2.4014  -24.4036  -49.8911 H         1 UNK         0.0600 
    202 H202       -0.1710  -23.3273  -49.4782 H         1 UNK         0.0600 
    203 H203       -0.9249  -21.7388  -49.6165 H         1 UNK         0.0600 
    204 H204       -0.8828  -22.8145  -51.0030 H         1 UNK         0.0600 
    205 H205       -3.2915  -21.0935  -48.7626 H         1 UNK         0.3000 
    206 H206       -4.8779  -20.3973  -50.9810 H         1 UNK         0.0600 
    207 H207       -4.0201  -18.7434  -49.3539 H         1 UNK         0.0600 
    208 H208       -5.7671  -18.6187  -49.4728 H         1 UNK         0.0600 
    209 H209       -5.0393  -19.4177  -48.0825 H         1 UNK         0.0600 
    210 H210       -5.8080  -22.0349  -47.9259 H         1 UNK         0.3000 
    211 H211       -8.5936  -22.2309  -48.4467 H         1 UNK         0.0600 
    212 H212       -6.7640  -24.0402  -46.7808 H         1 UNK         0.0600 
    213 H213       -8.5210  -24.0112  -46.6960 H         1 UNK         0.0600 
    214 H214       -7.5984  -22.5983  -46.2060 H         1 UNK         0.0600 
    215 H215       -5.8675  -24.2631  -49.4657 H         1 UNK         0.3000 
    216 H216       -7.5398  -26.2462  -50.8333 H         1 UNK         0.0600 
    217 H217       -5.3363  -27.2272  -51.4183 H         1 UNK         0.0600 
    218 H218       -5.3985  -26.8714  -49.6998 H         1 UNK         0.0600 
    219 H219       -4.5057  -25.8102  -50.7866 H         1 UNK         0.0600 
    220 H220       -6.8229  -23.1215  -51.5603 H         1 UNK         0.3000 
    221 H221       -6.9069  -21.7667  -53.2505 H         1 UNK         0.0600 
    222 H222       -7.6556  -24.0940  -55.0919 H         1 UNK         0.0600 
    223 H223       -8.7869  -23.0859  -54.1908 H         1 UNK         0.0600 
    224 H224       -7.7980  -22.3827  -55.4607 H         1 UNK         0.0600 
    225 H225       -5.1549  -24.7131  -54.0939 H         1 UNK         0.3000 
    226 H226       -3.1745  -25.2027  -54.9677 H         1 UNK         0.0600 
    227 H227       -2.3306  -22.4107  -54.0140 H         1 UNK         0.0600 
    228 H228       -1.2448  -23.7445  -54.3806 H         1 UNK         0.0600 
    229 H229       -2.3536  -23.8709  -53.0290 H         1 UNK         0.0600 
    230 H230       -5.1258  -23.4794  -56.6307 H         1 UNK         0.3000 
    231 H231       -5.4104  -22.5021  -58.5917 H         1 UNK         0.0600 
    232 H232       -4.3500  -24.5775  -59.5260 H         1 UNK         0.0600 
    233 H233       -2.7763  -23.7833  -59.4947 H         1 UNK         0.0600 
    234 H234       -4.0548  -23.1712  -60.5341 H         1 UNK         0.0600 
    235 H235       -4.1211  -21.0270  -56.4542 H         1 UNK         0.3000 
    236 H236       -2.9060  -18.7961  -57.9374 H         1 UNK         0.0600 
    237 H237       -0.9304  -20.1746  -57.5395 H         1 UNK         0.0600 
    238 H238       -0.8836  -18.8497  -56.3913 H         1 UNK         0.0600 
    239 H239       -1.3736  -20.4633  -55.8652 H         1 UNK         0.0600 
    240 H240       -2.4666  -19.3620  -54.4994 H         1 UNK         0.3000 
    241 H241       -3.6558  -16.8137  -53.9522 H         1 UNK         0.0600 
    242 H242       -6.5977  -19.3591  -52.9939 H         1 UNK         0.3800 
    243 H243       -5.2489  -19.9016  -53.9704 H         1 UNK         0.3800 
    244 H244       -1.6053  -17.3201  -52.8452 H         1 UNK         0.0800 
    245 H245       -2.8302  -17.1692  -51.6300 H         1 UNK         0.0800 
    246 H246       -0.5500  -19.5667  -53.6635 H         1 UNK         0.0800 
    247 H247       -0.2991  -20.8732  -52.5399 H         1 UNK         0.0800 
@<TRIPOS>BOND
     1    1    2 1    
     2    1  127 1    
     3    1  128 1    
     4    1  129 1    
     5    2    3 2    
     6    2    4 am   BACKBONE|DICT|INTERRES
     7    4    5 1    
     8    4  130 1    
     9    5    6 1    
    10    5   65 1    
    11    5  131 1    
    12    6    7 1    
    13    6  132 1    
    14    6  133 1    
    15    7    8 1    
    16    8    9 1    
    17    8  134 1    
    18    8  135 1    
    19    9   10 ar   
    20    9   14 ar   
    21   10   11 ar   
    22   10  136 1    
    23   11   12 ar   
    24   11  126 1    
    25   12   13 ar   
    26   12  137 1    
    27   13   14 ar   
    28   13   15 1    
    29   14  138 1    
    30   15   16 1    
    31   15  139 1    
    32   15  140 1    
    33   16   17 1    
    34   17   18 1    
    35   17  141 1    
    36   17  142 1    
    37   18   19 1    
    38   18   67 1    
    39   18  143 1    
    40   19   20 am   BACKBONE|DICT|INTERRES
    41   19  144 1    
    42   20   21 2    
    43   20   22 1    
    44   22   23 1    
    45   22   24 1    
    46   22  145 1    
    47   23  146 1    
    48   23  147 1    
    49   23  148 1    
    50   24   25 am   BACKBONE|DICT|INTERRES
    51   24  149 1    
    52   25   26 2    
    53   25   27 1    
    54   27   28 1    
    55   27   29 1    
    56   27  150 1    
    57   28  151 1    
    58   28  152 1    
    59   28  153 1    
    60   29   30 am   BACKBONE|DICT|INTERRES
    61   29  154 1    
    62   30   31 2    
    63   30   32 1    
    64   32   33 1    
    65   32   34 1    
    66   32  155 1    
    67   33  156 1    
    68   33  157 1    
    69   33  158 1    
    70   34   35 am   BACKBONE|DICT|INTERRES
    71   34  159 1    
    72   35   36 2    
    73   35   37 1    
    74   37   38 1    
    75   37   39 1    
    76   37  160 1    
    77   38  161 1    
    78   38  162 1    
    79   38  163 1    
    80   39   40 am   BACKBONE|DICT|INTERRES
    81   39  164 1    
    82   40   41 2    
    83   40   42 1    
    84   42   43 1    
    85   42   44 1    
    86   42  165 1    
    87   43  166 1    
    88   43  167 1    
    89   43  168 1    
    90   44   45 am   BACKBONE|DICT|INTERRES
    91   44  169 1    
    92   45   46 2    
    93   45   47 1    
    94   47   48 1    
    95   47   49 1    
    96   47  170 1    
    97   48  171 1    
    98   48  172 1    
    99   48  173 1    
   100   49   50 am   BACKBONE|DICT|INTERRES
   101   49  174 1    
   102   50   51 2    
   103   50   52 1    
   104   52   53 1    
   105   52   54 1    
   106   52  175 1    
   107   53  176 1    
   108   53  177 1    
   109   53  178 1    
   110   54   55 am   BACKBONE|DICT|INTERRES
   111   54  179 1    
   112   55   56 2    
   113   55   57 1    
   114   57   58 1    
   115   57   59 1    
   116   57  180 1    
   117   58  181 1    
   118   58  182 1    
   119   58  183 1    
   120   59   60 am   BACKBONE|DICT|INTERRES
   121   59  184 1    
   122   60   61 2    
   123   60   62 1    
   124   62   63 1    
   125   62   64 1    
   126   62  185 1    
   127   63  186 1    
   128   63  187 1    
   129   63  188 1    
   130   64   65 am   BACKBONE|DICT|INTERRES
   131   64  189 1    
   132   65   66 2    
   133   67   68 2    
   134   67   69 am   BACKBONE|DICT|INTERRES
   135   69   70 1    
   136   69  190 1    
   137   70   71 1    
   138   70   72 1    
   139   70  191 1    
   140   71  192 1    
   141   71  193 1    
   142   71  194 1    
   143   72   73 2    
   144   72   74 am   BACKBONE|DICT|INTERRES
   145   74   75 1    
   146   74  195 1    
   147   75   76 1    
   148   75   77 1    
   149   75  196 1    
   150   76  197 1    
   151   76  198 1    
   152   76  199 1    
   153   77   78 2    
   154   77   79 am   BACKBONE|DICT|INTERRES
   155   79   80 1    
   156   79  200 1    
   157   80   81 1    
   158   80   82 1    
   159   80  201 1    
   160   81  202 1    
   161   81  203 1    
   162   81  204 1    
   163   82   83 2    
   164   82   84 am   BACKBONE|DICT|INTERRES
   165   84   85 1    
   166   84  205 1    
   167   85   86 1    
   168   85   87 1    
   169   85  206 1    
   170   86  207 1    
   171   86  208 1    
   172   86  209 1    
   173   87   88 2    
   174   87   89 am   BACKBONE|DICT|INTERRES
   175   89   90 1    
   176   89  210 1    
   177   90   91 1    
   178   90   92 1    
   179   90  211 1    
   180   91  212 1    
   181   91  213 1    
   182   91  214 1    
   183   92   93 2    
   184   92   94 am   BACKBONE|DICT|INTERRES
   185   94   95 1    
   186   94  215 1    
   187   95   96 1    
   188   95   97 1    
   189   95  216 1    
   190   96  217 1    
   191   96  218 1    
   192   96  219 1    
   193   97   98 2    
   194   97   99 am   BACKBONE|DICT|INTERRES
   195   99  100 1    
   196   99  220 1    
   197  100  101 1    
   198  100  102 1    
   199  100  221 1    
   200  101  222 1    
   201  101  223 1    
   202  101  224 1    
   203  102  103 2    
   204  102  104 am   BACKBONE|DICT|INTERRES
   205  104  105 1    
   206  104  225 1    
   207  105  106 1    
   208  105  107 1    
   209  105  226 1    
   210  106  227 1    
   211  106  228 1    
   212  106  229 1    
   213  107  108 2    
   214  107  109 am   BACKBONE|DICT|INTERRES
   215  109  110 1    
   216  109  230 1    
   217  110  111 1    
   218  110  112 1    
   219  110  231 1    
   220  111  232 1    
   221  111  233 1    
   222  111  234 1    
   223  112  113 2    
   224  112  114 am   BACKBONE|DICT|INTERRES
   225  114  115 1    
   226  114  235 1    
   227  115  116 1    
   228  115  117 1    
   229  115  236 1    
   230  116  237 1    
   231  116  238 1    
   232  116  239 1    
   233  117  118 2    
   234  117  119 am   BACKBONE|DICT|INTERRES
   235  119  120 1    
   236  119  240 1    
   237  120  121 1    
   238  120  124 1    
   239  120  241 1    
   240  121  122 am   BACKBONE|DICT|INTERRES
   241  121  123 2    
   242  122  242 1    
   243  122  243 1    
   244  124  125 1    
   245  124  244 1    
   246  124  245 1    
   247  125  126 1    
   248  126  246 1    
   249  126  247 1    
@<TRIPOS>SUBSTRUCTURE
     1 UNK         1 GROUP             0       ****    0 ROOT    
