@<TRIPOS>MOLECULE
3R540
247   249    1
SMALL
USER_CHARGES


@<TRIPOS>ATOM
      1 CA          8.5873  -13.4092  -47.0487 C.3       0 UNK        -0.1800 
      2 C           7.1922  -12.8137  -47.1764 C.2       0 UNK         0.5000 
      3 O           7.0593  -11.6463  -47.5436 O.2       0 UNK        -0.5000 
      4 N           6.1602  -13.6126  -46.8702 N.am      1 UNK        -0.5000 
      5 CA          4.7335  -13.2585  -46.9281 C.3       1 UNK         0.1400 
      6 C6          4.2129  -12.9828  -48.3663 C.3       23 UNK        -0.0398 
      7 S7          4.3722  -14.4268  -49.4716 S.3       23 UNK        -0.2404 
      8 C8          2.8955  -15.3618  -48.9751 C.3       23 UNK        -0.0205 
      9 C9          2.5140  -16.4231  -49.9906 C.ar      23 UNK        -0.0193 
     10 C10         1.5812  -16.1295  -50.9880 C.ar      23 UNK        -0.1150 
     11 C11         1.1564  -17.1174  -51.8822 C.ar      23 UNK        -0.0193 
     12 C12         1.6957  -18.4045  -51.7827 C.ar      23 UNK        -0.1150 
     13 C13         2.6530  -18.7027  -50.8068 C.ar      23 UNK        -0.0193 
     14 C14         3.0567  -17.7073  -49.9122 C.ar      23 UNK        -0.1150 
     15 C15         3.2662  -20.0942  -50.7287 C.3       23 UNK        -0.0205 
     16 S16         2.8306  -20.9611  -49.1888 S.3       23 UNK        -0.2404 
     17 C17         1.0235  -21.1102  -49.3663 C.3       23 UNK        -0.0398 
     18 CA          0.4208  -22.1526  -48.3953 C.3       11 UNK         0.1400 
     19 N           0.7164  -21.8455  -46.9953 N.am      11 UNK        -0.5000 
     20 C           0.4739  -22.6417  -45.9480 C.2       10 UNK         0.5000 
     21 O          -0.0174  -23.7651  -46.0542 O.2       10 UNK        -0.5000 
     22 CA          0.7641  -22.0673  -44.5465 C.3       10 UNK         0.1400 
     23 CB          1.3659  -23.1163  -43.5901 C.3       10 UNK        -0.1800 
     24 N           1.5556  -20.8319  -44.5609 N.am      10 UNK        -0.5000 
     25 C           2.8449  -20.6649  -44.8950 C.2       9 UNK         0.5000 
     26 O           3.5927  -21.5792  -45.2407 O.2       9 UNK        -0.5000 
     27 CA          3.3884  -19.2203  -44.8517 C.3       9 UNK         0.1400 
     28 CB          3.5650  -18.6714  -46.2764 C.3       9 UNK        -0.1800 
     29 N           2.5255  -18.3011  -44.1074 N.am      9 UNK        -0.5000 
     30 C           2.3560  -18.2978  -42.7782 C.2       8 UNK         0.5000 
     31 O           2.9824  -19.0201  -42.0029 O.2       8 UNK        -0.5000 
     32 CA          1.2591  -17.3639  -42.2392 C.3       8 UNK         0.1400 
     33 CB          1.7955  -15.9337  -42.0746 C.3       8 UNK        -0.1800 
     34 N           0.0787  -17.3623  -43.1106 N.am      8 UNK        -0.5000 
     35 C          -0.8211  -18.3568  -43.1631 C.2       7 UNK         0.5000 
     36 O          -0.7738  -19.3532  -42.4429 O.2       7 UNK        -0.5000 
     37 CA         -1.9386  -18.2525  -44.2179 C.3       7 UNK         0.1400 
     38 CB         -3.1922  -17.5898  -43.6327 C.3       7 UNK        -0.1800 
     39 N          -1.5117  -17.5183  -45.4082 N.am      7 UNK        -0.5000 
     40 C          -0.7983  -18.0636  -46.4031 C.2       6 UNK         0.5000 
     41 O          -0.5060  -19.2580  -46.4547 O.2       6 UNK        -0.5000 
     42 CA         -0.3090  -17.1269  -47.5218 C.3       6 UNK         0.1400 
     43 CB         -1.2686  -17.1776  -48.7165 C.3       6 UNK        -0.1800 
     44 N          -0.1378  -15.7357  -47.0953 N.am      6 UNK        -0.5000 
     45 C           0.7266  -15.3277  -46.1572 C.2       5 UNK         0.5000 
     46 O           1.4670  -16.0947  -45.5430 O.2       5 UNK        -0.5000 
     47 CA          0.7805  -13.8260  -45.8314 C.3       5 UNK         0.1400 
     48 CB          0.0902  -12.9216  -46.8760 C.3       5 UNK        -0.1800 
     49 N           0.2779  -13.5400  -44.4874 N.am      5 UNK        -0.5000 
     50 C          -0.9538  -13.7741  -44.0099 C.2       4 UNK         0.5000 
     51 O          -1.8142  -14.3942  -44.6375 O.2       4 UNK        -0.5000 
     52 CA         -1.2925  -13.2370  -42.5999 C.3       4 UNK         0.1400 
     53 CB         -1.9224  -14.3244  -41.7134 C.3       4 UNK        -0.1800 
     54 N          -0.1475  -12.6567  -41.8932 N.am      4 UNK        -0.5000 
     55 C           0.3478  -11.4268  -42.0858 C.2       3 UNK         0.5000 
     56 O          -0.1191  -10.6214  -42.8923 O.2       3 UNK        -0.5000 
     57 CA          1.5878  -11.0282  -41.2561 C.3       3 UNK         0.1400 
     58 CB          1.9055  -11.9964  -40.0927 C.3       3 UNK        -0.1800 
     59 N           2.7783  -10.8405  -42.0932 N.am      3 UNK        -0.5000 
     60 C           3.3274  -11.7377  -42.9244 C.2       2 UNK         0.5000 
     61 O           2.8582  -12.8602  -43.1310 O.2       2 UNK        -0.5000 
     62 CA          4.6456  -11.3143  -43.6035 C.3       2 UNK         0.1400 
     63 CB          5.8108  -11.3726  -42.6023 C.3       2 UNK        -0.1800 
     64 N           4.9717  -12.1765  -44.7388 N.am      2 UNK        -0.5000 
     65 C           4.3565  -12.1396  -45.9274 C.2       1 UNK         0.5000 
     66 O           3.5160  -11.2899  -46.2279 O.2       1 UNK        -0.5000 
     67 C          -1.0965  -22.2700  -48.6174 C.2       11 UNK         0.5000 
     68 O          -1.5484  -23.2264  -49.2456 O.2       11 UNK        -0.5000 
     69 N          -1.8559  -21.3210  -48.0494 N.am      12 UNK        -0.5000 
     70 CA         -3.3181  -21.3082  -48.0877 C.3       12 UNK         0.1400 
     71 CB         -3.8400  -19.9603  -47.5705 C.3       12 UNK        -0.1800 
     72 C          -3.9320  -22.4716  -47.2913 C.2       12 UNK         0.5000 
     73 O          -4.9324  -23.0394  -47.7270 O.2       12 UNK        -0.5000 
     74 N          -3.3008  -22.8241  -46.1620 N.am      13 UNK        -0.5000 
     75 CA         -3.6887  -23.9468  -45.3091 C.3       13 UNK         0.1400 
     76 CB         -2.9393  -23.8664  -43.9701 C.3       13 UNK        -0.1800 
     77 C          -3.4569  -25.3016  -45.9997 C.2       13 UNK         0.5000 
     78 O          -4.3613  -26.1366  -46.0091 O.2       13 UNK        -0.5000 
     79 N          -2.2766  -25.4744  -46.6134 N.am      14 UNK        -0.5000 
     80 CA         -1.9078  -26.6524  -47.4043 C.3       14 UNK         0.1400 
     81 CB         -0.4289  -26.5516  -47.8070 C.3       14 UNK        -0.1800 
     82 C          -2.7961  -26.8419  -48.6486 C.2       14 UNK         0.5000 
     83 O          -3.1343  -27.9746  -48.9928 O.2       14 UNK        -0.5000 
     84 N          -3.1889  -25.7243  -49.2723 N.am      15 UNK        -0.5000 
     85 CA         -4.1197  -25.6655  -50.3981 C.3       15 UNK         0.1400 
     86 CB         -3.9195  -24.3217  -51.1136 C.3       15 UNK        -0.1800 
     87 C          -5.5995  -25.8276  -50.0007 C.2       15 UNK         0.5000 
     88 O          -6.4497  -25.8439  -50.8938 O.2       15 UNK        -0.5000 
     89 N          -5.8945  -25.8727  -48.6910 N.am      16 UNK        -0.5000 
     90 CA         -7.2270  -25.9185  -48.0725 C.3       16 UNK         0.1400 
     91 CB         -7.8888  -27.2862  -48.3370 C.3       16 UNK        -0.1800 
     92 C          -8.1303  -24.7328  -48.4822 C.2       16 UNK         0.5000 
     93 O          -9.3514  -24.8810  -48.5517 O.2       16 UNK        -0.5000 
     94 N          -7.4962  -23.5917  -48.7949 N.am      17 UNK        -0.5000 
     95 CA         -8.0512  -22.3756  -49.3979 C.3       17 UNK         0.1400 
     96 CB         -8.9850  -21.6600  -48.4009 C.3       17 UNK        -0.1800 
     97 C          -8.7157  -22.5952  -50.7793 C.2       17 UNK         0.5000 
     98 O          -9.4846  -21.7384  -51.2189 O.2       17 UNK        -0.5000 
     99 N          -8.4204  -23.7250  -51.4387 N.am      18 UNK        -0.5000 
    100 CA        -9.0665  -24.1676  -52.6721 C.3       18 UNK         0.1400 
    101 CB        -9.7307  -25.5316  -52.4237 C.3       18 UNK        -0.1800 
    102 C         -8.0750  -24.2613  -53.8397 C.2       18 UNK         0.5000 
    103 O         -8.3992  -23.8087  -54.9380 O.2       18 UNK        -0.5000 
    104 N         -6.8850  -24.8332  -53.6027 N.am      19 UNK        -0.5000 
    105 CA        -5.8883  -25.1611  -54.6327 C.3       19 UNK         0.1400 
    106 CB        -5.0193  -26.3352  -54.1469 C.3       19 UNK        -0.1800 
    107 C         -5.0495  -23.9587  -55.1304 C.2       19 UNK         0.5000 
    108 O         -3.8480  -24.1003  -55.3612 O.2       19 UNK        -0.5000 
    109 N         -5.7074  -22.8063  -55.3161 N.am      20 UNK        -0.5000 
    110 CA        -5.2375  -21.5929  -55.9976 C.3       20 UNK         0.1400 
    111 CB        -5.0393  -21.8761  -57.5016 C.3       20 UNK        -0.1800 
    112 C         -4.0109  -20.8909  -55.3724 C.2       20 UNK         0.5000 
    113 O         -3.3525  -20.1032  -56.0557 O.2       20 UNK        -0.5000 
    114 N         -3.7349  -21.1292  -54.0829 N.am      21 UNK        -0.5000 
    115 CA        -2.6449  -20.4979  -53.3293 C.3       21 UNK         0.1400 
    116 CB        -2.2399  -21.4075  -52.1588 C.3       21 UNK        -0.1800 
    117 C         -3.0138  -19.0713  -52.8703 C.2       21 UNK         0.5000 
    118 O         -3.0666  -18.8069  -51.6688 O.2       21 UNK        -0.5000 
    119 N         -3.2960  -18.2067  -53.8538 N.am      22 UNK        -0.5000 
    120 CA        -3.6294  -16.7663  -53.8226 C.3       22 UNK         0.1400 
    121 C         -4.7316  -16.2548  -52.8414 C.2       22 UNK         0.5000 
    122 N         -5.1596  -17.0153  -51.8465 N.am      22 UNK        -0.7600 
    123 O         -5.2398  -15.1506  -53.0183 O.2       22 UNK        -0.5000 
    124 C124       -2.3722  -15.8539  -53.8365 C.3       23 UNK        -0.0398 
    125 S125       -1.3396  -15.9452  -52.3345 S.3       23 UNK        -0.2404 
    126 C126        0.1427  -16.7926  -52.9741 C.3       23 UNK        -0.0205 
    127 H127        8.5573  -14.4474  -46.7174 H         1 UNK         0.0600 
    128 H128        9.1740  -12.8391  -46.3283 H         1 UNK         0.0600 
    129 H129        9.0989  -13.3745  -48.0106 H         1 UNK         0.0600 
    130 H130        6.3535  -14.5622  -46.5842 H         1 UNK         0.3000 
    131 H131        4.2043  -14.1385  -46.5597 H         1 UNK         0.0600 
    132 H132        4.7507  -12.1464  -48.8143 H         1 UNK         0.0800 
    133 H133        3.1640  -12.6824  -48.3547 H         1 UNK         0.0800 
    134 H134        2.0562  -14.6790  -48.8445 H         1 UNK         0.0800 
    135 H135        3.0734  -15.8266  -48.0045 H         1 UNK         0.0800 
    136 H136        1.1691  -15.1326  -51.0572 H         1 UNK         0.1150 
    137 H137        1.3815  -19.1721  -52.4758 H         1 UNK         0.1150 
    138 H138        3.7874  -17.9366  -49.1496 H         1 UNK         0.1150 
    139 H139        2.9648  -20.7035  -51.5821 H         1 UNK         0.0800 
    140 H140        4.3519  -20.0054  -50.7860 H         1 UNK         0.0800 
    141 H141        0.8015  -21.3848  -50.3992 H         1 UNK         0.0800 
    142 H142        0.5823  -20.1245  -49.2045 H         1 UNK         0.0800 
    143 H143        0.8621  -23.1260  -48.6203 H         1 UNK         0.0600 
    144 H144        1.0529  -20.9119  -46.8065 H         1 UNK         0.3000 
    145 H145       -0.2079  -21.7824  -44.1414 H         1 UNK         0.0600 
    146 H146        1.5540  -22.6891  -42.6051 H         1 UNK         0.0600 
    147 H147        0.6848  -23.9569  -43.4531 H         1 UNK         0.0600 
    148 H148        2.3053  -23.5201  -43.9679 H         1 UNK         0.0600 
    149 H149        1.0444  -19.9977  -44.3111 H         1 UNK         0.3000 
    150 H150        4.3658  -19.2471  -44.3659 H         1 UNK         0.0600 
    151 H151        4.2450  -19.2970  -46.8559 H         1 UNK         0.0600 
    152 H152        3.9812  -17.6640  -46.2641 H         1 UNK         0.0600 
    153 H153        2.6160  -18.6346  -46.8125 H         1 UNK         0.0600 
    154 H154        2.0262  -17.6053  -44.6576 H         1 UNK         0.3000 
    155 H155        0.9649  -17.7277  -41.2523 H         1 UNK         0.0600 
    156 H156        2.6833  -15.9203  -41.4412 H         1 UNK         0.0600 
    157 H157        1.0588  -15.2860  -41.6044 H         1 UNK         0.0600 
    158 H158        2.0739  -15.4901  -43.0302 H         1 UNK         0.0600 
    159 H159        0.0180  -16.6157  -43.7878 H         1 UNK         0.3000 
    160 H160       -2.2086  -19.2712  -44.5048 H         1 UNK         0.0600 
    161 H161       -3.0101  -16.5493  -43.3709 H         1 UNK         0.0600 
    162 H162       -3.5252  -18.1051  -42.7308 H         1 UNK         0.0600 
    163 H163       -4.0169  -17.6146  -44.3452 H         1 UNK         0.0600 
    164 H164       -1.7148  -16.5259  -45.4335 H         1 UNK         0.3000 
    165 H165        0.6638  -17.4952  -47.8527 H         1 UNK         0.0600 
    166 H166       -0.9140  -16.5415  -49.5251 H         1 UNK         0.0600 
    167 H167       -1.3486  -18.1895  -49.1165 H         1 UNK         0.0600 
    168 H168       -2.2721  -16.8468  -48.4466 H         1 UNK         0.0600 
    169 H169       -0.7381  -15.0511  -47.5316 H         1 UNK         0.3000 
    170 H170        1.8369  -13.5642  -45.8186 H         1 UNK         0.0600 
    171 H171        0.4914  -13.0897  -47.8757 H         1 UNK         0.0600 
    172 H172       -0.9878  -13.0808  -46.9176 H         1 UNK         0.0600 
    173 H173        0.2564  -11.8699  -46.6412 H         1 UNK         0.0600 
    174 H174        0.9559  -13.1136  -43.8644 H         1 UNK         0.3000 
    175 H175       -2.0394  -12.4524  -42.7365 H         1 UNK         0.0600 
    176 H176       -2.8911  -14.6298  -42.1085 H         1 UNK         0.0600 
    177 H177       -1.2970  -15.2142  -41.6467 H         1 UNK         0.0600 
    178 H178       -2.0966  -13.9592  -40.7011 H         1 UNK         0.0600 
    179 H179        0.3185  -13.2543  -41.2266 H         1 UNK         0.3000 
    180 H180        1.3581  -10.0555  -40.8187 H         1 UNK         0.0600 
    181 H181        2.1905  -12.9890  -40.4434 H         1 UNK         0.0600 
    182 H182        1.0492  -12.1084  -39.4263 H         1 UNK         0.0600 
    183 H183        2.7295  -11.6163  -39.4887 H         1 UNK         0.0600 
    184 H184        3.2188   -9.9347  -42.0128 H         1 UNK         0.3000 
    185 H185        4.5383  -10.2878  -43.9603 H         1 UNK         0.0600 
    186 H186        5.6382  -10.7073  -41.7554 H         1 UNK         0.0600 
    187 H187        5.9494  -12.3790  -42.2048 H         1 UNK         0.0600 
    188 H188        6.7469  -11.0640  -43.0683 H         1 UNK         0.0600 
    189 H189        5.6298  -12.9210  -44.5626 H         1 UNK         0.3000 
    190 H190       -1.3995  -20.5873  -47.5144 H         1 UNK         0.3000 
    191 H191       -3.6326  -21.4148  -49.1273 H         1 UNK         0.0600 
    192 H192       -3.5245  -19.7699  -46.5447 H         1 UNK         0.0600 
    193 H193       -4.9303  -19.9309  -47.5898 H         1 UNK         0.0600 
    194 H194       -3.4854  -19.1381  -48.1914 H         1 UNK         0.0600 
    195 H195       -2.4673  -22.3202  -45.9034 H         1 UNK         0.3000 
    196 H196       -4.7575  -23.8569  -45.1025 H         1 UNK         0.0600 
    197 H197       -3.2572  -24.6662  -43.3001 H         1 UNK         0.0600 
    198 H198       -3.1360  -22.9215  -43.4632 H         1 UNK         0.0600 
    199 H199       -1.8613  -23.9601  -44.0989 H         1 UNK         0.0600 
    200 H200       -1.5638  -24.7547  -46.5232 H         1 UNK         0.3000 
    201 H201       -2.0316  -27.5328  -46.7705 H         1 UNK         0.0600 
    202 H202        0.2154  -26.5010  -46.9290 H         1 UNK         0.0600 
    203 H203       -0.2374  -25.6649  -48.4126 H         1 UNK         0.0600 
    204 H204       -0.1203  -27.4215  -48.3879 H         1 UNK         0.0600 
    205 H205       -2.8010  -24.8380  -48.9661 H         1 UNK         0.3000 
    206 H206       -3.8794  -26.4724  -51.0923 H         1 UNK         0.0600 
    207 H207       -2.9064  -24.2440  -51.5059 H         1 UNK         0.0600 
    208 H208       -4.6025  -24.1954  -51.9524 H         1 UNK         0.0600 
    209 H209       -4.0866  -23.4850  -50.4358 H         1 UNK         0.0600 
    210 H210       -5.1251  -25.8248  -48.0345 H         1 UNK         0.3000 
    211 H211       -7.0693  -25.8245  -46.9973 H         1 UNK         0.0600 
    212 H212       -8.1324  -27.4197  -49.3917 H         1 UNK         0.0600 
    213 H213       -8.8152  -27.3904  -47.7711 H         1 UNK         0.0600 
    214 H214       -7.2338  -28.1044  -48.0377 H         1 UNK         0.0600 
    215 H215       -6.4958  -23.5562  -48.6093 H         1 UNK         0.3000 
    216 H216       -7.1988  -21.7193  -49.5786 H         1 UNK         0.0600 
    217 H217       -9.2831  -20.6797  -48.7745 H         1 UNK         0.0600 
    218 H218       -8.4901  -21.5022  -47.4426 H         1 UNK         0.0600 
    219 H219       -9.8957  -22.2311  -48.2187 H         1 UNK         0.0600 
    220 H220       -7.7651  -24.3774  -51.0209 H         1 UNK         0.3000 
    221 H221       -9.8503  -23.4678  -52.9692 H         1 UNK         0.0600 
    222 H222       -9.0052  -26.2856  -52.1152 H         1 UNK         0.0600 
    223 H223      -10.4876  -25.4613  -51.6421 H         1 UNK         0.0600 
    224 H224      -10.2250  -25.8976  -53.3245 H         1 UNK         0.0600 
    225 H225       -6.6954  -25.1831  -52.6680 H         1 UNK         0.3000 
    226 H226       -6.4323  -25.5230  -55.5078 H         1 UNK         0.0600 
    227 H227       -5.6310  -27.1545  -53.7684 H         1 UNK         0.0600 
    228 H228       -4.4158  -26.7342  -54.9631 H         1 UNK         0.0600 
    229 H229       -4.3327  -26.0345  -53.3588 H         1 UNK         0.0600 
    230 H230       -6.7014  -22.8297  -55.1106 H         1 UNK         0.3000 
    231 H231       -6.0544  -20.8753  -55.9103 H         1 UNK         0.0600 
    232 H232       -5.9282  -22.3323  -57.9376 H         1 UNK         0.0600 
    233 H233       -4.1974  -22.5465  -57.6776 H         1 UNK         0.0600 
    234 H234       -4.8469  -20.9568  -58.0561 H         1 UNK         0.0600 
    235 H235       -4.3298  -21.7681  -53.5773 H         1 UNK         0.3000 
    236 H236       -1.7719  -20.4063  -53.9792 H         1 UNK         0.0600 
    237 H237       -1.4238  -20.9674  -51.5848 H         1 UNK         0.0600 
    238 H238       -3.0706  -21.5703  -51.4735 H         1 UNK         0.0600 
    239 H239       -1.8950  -22.3770  -52.5170 H         1 UNK         0.0600 
    240 H240       -3.2677  -18.6027  -54.7883 H         1 UNK         0.3000 
    241 H241       -4.0975  -16.6191  -54.7968 H         1 UNK         0.0600 
    242 H242       -5.8783  -16.6832  -51.2243 H         1 UNK         0.3800 
    243 H243       -4.6291  -17.8544  -51.6279 H         1 UNK         0.3800 
    244 H244       -1.7608  -16.0964  -54.7065 H         1 UNK         0.0800 
    245 H245       -2.6639  -14.8119  -53.9781 H         1 UNK         0.0800 
    246 H246        0.6230  -16.1613  -53.7226 H         1 UNK         0.0800 
    247 H247       -0.1701  -17.7042  -53.4855 H         1 UNK         0.0800 
@<TRIPOS>BOND
     1    1    2 1    
     2    1  127 1    
     3    1  128 1    
     4    1  129 1    
     5    2    3 2    
     6    2    4 am   BACKBONE|DICT|INTERRES
     7    4    5 1    
     8    4  130 1    
     9    5    6 1    
    10    5   65 1    
    11    5  131 1    
    12    6    7 1    
    13    6  132 1    
    14    6  133 1    
    15    7    8 1    
    16    8    9 1    
    17    8  134 1    
    18    8  135 1    
    19    9   10 ar   
    20    9   14 ar   
    21   10   11 ar   
    22   10  136 1    
    23   11   12 ar   
    24   11  126 1    
    25   12   13 ar   
    26   12  137 1    
    27   13   14 ar   
    28   13   15 1    
    29   14  138 1    
    30   15   16 1    
    31   15  139 1    
    32   15  140 1    
    33   16   17 1    
    34   17   18 1    
    35   17  141 1    
    36   17  142 1    
    37   18   19 1    
    38   18   67 1    
    39   18  143 1    
    40   19   20 am   BACKBONE|DICT|INTERRES
    41   19  144 1    
    42   20   21 2    
    43   20   22 1    
    44   22   23 1    
    45   22   24 1    
    46   22  145 1    
    47   23  146 1    
    48   23  147 1    
    49   23  148 1    
    50   24   25 am   BACKBONE|DICT|INTERRES
    51   24  149 1    
    52   25   26 2    
    53   25   27 1    
    54   27   28 1    
    55   27   29 1    
    56   27  150 1    
    57   28  151 1    
    58   28  152 1    
    59   28  153 1    
    60   29   30 am   BACKBONE|DICT|INTERRES
    61   29  154 1    
    62   30   31 2    
    63   30   32 1    
    64   32   33 1    
    65   32   34 1    
    66   32  155 1    
    67   33  156 1    
    68   33  157 1    
    69   33  158 1    
    70   34   35 am   BACKBONE|DICT|INTERRES
    71   34  159 1    
    72   35   36 2    
    73   35   37 1    
    74   37   38 1    
    75   37   39 1    
    76   37  160 1    
    77   38  161 1    
    78   38  162 1    
    79   38  163 1    
    80   39   40 am   BACKBONE|DICT|INTERRES
    81   39  164 1    
    82   40   41 2    
    83   40   42 1    
    84   42   43 1    
    85   42   44 1    
    86   42  165 1    
    87   43  166 1    
    88   43  167 1    
    89   43  168 1    
    90   44   45 am   BACKBONE|DICT|INTERRES
    91   44  169 1    
    92   45   46 2    
    93   45   47 1    
    94   47   48 1    
    95   47   49 1    
    96   47  170 1    
    97   48  171 1    
    98   48  172 1    
    99   48  173 1    
   100   49   50 am   BACKBONE|DICT|INTERRES
   101   49  174 1    
   102   50   51 2    
   103   50   52 1    
   104   52   53 1    
   105   52   54 1    
   106   52  175 1    
   107   53  176 1    
   108   53  177 1    
   109   53  178 1    
   110   54   55 am   BACKBONE|DICT|INTERRES
   111   54  179 1    
   112   55   56 2    
   113   55   57 1    
   114   57   58 1    
   115   57   59 1    
   116   57  180 1    
   117   58  181 1    
   118   58  182 1    
   119   58  183 1    
   120   59   60 am   BACKBONE|DICT|INTERRES
   121   59  184 1    
   122   60   61 2    
   123   60   62 1    
   124   62   63 1    
   125   62   64 1    
   126   62  185 1    
   127   63  186 1    
   128   63  187 1    
   129   63  188 1    
   130   64   65 am   BACKBONE|DICT|INTERRES
   131   64  189 1    
   132   65   66 2    
   133   67   68 2    
   134   67   69 am   BACKBONE|DICT|INTERRES
   135   69   70 1    
   136   69  190 1    
   137   70   71 1    
   138   70   72 1    
   139   70  191 1    
   140   71  192 1    
   141   71  193 1    
   142   71  194 1    
   143   72   73 2    
   144   72   74 am   BACKBONE|DICT|INTERRES
   145   74   75 1    
   146   74  195 1    
   147   75   76 1    
   148   75   77 1    
   149   75  196 1    
   150   76  197 1    
   151   76  198 1    
   152   76  199 1    
   153   77   78 2    
   154   77   79 am   BACKBONE|DICT|INTERRES
   155   79   80 1    
   156   79  200 1    
   157   80   81 1    
   158   80   82 1    
   159   80  201 1    
   160   81  202 1    
   161   81  203 1    
   162   81  204 1    
   163   82   83 2    
   164   82   84 am   BACKBONE|DICT|INTERRES
   165   84   85 1    
   166   84  205 1    
   167   85   86 1    
   168   85   87 1    
   169   85  206 1    
   170   86  207 1    
   171   86  208 1    
   172   86  209 1    
   173   87   88 2    
   174   87   89 am   BACKBONE|DICT|INTERRES
   175   89   90 1    
   176   89  210 1    
   177   90   91 1    
   178   90   92 1    
   179   90  211 1    
   180   91  212 1    
   181   91  213 1    
   182   91  214 1    
   183   92   93 2    
   184   92   94 am   BACKBONE|DICT|INTERRES
   185   94   95 1    
   186   94  215 1    
   187   95   96 1    
   188   95   97 1    
   189   95  216 1    
   190   96  217 1    
   191   96  218 1    
   192   96  219 1    
   193   97   98 2    
   194   97   99 am   BACKBONE|DICT|INTERRES
   195   99  100 1    
   196   99  220 1    
   197  100  101 1    
   198  100  102 1    
   199  100  221 1    
   200  101  222 1    
   201  101  223 1    
   202  101  224 1    
   203  102  103 2    
   204  102  104 am   BACKBONE|DICT|INTERRES
   205  104  105 1    
   206  104  225 1    
   207  105  106 1    
   208  105  107 1    
   209  105  226 1    
   210  106  227 1    
   211  106  228 1    
   212  106  229 1    
   213  107  108 2    
   214  107  109 am   BACKBONE|DICT|INTERRES
   215  109  110 1    
   216  109  230 1    
   217  110  111 1    
   218  110  112 1    
   219  110  231 1    
   220  111  232 1    
   221  111  233 1    
   222  111  234 1    
   223  112  113 2    
   224  112  114 am   BACKBONE|DICT|INTERRES
   225  114  115 1    
   226  114  235 1    
   227  115  116 1    
   228  115  117 1    
   229  115  236 1    
   230  116  237 1    
   231  116  238 1    
   232  116  239 1    
   233  117  118 2    
   234  117  119 am   BACKBONE|DICT|INTERRES
   235  119  120 1    
   236  119  240 1    
   237  120  121 1    
   238  120  124 1    
   239  120  241 1    
   240  121  122 am   BACKBONE|DICT|INTERRES
   241  121  123 2    
   242  122  242 1    
   243  122  243 1    
   244  124  125 1    
   245  124  244 1    
   246  124  245 1    
   247  125  126 1    
   248  126  246 1    
   249  126  247 1    
@<TRIPOS>SUBSTRUCTURE
     1 UNK         1 GROUP             0       ****    0 ROOT    
