@<TRIPOS>MOLECULE
3R540
247   249    1
SMALL
USER_CHARGES


@<TRIPOS>ATOM
      1 CA          5.3972  -18.5290  -48.5513 C.3       0 UNK        -0.1800 
      2 C           4.6664  -17.4755  -47.7317 C.2       0 UNK         0.5000 
      3 O           4.8490  -17.4109  -46.5164 O.2       0 UNK        -0.5000 
      4 N           3.8306  -16.6620  -48.3894 N.am      1 UNK        -0.5000 
      5 CA          3.0244  -15.5861  -47.8013 C.3       1 UNK         0.1400 
      6 C6          1.8606  -15.1768  -48.7405 C.3       23 UNK        -0.0398 
      7 S7          0.6211  -16.4988  -48.9697 S.3       23 UNK        -0.2404 
      8 C8         -0.9032  -15.5054  -48.9718 C.3       23 UNK        -0.0205 
      9 C9         -2.1053  -16.2882  -49.4742 C.ar      23 UNK        -0.0193 
     10 C10        -2.2831  -16.4864  -50.8457 C.ar      23 UNK        -0.1150 
     11 C11        -3.4185  -17.1414  -51.3307 C.ar      23 UNK        -0.0193 
     12 C12        -4.3811  -17.6048  -50.4280 C.ar      23 UNK        -0.1150 
     13 C13        -4.2215  -17.4005  -49.0529 C.ar      23 UNK        -0.0193 
     14 C14        -3.0754  -16.7522  -48.5814 C.ar      23 UNK        -0.1150 
     15 C15        -5.3234  -17.8106  -48.0863 C.3       23 UNK        -0.0205 
     16 S16        -5.2076  -19.5542  -47.5857 S.3       23 UNK        -0.2404 
     17 C17        -3.8033  -19.5333  -46.4232 C.3       23 UNK        -0.0398 
     18 CA         -2.5724  -20.2802  -46.9862 C.3       11 UNK         0.1400 
     19 N          -1.3377  -19.9273  -46.2832 N.am      11 UNK        -0.5000 
     20 C          -0.1162  -20.3189  -46.6718 C.2       10 UNK         0.5000 
     21 O           0.1008  -20.9548  -47.7023 O.2       10 UNK        -0.5000 
     22 CA          1.0546  -19.9926  -45.7336 C.3       10 UNK         0.1400 
     23 CB          1.6904  -18.6606  -46.1327 C.3       10 UNK        -0.1800 
     24 N           0.6489  -19.9429  -44.3298 N.am      10 UNK        -0.5000 
     25 C           0.3689  -21.0238  -43.5930 C.2       9 UNK         0.5000 
     26 O           0.4328  -22.1760  -44.0197 O.2       9 UNK        -0.5000 
     27 CA         -0.1191  -20.7710  -42.1563 C.3       9 UNK         0.1400 
     28 CB          1.0516  -20.3920  -41.2371 C.3       9 UNK        -0.1800 
     29 N          -1.1688  -19.7524  -42.0565 N.am      9 UNK        -0.5000 
     30 C          -2.3569  -19.8189  -42.6725 C.2       8 UNK         0.5000 
     31 O          -2.6580  -20.6924  -43.4858 O.2       8 UNK        -0.5000 
     32 CA         -3.3881  -18.7447  -42.3099 C.3       8 UNK         0.1400 
     33 CB         -3.9870  -19.0451  -40.9198 C.3       8 UNK        -0.1800 
     34 N          -2.8245  -17.3924  -42.3670 N.am      8 UNK        -0.5000 
     35 C          -3.5707  -16.2769  -42.3362 C.2       7 UNK         0.5000 
     36 O          -4.8015  -16.2825  -42.2838 O.2       7 UNK        -0.5000 
     37 CA         -2.8442  -14.9179  -42.3603 C.3       7 UNK         0.1400 
     38 CB         -2.5747  -14.4314  -40.9281 C.3       7 UNK        -0.1800 
     39 N          -1.5847  -14.9216  -43.0987 N.am      7 UNK        -0.5000 
     40 C          -1.4600  -15.1078  -44.4200 C.2       6 UNK         0.5000 
     41 O          -2.4096  -15.3047  -45.1775 O.2       6 UNK        -0.5000 
     42 CA         -0.0308  -15.0615  -44.9989 C.3       6 UNK         0.1400 
     43 CB          0.2420  -13.6740  -45.6006 C.3       6 UNK        -0.1800 
     44 N           1.0344  -15.3534  -44.0353 N.am      6 UNK        -0.5000 
     45 C           1.1478  -16.4410  -43.2593 C.2       5 UNK         0.5000 
     46 O           0.3490  -17.3778  -43.2738 O.2       5 UNK        -0.5000 
     47 CA          2.3308  -16.4672  -42.2742 C.3       5 UNK         0.1400 
     48 CB          3.4577  -17.3534  -42.8238 C.3       5 UNK        -0.1800 
     49 N           2.8501  -15.1271  -41.9720 N.am      5 UNK        -0.5000 
     50 C           2.1863  -14.2113  -41.2461 C.2       4 UNK         0.5000 
     51 O           1.0764  -14.4300  -40.7578 O.2       4 UNK        -0.5000 
     52 CA          2.8050  -12.8044  -41.0837 C.3       4 UNK         0.1400 
     53 CB          2.7387  -12.3055  -39.6252 C.3       4 UNK        -0.1800 
     54 N           4.1534  -12.6507  -41.6444 N.am      4 UNK        -0.5000 
     55 C           5.3004  -13.1930  -41.2087 C.2       3 UNK         0.5000 
     56 O           5.3884  -13.9054  -40.2076 O.2       3 UNK        -0.5000 
     57 CA          6.5496  -12.9038  -42.0742 C.3       3 UNK         0.1400 
     58 CB          7.7035  -13.8912  -41.8001 C.3       3 UNK        -0.1800 
     59 N           6.2682  -12.8415  -43.5186 N.am      3 UNK        -0.5000 
     60 C           5.7023  -13.8041  -44.2614 C.2       2 UNK         0.5000 
     61 O           5.2754  -14.8628  -43.7950 O.2       2 UNK        -0.5000 
     62 CA          5.5797  -13.5321  -45.7684 C.3       2 UNK         0.1400 
     63 CB          6.9511  -13.5984  -46.4632 C.3       2 UNK        -0.1800 
     64 N           4.6922  -14.5316  -46.3519 N.am      2 UNK        -0.5000 
     65 C           3.9110  -14.3766  -47.4227 C.2       1 UNK         0.5000 
     66 O           3.8816  -13.3465  -48.0986 O.2       1 UNK        -0.5000 
     67 C          -2.7793  -21.8102  -46.9913 C.2       11 UNK         0.5000 
     68 O          -3.0872  -22.3866  -48.0342 O.2       11 UNK        -0.5000 
     69 N          -2.5513  -22.4421  -45.8334 N.am      12 UNK        -0.5000 
     70 CA         -2.5585  -23.8895  -45.6686 C.3       12 UNK         0.1400 
     71 CB         -2.6015  -24.2322  -44.1710 C.3       12 UNK        -0.1800 
     72 C          -1.3621  -24.5632  -46.3654 C.2       12 UNK         0.5000 
     73 O          -1.5710  -25.4347  -47.2082 O.2       12 UNK        -0.5000 
     74 N          -0.1384  -24.1684  -45.9894 N.am      13 UNK        -0.5000 
     75 CA          1.0897  -24.8740  -46.3552 C.3       13 UNK         0.1400 
     76 CB          2.2025  -24.5154  -45.3575 C.3       13 UNK        -0.1800 
     77 C           1.5643  -24.6222  -47.7957 C.2       13 UNK         0.5000 
     78 O           1.8905  -25.5817  -48.4956 O.2       13 UNK        -0.5000 
     79 N           1.6408  -23.3485  -48.2014 N.am      14 UNK        -0.5000 
     80 CA          2.2449  -22.9368  -49.4698 C.3       14 UNK         0.1400 
     81 CB          2.9643  -21.5877  -49.2945 C.3       14 UNK        -0.1800 
     82 C           1.2051  -22.8688  -50.5961 C.2       14 UNK         0.5000 
     83 O           1.4694  -23.3624  -51.6930 O.2       14 UNK        -0.5000 
     84 N           0.0384  -22.2773  -50.3065 N.am      15 UNK        -0.5000 
     85 CA         -1.0575  -22.1255  -51.2674 C.3       15 UNK         0.1400 
     86 CB         -1.8829  -20.8810  -50.9150 C.3       15 UNK        -0.1800 
     87 C          -1.9519  -23.3765  -51.3850 C.2       15 UNK         0.5000 
     88 O          -2.8115  -23.4036  -52.2636 O.2       15 UNK        -0.5000 
     89 N          -1.7320  -24.3843  -50.5251 N.am      16 UNK        -0.5000 
     90 CA         -2.4235  -25.6792  -50.4817 C.3       16 UNK         0.1400 
     91 CB         -2.1437  -26.4956  -51.7619 C.3       16 UNK        -0.1800 
     92 C          -3.9270  -25.5338  -50.1676 C.2       16 UNK         0.5000 
     93 O          -4.7704  -26.0632  -50.8940 O.2       16 UNK        -0.5000 
     94 N          -4.2203  -24.7946  -49.0880 N.am      17 UNK        -0.5000 
     95 CA         -5.5464  -24.3789  -48.6181 C.3       17 UNK         0.1400 
     96 CB         -6.4069  -25.5917  -48.2070 C.3       17 UNK        -0.1800 
     97 C          -6.2265  -23.4518  -49.6427 C.2       17 UNK         0.5000 
     98 O          -7.3591  -23.7024  -50.0576 O.2       17 UNK        -0.5000 
     99 N          -5.4753  -22.4288  -50.0755 N.am      18 UNK        -0.5000 
    100 CA        -5.7676  -21.4309  -51.1168 C.3       18 UNK         0.1400 
    101 CB        -7.0371  -20.6213  -50.7883 C.3       18 UNK        -0.1800 
    102 C         -5.8507  -21.9835  -52.5555 C.2       18 UNK         0.5000 
    103 O         -5.5335  -21.2468  -53.4905 O.2       18 UNK        -0.5000 
    104 N         -6.2915  -23.2392  -52.7180 N.am      19 UNK        -0.5000 
    105 CA        -6.5495  -23.9384  -53.9784 C.3       19 UNK         0.1400 
    106 CB        -5.2213  -24.2535  -54.7023 C.3       19 UNK        -0.1800 
    107 C         -7.5775  -23.1663  -54.8337 C.2       19 UNK         0.5000 
    108 O         -8.6007  -22.7310  -54.3002 O.2       19 UNK        -0.5000 
    109 N         -7.2861  -22.9585  -56.1229 N.am      20 UNK        -0.5000 
    110 CA        -8.0638  -22.1210  -57.0385 C.3       20 UNK         0.1400 
    111 CB        -7.8661  -22.6459  -58.4723 C.3       20 UNK        -0.1800 
    112 C         -7.6809  -20.6314  -56.8897 C.2       20 UNK         0.5000 
    113 O         -7.3327  -19.9836  -57.8786 O.2       20 UNK        -0.5000 
    114 N         -7.7007  -20.1304  -55.6445 N.am      21 UNK        -0.5000 
    115 CA        -7.3090  -18.7814  -55.2114 C.3       21 UNK         0.1400 
    116 CB        -8.3812  -17.7568  -55.6340 C.3       21 UNK        -0.1800 
    117 C         -5.8872  -18.3922  -55.6757 C.2       21 UNK         0.5000 
    118 O         -5.6753  -17.2867  -56.1773 O.2       21 UNK        -0.5000 
    119 N         -4.9527  -19.3405  -55.5332 N.am      22 UNK        -0.5000 
    120 CA        -3.5663  -19.3007  -56.0302 C.3       22 UNK         0.1400 
    121 C         -3.4179  -19.2730  -57.5855 C.2       22 UNK         0.5000 
    122 N         -4.4666  -19.4785  -58.3740 N.am      22 UNK        -0.7600 
    123 O         -2.3153  -19.1000  -58.0983 O.2       22 UNK        -0.5000 
    124 C124       -2.7006  -18.2115  -55.3359 C.3       23 UNK        -0.0398 
    125 S125       -2.4882  -18.5113  -53.5491 S.3       23 UNK        -0.2404 
    126 C126       -3.6234  -17.2870  -52.8315 C.3       23 UNK        -0.0205 
    127 H127        6.4716  -18.3482  -48.5215 H         1 UNK         0.0600 
    128 H128        5.0781  -18.5261  -49.5939 H         1 UNK         0.0600 
    129 H129        5.2056  -19.5205  -48.1412 H         1 UNK         0.0600 
    130 H130        3.7331  -16.7697  -49.3887 H         1 UNK         0.3000 
    131 H131        2.5837  -15.9549  -46.8727 H         1 UNK         0.0600 
    132 H132        2.2407  -14.8884  -49.7221 H         1 UNK         0.0800 
    133 H133        1.3536  -14.2945  -48.3474 H         1 UNK         0.0800 
    134 H134       -1.0911  -15.1306  -47.9657 H         1 UNK         0.0800 
    135 H135       -0.7643  -14.6284  -49.6061 H         1 UNK         0.0800 
    136 H136       -1.5430  -16.1144  -51.5405 H         1 UNK         0.1150 
    137 H137       -5.2715  -18.0945  -50.7956 H         1 UNK         0.1150 
    138 H138       -2.9549  -16.5748  -47.5220 H         1 UNK         0.1150 
    139 H139       -5.3165  -17.1718  -47.2015 H         1 UNK         0.0800 
    140 H140       -6.2937  -17.6524  -48.5595 H         1 UNK         0.0800 
    141 H141       -4.1369  -19.9675  -45.4805 H         1 UNK         0.0800 
    142 H142       -3.5438  -18.4991  -46.1954 H         1 UNK         0.0800 
    143 H143       -2.4336  -19.9529  -48.0173 H         1 UNK         0.0600 
    144 H144       -1.4314  -19.4560  -45.3966 H         1 UNK         0.3000 
    145 H145        1.8067  -20.7758  -45.8511 H         1 UNK         0.0600 
    146 H146        2.5486  -18.4282  -45.5040 H         1 UNK         0.0600 
    147 H147        2.0371  -18.6960  -47.1657 H         1 UNK         0.0600 
    148 H148        0.9797  -17.8403  -46.0555 H         1 UNK         0.0600 
    149 H149        0.5340  -19.0216  -43.9103 H         1 UNK         0.3000 
    150 H150       -0.5416  -21.7095  -41.7914 H         1 UNK         0.0600 
    151 H151        1.8573  -21.1242  -41.3054 H         1 UNK         0.0600 
    152 H152        0.7363  -20.3539  -40.1943 H         1 UNK         0.0600 
    153 H153        1.4679  -19.4190  -41.4956 H         1 UNK         0.0600 
    154 H154       -0.9975  -18.9999  -41.4069 H         1 UNK         0.3000 
    155 H155       -4.1875  -18.8106  -43.0512 H         1 UNK         0.0600 
    156 H156       -3.2572  -18.8881  -40.1249 H         1 UNK         0.0600 
    157 H157       -4.3262  -20.0799  -40.8545 H         1 UNK         0.0600 
    158 H158       -4.8511  -18.4164  -40.7067 H         1 UNK         0.0600 
    159 H159       -1.8223  -17.3137  -42.4930 H         1 UNK         0.3000 
    160 H160       -3.5099  -14.1999  -42.8438 H         1 UNK         0.0600 
    161 H161       -2.1439  -13.4299  -40.9254 H         1 UNK         0.0600 
    162 H162       -1.8851  -15.0932  -40.4022 H         1 UNK         0.0600 
    163 H163       -3.4976  -14.3892  -40.3479 H         1 UNK         0.0600 
    164 H164       -0.7459  -14.7744  -42.5546 H         1 UNK         0.3000 
    165 H165        0.0227  -15.8028  -45.7963 H         1 UNK         0.0600 
    166 H166        0.1852  -12.8923  -44.8418 H         1 UNK         0.0600 
    167 H167        1.2309  -13.6216  -46.0538 H         1 UNK         0.0600 
    168 H168       -0.4859  -13.4278  -46.3744 H         1 UNK         0.0600 
    169 H169        1.7427  -14.6431  -43.9294 H         1 UNK         0.3000 
    170 H170        1.9740  -16.9105  -41.3424 H         1 UNK         0.0600 
    171 H171        3.1217  -18.3832  -42.9485 H         1 UNK         0.0600 
    172 H172        3.8035  -17.0093  -43.7988 H         1 UNK         0.0600 
    173 H173        4.3145  -17.3696  -42.1500 H         1 UNK         0.0600 
    174 H174        3.7566  -14.8952  -42.3646 H         1 UNK         0.3000 
    175 H175        2.1709  -12.1424  -41.6751 H         1 UNK         0.0600 
    176 H176        3.2746  -12.9657  -38.9430 H         1 UNK         0.0600 
    177 H177        3.1628  -11.3060  -39.5295 H         1 UNK         0.0600 
    178 H178        1.7064  -12.2521  -39.2772 H         1 UNK         0.0600 
    179 H179        4.2055  -12.0929  -42.4854 H         1 UNK         0.3000 
    180 H180        6.8921  -11.9097  -41.7835 H         1 UNK         0.0600 
    181 H181        7.4154  -14.9199  -42.0196 H         1 UNK         0.0600 
    182 H182        8.0136  -13.8535  -40.7552 H         1 UNK         0.0600 
    183 H183        8.5784  -13.6524  -42.4047 H         1 UNK         0.0600 
    184 H184        6.5709  -11.9952  -43.9812 H         1 UNK         0.3000 
    185 H185        5.1473  -12.5380  -45.8989 H         1 UNK         0.0600 
    186 H186        7.6397  -12.8588  -46.0533 H         1 UNK         0.0600 
    187 H187        7.4119  -14.5799  -46.3441 H         1 UNK         0.0600 
    188 H188        6.8623  -13.3992  -47.5313 H         1 UNK         0.0600 
    189 H189        4.6913  -15.4259  -45.8680 H         1 UNK         0.3000 
    190 H190       -2.3406  -21.8879  -45.0085 H         1 UNK         0.3000 
    191 H191       -3.4712  -24.2803  -46.1227 H         1 UNK         0.0600 
    192 H192       -1.7443  -23.8245  -43.6344 H         1 UNK         0.0600 
    193 H193       -2.6043  -25.3119  -44.0166 H         1 UNK         0.0600 
    194 H194       -3.5028  -23.8341  -43.7044 H         1 UNK         0.0600 
    195 H195       -0.0441  -23.4321  -45.2926 H         1 UNK         0.3000 
    196 H196        0.9013  -25.9457  -46.2580 H         1 UNK         0.0600 
    197 H197        3.1172  -25.0679  -45.5761 H         1 UNK         0.0600 
    198 H198        1.9105  -24.7613  -44.3363 H         1 UNK         0.0600 
    199 H199        2.4462  -23.4527  -45.3880 H         1 UNK         0.0600 
    200 H200        1.2564  -22.6106  -47.6237 H         1 UNK         0.3000 
    201 H201        3.0030  -23.6668  -49.7625 H         1 UNK         0.0600 
    202 H202        3.6990  -21.6353  -48.4908 H         1 UNK         0.0600 
    203 H203        2.2746  -20.7749  -49.0692 H         1 UNK         0.0600 
    204 H204        3.4976  -21.3136  -50.2054 H         1 UNK         0.0600 
    205 H205       -0.0885  -21.8668  -49.3846 H         1 UNK         0.3000 
    206 H206       -0.6301  -21.9525  -52.2573 H         1 UNK         0.0600 
    207 H207       -1.2591  -19.9894  -50.8446 H         1 UNK         0.0600 
    208 H208       -2.6342  -20.6942  -51.6811 H         1 UNK         0.0600 
    209 H209       -2.4133  -20.9971  -49.9768 H         1 UNK         0.0600 
    210 H210       -1.0193  -24.2454  -49.8232 H         1 UNK         0.3000 
    211 H211       -1.9887  -26.2354  -49.6512 H         1 UNK         0.0600 
    212 H212       -2.5889  -26.0369  -52.6452 H         1 UNK         0.0600 
    213 H213       -2.5535  -27.5026  -51.6774 H         1 UNK         0.0600 
    214 H214       -1.0728  -26.5948  -51.9391 H         1 UNK         0.0600 
    215 H215       -3.4474  -24.3390  -48.6149 H         1 UNK         0.3000 
    216 H216       -5.3870  -23.7785  -47.7216 H         1 UNK         0.0600 
    217 H217       -7.3414  -25.2653  -47.7493 H         1 UNK         0.0600 
    218 H218       -5.8875  -26.2131  -47.4775 H         1 UNK         0.0600 
    219 H219       -6.6660  -26.2200  -49.0594 H         1 UNK         0.0600 
    220 H220       -4.5540  -22.3496  -49.6602 H         1 UNK         0.3000 
    221 H221       -4.9273  -20.7365  -51.0983 H         1 UNK         0.0600 
    222 H222       -7.9378  -21.2321  -50.8533 H         1 UNK         0.0600 
    223 H223       -6.9945  -20.1958  -49.7874 H         1 UNK         0.0600 
    224 H224       -7.1587  -19.7932  -51.4876 H         1 UNK         0.0600 
    225 H225       -6.5986  -23.7204  -51.8799 H         1 UNK         0.3000 
    226 H226       -7.0191  -24.8865  -53.7141 H         1 UNK         0.0600 
    227 H227       -4.5462  -24.8016  -54.0443 H         1 UNK         0.0600 
    228 H228       -5.3844  -24.8786  -55.5808 H         1 UNK         0.0600 
    229 H229       -4.7015  -23.3494  -55.0217 H         1 UNK         0.0600 
    230 H230       -6.4093  -23.3121  -56.4776 H         1 UNK         0.3000 
    231 H231       -9.1256  -22.2071  -56.7984 H         1 UNK         0.0600 
    232 H232       -8.1722  -23.6888  -58.5555 H         1 UNK         0.0600 
    233 H233       -6.8242  -22.5758  -58.7875 H         1 UNK         0.0600 
    234 H234       -8.4650  -22.0763  -59.1842 H         1 UNK         0.0600 
    235 H235       -7.9676  -20.7675  -54.9028 H         1 UNK         0.3000 
    236 H236       -7.2786  -18.8024  -54.1210 H         1 UNK         0.0600 
    237 H237       -8.4458  -17.6648  -56.7187 H         1 UNK         0.0600 
    238 H238       -9.3657  -18.0414  -55.2627 H         1 UNK         0.0600 
    239 H239       -8.1577  -16.7676  -55.2329 H         1 UNK         0.0600 
    240 H240       -5.2087  -20.1837  -55.0248 H         1 UNK         0.3000 
    241 H241       -3.1462  -20.2669  -55.7487 H         1 UNK         0.0600 
    242 H242       -5.4008  -19.6076  -57.9998 H         1 UNK         0.3800 
    243 H243       -4.3352  -19.4678  -59.3728 H         1 UNK         0.3800 
    244 H244       -3.1087  -17.2156  -55.5101 H         1 UNK         0.0800 
    245 H245       -1.6950  -18.1946  -55.7587 H         1 UNK         0.0800 
    246 H246       -4.6506  -17.5783  -53.0530 H         1 UNK         0.0800 
    247 H247       -3.4655  -16.3173  -53.3058 H         1 UNK         0.0800 
@<TRIPOS>BOND
     1    1    2 1    
     2    1  127 1    
     3    1  128 1    
     4    1  129 1    
     5    2    3 2    
     6    2    4 am   BACKBONE|DICT|INTERRES
     7    4    5 1    
     8    4  130 1    
     9    5    6 1    
    10    5   65 1    
    11    5  131 1    
    12    6    7 1    
    13    6  132 1    
    14    6  133 1    
    15    7    8 1    
    16    8    9 1    
    17    8  134 1    
    18    8  135 1    
    19    9   10 ar   
    20    9   14 ar   
    21   10   11 ar   
    22   10  136 1    
    23   11   12 ar   
    24   11  126 1    
    25   12   13 ar   
    26   12  137 1    
    27   13   14 ar   
    28   13   15 1    
    29   14  138 1    
    30   15   16 1    
    31   15  139 1    
    32   15  140 1    
    33   16   17 1    
    34   17   18 1    
    35   17  141 1    
    36   17  142 1    
    37   18   19 1    
    38   18   67 1    
    39   18  143 1    
    40   19   20 am   BACKBONE|DICT|INTERRES
    41   19  144 1    
    42   20   21 2    
    43   20   22 1    
    44   22   23 1    
    45   22   24 1    
    46   22  145 1    
    47   23  146 1    
    48   23  147 1    
    49   23  148 1    
    50   24   25 am   BACKBONE|DICT|INTERRES
    51   24  149 1    
    52   25   26 2    
    53   25   27 1    
    54   27   28 1    
    55   27   29 1    
    56   27  150 1    
    57   28  151 1    
    58   28  152 1    
    59   28  153 1    
    60   29   30 am   BACKBONE|DICT|INTERRES
    61   29  154 1    
    62   30   31 2    
    63   30   32 1    
    64   32   33 1    
    65   32   34 1    
    66   32  155 1    
    67   33  156 1    
    68   33  157 1    
    69   33  158 1    
    70   34   35 am   BACKBONE|DICT|INTERRES
    71   34  159 1    
    72   35   36 2    
    73   35   37 1    
    74   37   38 1    
    75   37   39 1    
    76   37  160 1    
    77   38  161 1    
    78   38  162 1    
    79   38  163 1    
    80   39   40 am   BACKBONE|DICT|INTERRES
    81   39  164 1    
    82   40   41 2    
    83   40   42 1    
    84   42   43 1    
    85   42   44 1    
    86   42  165 1    
    87   43  166 1    
    88   43  167 1    
    89   43  168 1    
    90   44   45 am   BACKBONE|DICT|INTERRES
    91   44  169 1    
    92   45   46 2    
    93   45   47 1    
    94   47   48 1    
    95   47   49 1    
    96   47  170 1    
    97   48  171 1    
    98   48  172 1    
    99   48  173 1    
   100   49   50 am   BACKBONE|DICT|INTERRES
   101   49  174 1    
   102   50   51 2    
   103   50   52 1    
   104   52   53 1    
   105   52   54 1    
   106   52  175 1    
   107   53  176 1    
   108   53  177 1    
   109   53  178 1    
   110   54   55 am   BACKBONE|DICT|INTERRES
   111   54  179 1    
   112   55   56 2    
   113   55   57 1    
   114   57   58 1    
   115   57   59 1    
   116   57  180 1    
   117   58  181 1    
   118   58  182 1    
   119   58  183 1    
   120   59   60 am   BACKBONE|DICT|INTERRES
   121   59  184 1    
   122   60   61 2    
   123   60   62 1    
   124   62   63 1    
   125   62   64 1    
   126   62  185 1    
   127   63  186 1    
   128   63  187 1    
   129   63  188 1    
   130   64   65 am   BACKBONE|DICT|INTERRES
   131   64  189 1    
   132   65   66 2    
   133   67   68 2    
   134   67   69 am   BACKBONE|DICT|INTERRES
   135   69   70 1    
   136   69  190 1    
   137   70   71 1    
   138   70   72 1    
   139   70  191 1    
   140   71  192 1    
   141   71  193 1    
   142   71  194 1    
   143   72   73 2    
   144   72   74 am   BACKBONE|DICT|INTERRES
   145   74   75 1    
   146   74  195 1    
   147   75   76 1    
   148   75   77 1    
   149   75  196 1    
   150   76  197 1    
   151   76  198 1    
   152   76  199 1    
   153   77   78 2    
   154   77   79 am   BACKBONE|DICT|INTERRES
   155   79   80 1    
   156   79  200 1    
   157   80   81 1    
   158   80   82 1    
   159   80  201 1    
   160   81  202 1    
   161   81  203 1    
   162   81  204 1    
   163   82   83 2    
   164   82   84 am   BACKBONE|DICT|INTERRES
   165   84   85 1    
   166   84  205 1    
   167   85   86 1    
   168   85   87 1    
   169   85  206 1    
   170   86  207 1    
   171   86  208 1    
   172   86  209 1    
   173   87   88 2    
   174   87   89 am   BACKBONE|DICT|INTERRES
   175   89   90 1    
   176   89  210 1    
   177   90   91 1    
   178   90   92 1    
   179   90  211 1    
   180   91  212 1    
   181   91  213 1    
   182   91  214 1    
   183   92   93 2    
   184   92   94 am   BACKBONE|DICT|INTERRES
   185   94   95 1    
   186   94  215 1    
   187   95   96 1    
   188   95   97 1    
   189   95  216 1    
   190   96  217 1    
   191   96  218 1    
   192   96  219 1    
   193   97   98 2    
   194   97   99 am   BACKBONE|DICT|INTERRES
   195   99  100 1    
   196   99  220 1    
   197  100  101 1    
   198  100  102 1    
   199  100  221 1    
   200  101  222 1    
   201  101  223 1    
   202  101  224 1    
   203  102  103 2    
   204  102  104 am   BACKBONE|DICT|INTERRES
   205  104  105 1    
   206  104  225 1    
   207  105  106 1    
   208  105  107 1    
   209  105  226 1    
   210  106  227 1    
   211  106  228 1    
   212  106  229 1    
   213  107  108 2    
   214  107  109 am   BACKBONE|DICT|INTERRES
   215  109  110 1    
   216  109  230 1    
   217  110  111 1    
   218  110  112 1    
   219  110  231 1    
   220  111  232 1    
   221  111  233 1    
   222  111  234 1    
   223  112  113 2    
   224  112  114 am   BACKBONE|DICT|INTERRES
   225  114  115 1    
   226  114  235 1    
   227  115  116 1    
   228  115  117 1    
   229  115  236 1    
   230  116  237 1    
   231  116  238 1    
   232  116  239 1    
   233  117  118 2    
   234  117  119 am   BACKBONE|DICT|INTERRES
   235  119  120 1    
   236  119  240 1    
   237  120  121 1    
   238  120  124 1    
   239  120  241 1    
   240  121  122 am   BACKBONE|DICT|INTERRES
   241  121  123 2    
   242  122  242 1    
   243  122  243 1    
   244  124  125 1    
   245  124  244 1    
   246  124  245 1    
   247  125  126 1    
   248  126  246 1    
   249  126  247 1    
@<TRIPOS>SUBSTRUCTURE
     1 UNK         1 GROUP             0       ****    0 ROOT    
