@<TRIPOS>MOLECULE
3R540
247   249    1
SMALL
USER_CHARGES


@<TRIPOS>ATOM
      1 CA         -3.4131   -7.5899  -48.2490 C.3       0 UNK        -0.1800 
      2 C          -2.3747   -8.6985  -48.1545 C.2       0 UNK         0.5000 
      3 O          -1.3745   -8.6664  -48.8729 O.2       0 UNK        -0.5000 
      4 N          -2.5987   -9.6760  -47.2669 N.am      1 UNK        -0.5000 
      5 CA         -1.7129  -10.8176  -47.0115 C.3       1 UNK         0.1400 
      6 C6         -2.5094  -12.0382  -46.4702 C.3       23 UNK        -0.0398 
      7 S7         -1.8128  -13.6414  -47.0078 S.3       23 UNK        -0.2404 
      8 C8         -2.9208  -14.0047  -48.4069 C.3       23 UNK        -0.0205 
      9 C9         -2.7176  -15.3991  -48.9819 C.ar      23 UNK        -0.0193 
     10 C10        -1.6319  -15.6650  -49.8198 C.ar      23 UNK        -0.1150 
     11 C11        -1.4887  -16.9192  -50.4214 C.ar      23 UNK        -0.0193 
     12 C12        -2.4554  -17.9029  -50.1916 C.ar      23 UNK        -0.1150 
     13 C13        -3.5338  -17.6650  -49.3307 C.ar      23 UNK        -0.0193 
     14 C14        -3.6528  -16.4078  -48.7291 C.ar      23 UNK        -0.1150 
     15 C15        -4.6080  -18.7213  -49.0618 C.3       23 UNK        -0.0205 
     16 S16        -4.0398  -20.4560  -49.1358 S.3       23 UNK        -0.2404 
     17 C17        -2.7726  -20.4633  -47.8290 C.3       23 UNK        -0.0398 
     18 CA         -2.1132  -21.8508  -47.6359 C.3       11 UNK         0.1400 
     19 N          -0.7209  -21.7314  -47.1967 N.am      11 UNK        -0.5000 
     20 C           0.1354  -22.7513  -47.0507 C.2       10 UNK         0.5000 
     21 O          -0.1361  -23.9181  -47.3275 O.2       10 UNK        -0.5000 
     22 CA          1.5100  -22.4212  -46.4447 C.3       10 UNK         0.1400 
     23 CB          2.4754  -21.9194  -47.5290 C.3       10 UNK        -0.1800 
     24 N           1.4194  -21.4444  -45.3571 N.am      10 UNK        -0.5000 
     25 C           0.7959  -21.6691  -44.1905 C.2       9 UNK         0.5000 
     26 O           0.2876  -22.7497  -43.8887 O.2       9 UNK        -0.5000 
     27 CA          0.6655  -20.4760  -43.2228 C.3       9 UNK         0.1400 
     28 CB          1.9955  -20.1865  -42.5121 C.3       9 UNK        -0.1800 
     29 N           0.1914  -19.2633  -43.8898 N.am      9 UNK        -0.5000 
     30 C          -0.9977  -19.1410  -44.4972 C.2       8 UNK         0.5000 
     31 O          -1.8667  -20.0105  -44.4806 O.2       8 UNK        -0.5000 
     32 CA         -1.2376  -17.8588  -45.3134 C.3       8 UNK         0.1400 
     33 CB         -1.9289  -16.7822  -44.4647 C.3       8 UNK        -0.1800 
     34 N          -0.0033  -17.3359  -45.9034 N.am      8 UNK        -0.5000 
     35 C           0.6801  -17.9663  -46.8677 C.2       7 UNK         0.5000 
     36 O           0.3469  -19.0564  -47.3295 O.2       7 UNK        -0.5000 
     37 CA          1.9697  -17.2918  -47.3606 C.3       7 UNK         0.1400 
     38 CB          1.6826  -15.9295  -48.0124 C.3       7 UNK        -0.1800 
     39 N           2.9679  -17.1221  -46.3057 N.am      7 UNK        -0.5000 
     40 C           3.6147  -18.1194  -45.6869 C.2       6 UNK         0.5000 
     41 O           3.3397  -19.3079  -45.8368 O.2       6 UNK        -0.5000 
     42 CA          4.7659  -17.7277  -44.7472 C.3       6 UNK         0.1400 
     43 CB          5.9711  -17.2106  -45.5492 C.3       6 UNK        -0.1800 
     44 N           4.3329  -16.6963  -43.8115 N.am      6 UNK        -0.5000 
     45 C           4.2083  -16.8587  -42.4882 C.2       5 UNK         0.5000 
     46 O           4.5627  -17.8713  -41.8837 O.2       5 UNK        -0.5000 
     47 CA          3.5613  -15.7009  -41.6969 C.3       5 UNK         0.1400 
     48 CB          4.6433  -14.8318  -41.0382 C.3       5 UNK        -0.1800 
     49 N           2.6852  -14.8394  -42.4968 N.am      5 UNK        -0.5000 
     50 C           1.5989  -15.2503  -43.1648 C.2       4 UNK         0.5000 
     51 O           1.1888  -16.4110  -43.1570 O.2       4 UNK        -0.5000 
     52 CA          0.8771  -14.2068  -44.0397 C.3       4 UNK         0.1400 
     53 CB         -0.2415  -13.5385  -43.2268 C.3       4 UNK        -0.1800 
     54 N           1.7284  -13.1813  -44.6662 N.am      4 UNK        -0.5000 
     55 C           2.8613  -13.3958  -45.3592 C.2       3 UNK         0.5000 
     56 O           3.3823  -14.5062  -45.4689 O.2       3 UNK        -0.5000 
     57 CA          3.5284  -12.1971  -46.0634 C.3       3 UNK         0.1400 
     58 CB          4.0988  -12.6017  -47.4350 C.3       3 UNK        -0.1800 
     59 N           2.6036  -11.0835  -46.2623 N.am      3 UNK        -0.5000 
     60 C           2.5525   -9.9672  -45.5259 C.2       2 UNK         0.5000 
     61 O           3.2929   -9.7416  -44.5684 O.2       2 UNK        -0.5000 
     62 CA          1.4779   -8.9327  -45.9192 C.3       2 UNK         0.1400 
     63 CB          2.0911   -7.8239  -46.7877 C.3       2 UNK        -0.1800 
     64 N           0.3288   -9.5080  -46.6273 N.am      2 UNK        -0.5000 
     65 C          -0.5360  -10.3873  -46.1052 C.2       1 UNK         0.5000 
     66 O          -0.4345  -10.8164  -44.9563 O.2       1 UNK        -0.5000 
     67 C          -2.9364  -22.7506  -46.6894 C.2       11 UNK         0.5000 
     68 O          -3.6218  -23.6597  -47.1550 O.2       11 UNK        -0.5000 
     69 N          -2.8125  -22.5224  -45.3742 N.am      12 UNK        -0.5000 
     70 CA         -3.4354  -23.3296  -44.3254 C.3       12 UNK         0.1400 
     71 CB         -3.2241  -22.6596  -42.9597 C.3       12 UNK        -0.1800 
     72 C          -2.9266  -24.7819  -44.3123 C.2       12 UNK         0.5000 
     73 O          -3.7392  -25.7021  -44.2194 O.2       12 UNK        -0.5000 
     74 N          -1.6064  -24.9681  -44.4594 N.am      13 UNK        -0.5000 
     75 CA         -0.9577  -26.2796  -44.5618 C.3       13 UNK         0.1400 
     76 CB          0.5676  -26.1018  -44.5332 C.3       13 UNK        -0.1800 
     77 C          -1.3925  -27.0782  -45.8079 C.2       13 UNK         0.5000 
     78 O          -1.5257  -28.2999  -45.7321 O.2       13 UNK        -0.5000 
     79 N          -1.6469  -26.3705  -46.9161 N.am      14 UNK        -0.5000 
     80 CA         -2.1859  -26.9093  -48.1662 C.3       14 UNK         0.1400 
     81 CB         -1.8352  -25.9418  -49.3097 C.3       14 UNK        -0.1800 
     82 C          -3.7075  -27.1720  -48.1256 C.2       14 UNK         0.5000 
     83 O          -4.2449  -27.6846  -49.1079 O.2       14 UNK        -0.5000 
     84 N          -4.3747  -26.8137  -47.0163 N.am      15 UNK        -0.5000 
     85 CA         -5.8220  -26.8754  -46.7862 C.3       15 UNK         0.1400 
     86 CB         -6.3269  -28.3335  -46.7813 C.3       15 UNK        -0.1800 
     87 C          -6.5951  -25.9596  -47.7563 C.2       15 UNK         0.5000 
     88 O          -7.5627  -26.3864  -48.3896 O.2       15 UNK        -0.5000 
     89 N          -6.1109  -24.7167  -47.8803 N.am      16 UNK        -0.5000 
     90 CA         -6.5481  -23.6202  -48.7491 C.3       16 UNK         0.1400 
     91 CB         -8.0326  -23.2650  -48.5441 C.3       16 UNK        -0.1800 
     92 C          -6.2204  -23.8396  -50.2347 C.2       16 UNK         0.5000 
     93 O          -5.7724  -22.8979  -50.8866 O.2       16 UNK        -0.5000 
     94 N          -6.4540  -25.0580  -50.7436 N.am      17 UNK        -0.5000 
     95 CA         -6.1788  -25.5276  -52.1083 C.3       17 UNK         0.1400 
     96 CB         -4.6592  -25.6806  -52.3191 C.3       17 UNK        -0.1800 
     97 C          -6.8475  -24.6670  -53.2036 C.2       17 UNK         0.5000 
     98 O          -6.2548  -24.4409  -54.2600 O.2       17 UNK        -0.5000 
     99 N          -8.0664  -24.1856  -52.9099 N.am      18 UNK        -0.5000 
    100 CA        -8.8610  -23.2425  -53.7081 C.3       18 UNK         0.1400 
    101 CB        -9.3208  -23.8900  -55.0318 C.3       18 UNK        -0.1800 
    102 C         -8.1500  -21.8837  -53.9053 C.2       18 UNK         0.5000 
    103 O         -8.2209  -21.3033  -54.9896 O.2       18 UNK        -0.5000 
    104 N         -7.4854  -21.4196  -52.8355 N.am      19 UNK        -0.5000 
    105 CA        -6.6055  -20.2537  -52.7371 C.3       19 UNK         0.1400 
    106 CB        -7.3112  -18.9453  -53.1509 C.3       19 UNK        -0.1800 
    107 C         -5.2898  -20.5054  -53.4940 C.2       19 UNK         0.5000 
    108 O         -5.1653  -20.1454  -54.6668 O.2       19 UNK        -0.5000 
    109 N         -4.3493  -21.1571  -52.7965 N.am      20 UNK        -0.5000 
    110 CA        -2.9987  -21.4997  -53.2477 C.3       20 UNK         0.1400 
    111 CB        -2.2323  -22.1226  -52.0678 C.3       20 UNK        -0.1800 
    112 C         -2.2055  -20.2998  -53.8056 C.2       20 UNK         0.5000 
    113 O         -2.3812  -19.1710  -53.3443 O.2       20 UNK        -0.5000 
    114 N         -1.3252  -20.5747  -54.7759 N.am      21 UNK        -0.5000 
    115 CA        -0.4898  -19.5678  -55.4362 C.3       21 UNK         0.1400 
    116 CB        -0.0126  -20.1292  -56.7851 C.3       21 UNK        -0.1800 
    117 C          0.7153  -19.1114  -54.5898 C.2       21 UNK         0.5000 
    118 O          1.2520  -18.0335  -54.8477 O.2       21 UNK        -0.5000 
    119 N          1.1272  -19.9401  -53.6191 N.am      22 UNK        -0.5000 
    120 CA         2.2919  -19.7416  -52.7330 C.3       22 UNK         0.1400 
    121 C          3.6762  -19.8137  -53.4525 C.2       22 UNK         0.5000 
    122 N          3.7680  -20.3566  -54.6607 N.am      22 UNK        -0.7600 
    123 O          4.6935  -19.4043  -52.8994 O.2       22 UNK        -0.5000 
    124 C124        2.1658  -18.4928  -51.8134 C.3       23 UNK        -0.0398 
    125 S125        0.7190  -18.5723  -50.7066 S.3       23 UNK        -0.2404 
    126 C126       -0.3045  -17.2043  -51.3362 C.3       23 UNK        -0.0205 
    127 H127       -4.2410   -7.7494  -47.5577 H         1 UNK         0.0600 
    128 H128       -3.8185   -7.5412  -49.2596 H         1 UNK         0.0600 
    129 H129       -2.9564   -6.6279  -48.0168 H         1 UNK         0.0600 
    130 H130       -3.4198   -9.6229  -46.6806 H         1 UNK         0.3000 
    131 H131       -1.2797  -11.1098  -47.9709 H         1 UNK         0.0600 
    132 H132       -2.5944  -12.0291  -45.3828 H         1 UNK         0.0800 
    133 H133       -3.5412  -11.9905  -46.8202 H         1 UNK         0.0800 
    134 H134       -3.9573  -13.8895  -48.0862 H         1 UNK         0.0800 
    135 H135       -2.7607  -13.2629  -49.1909 H         1 UNK         0.0800 
    136 H136       -0.9072  -14.8865  -50.0125 H         1 UNK         0.1150 
    137 H137       -2.3525  -18.8606  -50.6811 H         1 UNK         0.1150 
    138 H138       -4.4949  -16.2033  -48.0829 H         1 UNK         0.1150 
    139 H139       -5.0571  -18.5545  -48.0815 H         1 UNK         0.0800 
    140 H140       -5.4064  -18.5894  -49.7927 H         1 UNK         0.0800 
    141 H141       -3.2014  -20.0810  -46.9013 H         1 UNK         0.0800 
    142 H142       -2.0167  -19.7386  -48.1293 H         1 UNK         0.0800 
    143 H143       -2.0749  -22.3515  -48.6060 H         1 UNK         0.0600 
    144 H144       -0.3786  -20.7911  -47.0154 H         1 UNK         0.3000 
    145 H145        1.9204  -23.3441  -46.0306 H         1 UNK         0.0600 
    146 H146        2.5548  -22.6388  -48.3449 H         1 UNK         0.0600 
    147 H147        2.1464  -20.9720  -47.9575 H         1 UNK         0.0600 
    148 H148        3.4775  -21.7736  -47.1259 H         1 UNK         0.0600 
    149 H149        1.8491  -20.5401  -45.5302 H         1 UNK         0.3000 
    150 H150       -0.0719  -20.7449  -42.4637 H         1 UNK         0.0600 
    151 H151        1.8869  -19.3819  -41.7845 H         1 UNK         0.0600 
    152 H152        2.7766  -19.8952  -43.2142 H         1 UNK         0.0600 
    153 H153        2.3500  -21.0666  -41.9745 H         1 UNK         0.0600 
    154 H154        0.8208  -18.4705  -43.9117 H         1 UNK         0.3000 
    155 H155       -1.9111  -18.1087  -46.1354 H         1 UNK         0.0600 
    156 H156       -1.3547  -16.5308  -43.5744 H         1 UNK         0.0600 
    157 H157       -2.9066  -17.1291  -44.1284 H         1 UNK         0.0600 
    158 H158       -2.0903  -15.8682  -45.0348 H         1 UNK         0.0600 
    159 H159        0.3654  -16.4817  -45.5183 H         1 UNK         0.3000 
    160 H160        2.4060  -17.9398  -48.1237 H         1 UNK         0.0600 
    161 H161        0.9904  -16.0401  -48.8453 H         1 UNK         0.0600 
    162 H162        2.5946  -15.4835  -48.4091 H         1 UNK         0.0600 
    163 H163        1.2412  -15.2211  -47.3111 H         1 UNK         0.0600 
    164 H164        3.2293  -16.1626  -46.0903 H         1 UNK         0.3000 
    165 H165        5.0763  -18.6293  -44.2149 H         1 UNK         0.0600 
    166 H166        6.8155  -16.9997  -44.8929 H         1 UNK         0.0600 
    167 H167        6.3023  -17.9512  -46.2782 H         1 UNK         0.0600 
    168 H168        5.7350  -16.2946  -46.0925 H         1 UNK         0.0600 
    169 H169        3.9977  -15.8315  -44.2251 H         1 UNK         0.3000 
    170 H170        2.9521  -16.1486  -40.9092 H         1 UNK         0.0600 
    171 H171        4.2014  -14.0647  -40.4019 H         1 UNK         0.0600 
    172 H172        5.3001  -15.4344  -40.4093 H         1 UNK         0.0600 
    173 H173        5.2667  -14.3347  -41.7826 H         1 UNK         0.0600 
    174 H174        2.9549  -13.8701  -42.5775 H         1 UNK         0.3000 
    175 H175        0.4060  -14.7542  -44.8560 H         1 UNK         0.0600 
    176 H176        0.1495  -12.7792  -42.5489 H         1 UNK         0.0600 
    177 H177       -0.7891  -14.2652  -42.6248 H         1 UNK         0.0600 
    178 H178       -0.9723  -13.0673  -43.8809 H         1 UNK         0.0600 
    179 H179        1.3607  -12.2386  -44.6426 H         1 UNK         0.3000 
    180 H180        4.3634  -11.8859  -45.4328 H         1 UNK         0.0600 
    181 H181        4.5783  -11.7552  -47.9267 H         1 UNK         0.0600 
    182 H182        3.3199  -12.9779  -48.0993 H         1 UNK         0.0600 
    183 H183        4.8531  -13.3835  -47.3363 H         1 UNK         0.0600 
    184 H184        1.9417  -11.1803  -47.0185 H         1 UNK         0.3000 
    185 H185        1.1089   -8.4801  -44.9965 H         1 UNK         0.0600 
    186 H186        2.4572   -8.2144  -47.7381 H         1 UNK         0.0600 
    187 H187        1.3613   -7.0434  -47.0042 H         1 UNK         0.0600 
    188 H188        2.9325   -7.3493  -46.2809 H         1 UNK         0.0600 
    189 H189        0.1375   -9.1562  -47.5597 H         1 UNK         0.3000 
    190 H190       -2.2656  -21.7228  -45.0624 H         1 UNK         0.3000 
    191 H191       -4.5086  -23.3576  -44.5247 H         1 UNK         0.0600 
    192 H192       -2.1659  -22.5628  -42.7161 H         1 UNK         0.0600 
    193 H193       -3.6939  -23.2379  -42.1633 H         1 UNK         0.0600 
    194 H194       -3.6626  -21.6617  -42.9396 H         1 UNK         0.0600 
    195 H195       -0.9986  -24.1547  -44.4888 H         1 UNK         0.3000 
    196 H196       -1.2468  -26.8593  -43.6829 H         1 UNK         0.0600 
    197 H197        1.0735  -27.0677  -44.5564 H         1 UNK         0.0600 
    198 H198        0.8883  -25.5876  -43.6270 H         1 UNK         0.0600 
    199 H199        0.9216  -25.5260  -45.3879 H         1 UNK         0.0600 
    200 H200       -1.4382  -25.3766  -46.9121 H         1 UNK         0.3000 
    201 H201       -1.6981  -27.8645  -48.3698 H         1 UNK         0.0600 
    202 H202       -0.7610  -25.7646  -49.3618 H         1 UNK         0.0600 
    203 H203       -2.3281  -24.9768  -49.1865 H         1 UNK         0.0600 
    204 H204       -2.1409  -26.3460  -50.2749 H         1 UNK         0.0600 
    205 H205       -3.8415  -26.3941  -46.2643 H         1 UNK         0.3000 
    206 H206       -5.9891  -26.4699  -45.7875 H         1 UNK         0.0600 
    207 H207       -7.3753  -28.3798  -46.4847 H         1 UNK         0.0600 
    208 H208       -6.2470  -28.7984  -47.7641 H         1 UNK         0.0600 
    209 H209       -5.7627  -28.9425  -46.0750 H         1 UNK         0.0600 
    210 H210       -5.2387  -24.5089  -47.3969 H         1 UNK         0.3000 
    211 H211       -5.9652  -22.7551  -48.4302 H         1 UNK         0.0600 
    212 H212       -8.6975  -24.0605  -48.8808 H         1 UNK         0.0600 
    213 H213       -8.2945  -22.3661  -49.1035 H         1 UNK         0.0600 
    214 H214       -8.2485  -23.0681  -47.4941 H         1 UNK         0.0600 
    215 H215       -6.8501  -25.7448  -50.1085 H         1 UNK         0.3000 
    216 H216       -6.6244  -26.5201  -52.1865 H         1 UNK         0.0600 
    217 H217       -4.4399  -26.1518  -53.2777 H         1 UNK         0.0600 
    218 H218       -4.2173  -26.3055  -51.5441 H         1 UNK         0.0600 
    219 H219       -4.1529  -24.7161  -52.3043 H         1 UNK         0.0600 
    220 H220       -8.4603  -24.4398  -52.0149 H         1 UNK         0.3000 
    221 H221       -9.7569  -23.0290  -53.1234 H         1 UNK         0.0600 
    222 H222       -8.4848  -24.0751  -55.7066 H         1 UNK         0.0600 
    223 H223       -9.8238  -24.8401  -54.8521 H         1 UNK         0.0600 
    224 H224      -10.0263  -23.2452  -55.5569 H         1 UNK         0.0600 
    225 H225       -7.4234  -22.0395  -52.0383 H         1 UNK         0.3000 
    226 H226       -6.3574  -20.1545  -51.6788 H         1 UNK         0.0600 
    227 H227       -8.2341  -18.8009  -52.5895 H         1 UNK         0.0600 
    228 H228       -6.6698  -18.0865  -52.9504 H         1 UNK         0.0600 
    229 H229       -7.5562  -18.9214  -54.2126 H         1 UNK         0.0600 
    230 H230       -4.5979  -21.4858  -51.8697 H         1 UNK         0.3000 
    231 H231       -3.1066  -22.2483  -54.0348 H         1 UNK         0.0600 
    232 H232       -2.0422  -21.3889  -51.2831 H         1 UNK         0.0600 
    233 H233       -2.7834  -22.9487  -51.6195 H         1 UNK         0.0600 
    234 H234       -1.2662  -22.5128  -52.3894 H         1 UNK         0.0600 
    235 H235       -1.2330  -21.5246  -55.1062 H         1 UNK         0.3000 
    236 H236       -1.1011  -18.6848  -55.6355 H         1 UNK         0.0600 
    237 H237        0.5916  -21.0282  -56.6576 H         1 UNK         0.0600 
    238 H238       -0.8564  -20.3798  -57.4283 H         1 UNK         0.0600 
    239 H239        0.5950  -19.3983  -57.3205 H         1 UNK         0.0600 
    240 H240        0.6174  -20.8001  -53.4852 H         1 UNK         0.3000 
    241 H241        2.2965  -20.6124  -52.0765 H         1 UNK         0.0600 
    242 H242        4.6674  -20.4093  -55.1128 H         1 UNK         0.3800 
    243 H243        2.9505  -20.7133  -55.1279 H         1 UNK         0.3800 
    244 H244        3.0397  -18.4063  -51.1658 H         1 UNK         0.0800 
    245 H245        2.1436  -17.5760  -52.4031 H         1 UNK         0.0800 
    246 H246        0.3166  -16.3136  -51.4407 H         1 UNK         0.0800 
    247 H247       -0.6665  -17.4492  -52.3345 H         1 UNK         0.0800 
@<TRIPOS>BOND
     1    1    2 1    
     2    1  127 1    
     3    1  128 1    
     4    1  129 1    
     5    2    3 2    
     6    2    4 am   BACKBONE|DICT|INTERRES
     7    4    5 1    
     8    4  130 1    
     9    5    6 1    
    10    5   65 1    
    11    5  131 1    
    12    6    7 1    
    13    6  132 1    
    14    6  133 1    
    15    7    8 1    
    16    8    9 1    
    17    8  134 1    
    18    8  135 1    
    19    9   10 ar   
    20    9   14 ar   
    21   10   11 ar   
    22   10  136 1    
    23   11   12 ar   
    24   11  126 1    
    25   12   13 ar   
    26   12  137 1    
    27   13   14 ar   
    28   13   15 1    
    29   14  138 1    
    30   15   16 1    
    31   15  139 1    
    32   15  140 1    
    33   16   17 1    
    34   17   18 1    
    35   17  141 1    
    36   17  142 1    
    37   18   19 1    
    38   18   67 1    
    39   18  143 1    
    40   19   20 am   BACKBONE|DICT|INTERRES
    41   19  144 1    
    42   20   21 2    
    43   20   22 1    
    44   22   23 1    
    45   22   24 1    
    46   22  145 1    
    47   23  146 1    
    48   23  147 1    
    49   23  148 1    
    50   24   25 am   BACKBONE|DICT|INTERRES
    51   24  149 1    
    52   25   26 2    
    53   25   27 1    
    54   27   28 1    
    55   27   29 1    
    56   27  150 1    
    57   28  151 1    
    58   28  152 1    
    59   28  153 1    
    60   29   30 am   BACKBONE|DICT|INTERRES
    61   29  154 1    
    62   30   31 2    
    63   30   32 1    
    64   32   33 1    
    65   32   34 1    
    66   32  155 1    
    67   33  156 1    
    68   33  157 1    
    69   33  158 1    
    70   34   35 am   BACKBONE|DICT|INTERRES
    71   34  159 1    
    72   35   36 2    
    73   35   37 1    
    74   37   38 1    
    75   37   39 1    
    76   37  160 1    
    77   38  161 1    
    78   38  162 1    
    79   38  163 1    
    80   39   40 am   BACKBONE|DICT|INTERRES
    81   39  164 1    
    82   40   41 2    
    83   40   42 1    
    84   42   43 1    
    85   42   44 1    
    86   42  165 1    
    87   43  166 1    
    88   43  167 1    
    89   43  168 1    
    90   44   45 am   BACKBONE|DICT|INTERRES
    91   44  169 1    
    92   45   46 2    
    93   45   47 1    
    94   47   48 1    
    95   47   49 1    
    96   47  170 1    
    97   48  171 1    
    98   48  172 1    
    99   48  173 1    
   100   49   50 am   BACKBONE|DICT|INTERRES
   101   49  174 1    
   102   50   51 2    
   103   50   52 1    
   104   52   53 1    
   105   52   54 1    
   106   52  175 1    
   107   53  176 1    
   108   53  177 1    
   109   53  178 1    
   110   54   55 am   BACKBONE|DICT|INTERRES
   111   54  179 1    
   112   55   56 2    
   113   55   57 1    
   114   57   58 1    
   115   57   59 1    
   116   57  180 1    
   117   58  181 1    
   118   58  182 1    
   119   58  183 1    
   120   59   60 am   BACKBONE|DICT|INTERRES
   121   59  184 1    
   122   60   61 2    
   123   60   62 1    
   124   62   63 1    
   125   62   64 1    
   126   62  185 1    
   127   63  186 1    
   128   63  187 1    
   129   63  188 1    
   130   64   65 am   BACKBONE|DICT|INTERRES
   131   64  189 1    
   132   65   66 2    
   133   67   68 2    
   134   67   69 am   BACKBONE|DICT|INTERRES
   135   69   70 1    
   136   69  190 1    
   137   70   71 1    
   138   70   72 1    
   139   70  191 1    
   140   71  192 1    
   141   71  193 1    
   142   71  194 1    
   143   72   73 2    
   144   72   74 am   BACKBONE|DICT|INTERRES
   145   74   75 1    
   146   74  195 1    
   147   75   76 1    
   148   75   77 1    
   149   75  196 1    
   150   76  197 1    
   151   76  198 1    
   152   76  199 1    
   153   77   78 2    
   154   77   79 am   BACKBONE|DICT|INTERRES
   155   79   80 1    
   156   79  200 1    
   157   80   81 1    
   158   80   82 1    
   159   80  201 1    
   160   81  202 1    
   161   81  203 1    
   162   81  204 1    
   163   82   83 2    
   164   82   84 am   BACKBONE|DICT|INTERRES
   165   84   85 1    
   166   84  205 1    
   167   85   86 1    
   168   85   87 1    
   169   85  206 1    
   170   86  207 1    
   171   86  208 1    
   172   86  209 1    
   173   87   88 2    
   174   87   89 am   BACKBONE|DICT|INTERRES
   175   89   90 1    
   176   89  210 1    
   177   90   91 1    
   178   90   92 1    
   179   90  211 1    
   180   91  212 1    
   181   91  213 1    
   182   91  214 1    
   183   92   93 2    
   184   92   94 am   BACKBONE|DICT|INTERRES
   185   94   95 1    
   186   94  215 1    
   187   95   96 1    
   188   95   97 1    
   189   95  216 1    
   190   96  217 1    
   191   96  218 1    
   192   96  219 1    
   193   97   98 2    
   194   97   99 am   BACKBONE|DICT|INTERRES
   195   99  100 1    
   196   99  220 1    
   197  100  101 1    
   198  100  102 1    
   199  100  221 1    
   200  101  222 1    
   201  101  223 1    
   202  101  224 1    
   203  102  103 2    
   204  102  104 am   BACKBONE|DICT|INTERRES
   205  104  105 1    
   206  104  225 1    
   207  105  106 1    
   208  105  107 1    
   209  105  226 1    
   210  106  227 1    
   211  106  228 1    
   212  106  229 1    
   213  107  108 2    
   214  107  109 am   BACKBONE|DICT|INTERRES
   215  109  110 1    
   216  109  230 1    
   217  110  111 1    
   218  110  112 1    
   219  110  231 1    
   220  111  232 1    
   221  111  233 1    
   222  111  234 1    
   223  112  113 2    
   224  112  114 am   BACKBONE|DICT|INTERRES
   225  114  115 1    
   226  114  235 1    
   227  115  116 1    
   228  115  117 1    
   229  115  236 1    
   230  116  237 1    
   231  116  238 1    
   232  116  239 1    
   233  117  118 2    
   234  117  119 am   BACKBONE|DICT|INTERRES
   235  119  120 1    
   236  119  240 1    
   237  120  121 1    
   238  120  124 1    
   239  120  241 1    
   240  121  122 am   BACKBONE|DICT|INTERRES
   241  121  123 2    
   242  122  242 1    
   243  122  243 1    
   244  124  125 1    
   245  124  244 1    
   246  124  245 1    
   247  125  126 1    
   248  126  246 1    
   249  126  247 1    
@<TRIPOS>SUBSTRUCTURE
     1 UNK         1 GROUP             0       ****    0 ROOT    
