@<TRIPOS>MOLECULE
3R540
247   249    1
SMALL
USER_CHARGES


@<TRIPOS>ATOM
      1 CA          5.1926  -12.6206  -44.3821 C.3       0 UNK        -0.1800 
      2 C           5.1028  -12.7235  -45.8969 C.2       0 UNK         0.5000 
      3 O           5.7892  -11.9825  -46.5988 O.2       0 UNK        -0.5000 
      4 N           4.2286  -13.6115  -46.3955 N.am      1 UNK        -0.5000 
      5 CA          3.9309  -13.8779  -47.8172 C.3       1 UNK         0.1400 
      6 C6          5.1727  -14.3176  -48.6459 C.3       23 UNK        -0.0398 
      7 S7          5.8308  -15.9408  -48.1213 S.3       23 UNK        -0.2404 
      8 C8          6.0035  -16.8187  -49.7153 C.3       23 UNK        -0.0205 
      9 C9          4.7655  -17.6268  -50.0898 C.ar      23 UNK        -0.0193 
     10 C10         3.5448  -16.9897  -50.3280 C.ar      23 UNK        -0.1150 
     11 C11         2.4052  -17.7299  -50.6461 C.ar      23 UNK        -0.0193 
     12 C12         2.4955  -19.1176  -50.7802 C.ar      23 UNK        -0.1150 
     13 C13         3.7103  -19.7705  -50.5516 C.ar      23 UNK        -0.0193 
     14 C14         4.8392  -19.0200  -50.2031 C.ar      23 UNK        -0.1150 
     15 C15         3.8033  -21.2854  -50.6669 C.3       23 UNK        -0.0205 
     16 S16         3.3489  -22.1159  -49.1090 S.3       23 UNK        -0.2404 
     17 C17         1.5252  -22.1011  -49.1952 C.3       23 UNK        -0.0398 
     18 CA          0.8873  -23.2968  -48.4469 C.3       11 UNK         0.1400 
     19 N           1.2284  -23.3346  -47.0211 N.am      11 UNK        -0.5000 
     20 C           0.9694  -24.3644  -46.2012 C.2       10 UNK         0.5000 
     21 O           0.4422  -25.4156  -46.5648 O.2       10 UNK        -0.5000 
     22 CA          1.3220  -24.1709  -44.7148 C.3       10 UNK         0.1400 
     23 CB          2.8045  -24.4846  -44.4649 C.3       10 UNK        -0.1800 
     24 N           1.0242  -22.8209  -44.2344 N.am      10 UNK        -0.5000 
     25 C          -0.2072  -22.2961  -44.1522 C.2       9 UNK         0.5000 
     26 O          -1.2331  -22.9110  -44.4343 O.2       9 UNK        -0.5000 
     27 CA         -0.3061  -20.8178  -43.7404 C.3       9 UNK         0.1400 
     28 CB         -0.3792  -20.6767  -42.2136 C.3       9 UNK        -0.1800 
     29 N           0.8078  -20.0175  -44.2479 N.am      9 UNK        -0.5000 
     30 C           1.0750  -19.7972  -45.5400 C.2       8 UNK         0.5000 
     31 O           0.3693  -20.2327  -46.4523 O.2       8 UNK        -0.5000 
     32 CA          2.3511  -18.9824  -45.8560 C.3       8 UNK         0.1400 
     33 CB          2.3991  -18.5252  -47.3190 C.3       8 UNK        -0.1800 
     34 N           2.5357  -17.7973  -45.0164 N.am      8 UNK        -0.5000 
     35 C           2.8937  -17.7721  -43.7238 C.2       7 UNK         0.5000 
     36 O           3.0780  -18.7841  -43.0475 O.2       7 UNK        -0.5000 
     37 CA          3.0286  -16.3881  -43.0738 C.3       7 UNK         0.1400 
     38 CB          4.4716  -15.8683  -43.1776 C.3       7 UNK        -0.1800 
     39 N           2.0868  -15.4484  -43.6832 N.am      7 UNK        -0.5000 
     40 C           1.5299  -14.4005  -43.0687 C.2       6 UNK         0.5000 
     41 O           1.8808  -13.9883  -41.9627 O.2       6 UNK        -0.5000 
     42 CA          0.3728  -13.6972  -43.8129 C.3       6 UNK         0.1400 
     43 CB          0.8903  -12.4146  -44.4856 C.3       6 UNK        -0.1800 
     44 N          -0.3236  -14.5169  -44.8192 N.am      6 UNK        -0.5000 
     45 C          -0.9336  -15.6943  -44.5993 C.2       5 UNK         0.5000 
     46 O          -0.9497  -16.2569  -43.5037 O.2       5 UNK        -0.5000 
     47 CA         -1.6168  -16.3558  -45.8181 C.3       5 UNK         0.1400 
     48 CB         -2.4880  -17.5702  -45.4384 C.3       5 UNK        -0.1800 
     49 N          -2.3795  -15.4109  -46.6379 N.am      5 UNK        -0.5000 
     50 C          -3.3956  -14.6274  -46.2456 C.2       4 UNK         0.5000 
     51 O          -3.8590  -14.6276  -45.1036 O.2       4 UNK        -0.5000 
     52 CA         -3.9926  -13.6854  -47.3173 C.3       4 UNK         0.1400 
     53 CB         -4.7463  -12.4902  -46.6986 C.3       4 UNK        -0.1800 
     54 N          -3.0291  -13.1999  -48.3139 N.am      4 UNK        -0.5000 
     55 C          -1.8756  -12.5557  -48.0854 C.2       3 UNK         0.5000 
     56 O          -1.3991  -12.3863  -46.9617 O.2       3 UNK        -0.5000 
     57 CA         -1.1396  -12.0486  -49.3423 C.3       3 UNK         0.1400 
     58 CB         -1.9407  -10.9446  -50.0648 C.3       3 UNK        -0.1800 
     59 N           0.2423  -11.6192  -49.0974 N.am      3 UNK        -0.5000 
     60 C           0.6814  -10.5687  -48.3902 C.2       2 UNK         0.5000 
     61 O          -0.0533   -9.7434  -47.8440 O.2       2 UNK        -0.5000 
     62 CA          2.2157  -10.4188  -48.2917 C.3       2 UNK         0.1400 
     63 CB          2.6418   -9.2456  -47.3897 C.3       2 UNK        -0.1800 
     64 N           2.8779  -11.6316  -47.8070 N.am      2 UNK        -0.5000 
     65 C           3.1555  -12.7330  -48.5175 C.2       1 UNK         0.5000 
     66 O           2.7847  -12.8828  -49.6828 O.2       1 UNK        -0.5000 
     67 C          -0.6393  -23.3024  -48.6373 C.2       11 UNK         0.5000 
     68 O          -1.1484  -24.1032  -49.4212 O.2       11 UNK        -0.5000 
     69 N          -1.3379  -22.4495  -47.8734 N.am      12 UNK        -0.5000 
     70 CA         -2.7968  -22.3727  -47.8522 C.3       12 UNK         0.1400 
     71 CB         -3.2392  -21.1777  -46.9962 C.3       12 UNK        -0.1800 
     72 C          -3.4473  -23.6807  -47.3670 C.2       12 UNK         0.5000 
     73 O          -4.3720  -24.1684  -48.0145 O.2       12 UNK        -0.5000 
     74 N          -2.9299  -24.2543  -46.2706 N.am      13 UNK        -0.5000 
     75 CA         -3.3895  -25.5185  -45.6895 C.3       13 UNK         0.1400 
     76 CB         -2.6572  -25.7825  -44.3661 C.3       13 UNK        -0.1800 
     77 C          -3.2375  -26.7211  -46.6374 C.2       13 UNK         0.5000 
     78 O          -4.1376  -27.5593  -46.6928 O.2       13 UNK        -0.5000 
     79 N          -2.1406  -26.7615  -47.4079 N.am      14 UNK        -0.5000 
     80 CA         -1.8900  -27.7707  -48.4425 C.3       14 UNK         0.1400 
     81 CB         -0.4523  -27.6221  -48.9624 C.3       14 UNK        -0.1800 
     82 C          -2.8999  -27.7225  -49.6090 C.2       14 UNK         0.5000 
     83 O          -3.1334  -28.7476  -50.2498 O.2       14 UNK        -0.5000 
     84 N          -3.5010  -26.5486  -49.8380 N.am      15 UNK        -0.5000 
     85 CA         -4.5697  -26.3076  -50.8067 C.3       15 UNK         0.1400 
     86 CB         -4.2696  -24.9854  -51.5277 C.3       15 UNK        -0.1800 
     87 C          -5.9634  -26.2778  -50.1420 C.2       15 UNK         0.5000 
     88 O          -6.9222  -25.8332  -50.7750 O.2       15 UNK        -0.5000 
     89 N          -6.0596  -26.7153  -48.8751 N.am      16 UNK        -0.5000 
     90 CA         -7.2654  -26.7729  -48.0369 C.3       16 UNK         0.1400 
     91 CB         -8.2345  -27.8482  -48.5701 C.3       16 UNK        -0.1800 
     92 C          -7.9530  -25.4034  -47.8318 C.2       16 UNK         0.5000 
     93 O          -9.1694  -25.3477  -47.6452 O.2       16 UNK        -0.5000 
     94 N          -7.1595  -24.3239  -47.8962 N.am      17 UNK        -0.5000 
     95 CA         -7.5381  -22.9082  -47.8454 C.3       17 UNK         0.1400 
     96 CB         -8.1525  -22.5500  -46.4770 C.3       17 UNK        -0.1800 
     97 C          -8.4104  -22.4353  -49.0304 C.2       17 UNK         0.5000 
     98 O          -8.9440  -21.3260  -48.9788 O.2       17 UNK        -0.5000 
     99 N          -8.5282  -23.2525  -50.0875 N.am      18 UNK        -0.5000 
    100 CA        -9.2722  -22.9269  -51.3067 C.3       18 UNK         0.1400 
    101 CB        -9.7397  -24.2329  -51.9678 C.3       18 UNK        -0.1800 
    102 C         -8.4412  -22.0882  -52.2968 C.2       18 UNK         0.5000 
    103 O         -9.0116  -21.4699  -53.1966 O.2       18 UNK        -0.5000 
    104 N         -7.1167  -22.0837  -52.1175 N.am      19 UNK        -0.5000 
    105 CA        -6.1251  -21.3742  -52.9146 C.3       19 UNK         0.1400 
    106 CB        -5.9024  -22.1126  -54.2515 C.3       19 UNK        -0.1800 
    107 C         -4.8316  -21.2704  -52.0878 C.2       19 UNK         0.5000 
    108 O         -4.8254  -21.6443  -50.9123 O.2       19 UNK        -0.5000 
    109 N         -3.7606  -20.7689  -52.7197 N.am      20 UNK        -0.5000 
    110 CA        -2.3716  -20.7372  -52.2352 C.3       20 UNK         0.1400 
    111 CB        -1.8268  -22.1682  -52.0679 C.3       20 UNK        -0.1800 
    112 C         -2.1155  -19.8633  -50.9876 C.2       20 UNK         0.5000 
    113 O         -1.0341  -19.9438  -50.4060 O.2       20 UNK        -0.5000 
    114 N         -3.0850  -19.0126  -50.6269 N.am      21 UNK        -0.5000 
    115 CA        -2.9496  -17.9788  -49.5984 C.3       21 UNK         0.1400 
    116 CB        -4.3343  -17.6994  -48.9945 C.3       21 UNK        -0.1800 
    117 C         -2.3299  -16.6815  -50.1557 C.2       21 UNK         0.5000 
    118 O         -1.8185  -15.8773  -49.3756 O.2       21 UNK        -0.5000 
    119 N         -2.3671  -16.5204  -51.4866 N.am      22 UNK        -0.5000 
    120 CA        -1.9058  -15.3609  -52.2693 C.3       22 UNK         0.1400 
    121 C         -2.7838  -14.0883  -52.0755 C.2       22 UNK         0.5000 
    122 N         -2.7004  -13.1340  -52.9919 N.am      22 UNK        -0.7600 
    123 O         -3.5229  -13.9348  -51.1047 O.2       22 UNK        -0.5000 
    124 C124       -0.3960  -15.0354  -52.0821 C.3       23 UNK        -0.0398 
    125 S125        0.7294  -16.4297  -52.4418 S.3       23 UNK        -0.2404 
    126 C126        1.0662  -17.0280  -50.7576 C.3       23 UNK        -0.0205 
    127 H127        5.3784  -11.5891  -44.0824 H         1 UNK         0.0600 
    128 H128        4.2667  -12.9425  -43.9056 H         1 UNK         0.0600 
    129 H129        6.0111  -13.2368  -44.0105 H         1 UNK         0.0600 
    130 H130        3.7083  -14.1785  -45.7436 H         1 UNK         0.3000 
    131 H131        3.2326  -14.7165  -47.8152 H         1 UNK         0.0600 
    132 H132        4.9348  -14.3629  -49.7085 H         1 UNK         0.0800 
    133 H133        5.9750  -13.5836  -48.5746 H         1 UNK         0.0800 
    134 H134        6.2389  -16.1155  -50.5151 H         1 UNK         0.0800 
    135 H135        6.8689  -17.4785  -49.6384 H         1 UNK         0.0800 
    136 H136        3.4627  -15.9180  -50.2359 H         1 UNK         0.1150 
    137 H137        1.6120  -19.6904  -51.0246 H         1 UNK         0.1150 
    138 H138        5.7766  -19.5250  -50.0169 H         1 UNK         0.1150 
    139 H139        3.1771  -21.6440  -51.4851 H         1 UNK         0.0800 
    140 H140        4.8240  -21.5710  -50.9256 H         1 UNK         0.0800 
    141 H141        1.2268  -22.1243  -50.2446 H         1 UNK         0.0800 
    142 H142        1.1583  -21.1525  -48.8027 H         1 UNK         0.0800 
    143 H143        1.2712  -24.2147  -48.8981 H         1 UNK         0.0600 
    144 H144        1.6346  -22.4950  -46.6377 H         1 UNK         0.3000 
    145 H145        0.7215  -24.8751  -44.1353 H         1 UNK         0.0600 
    146 H146        3.0469  -24.4250  -43.4037 H         1 UNK         0.0600 
    147 H147        3.0503  -25.4942  -44.7970 H         1 UNK         0.0600 
    148 H148        3.4594  -23.7949  -44.9989 H         1 UNK         0.0600 
    149 H149        1.8105  -22.2421  -43.9791 H         1 UNK         0.3000 
    150 H150       -1.2302  -20.4231  -44.1651 H         1 UNK         0.0600 
    151 H151       -1.2114  -21.2533  -41.8075 H         1 UNK         0.0600 
    152 H152       -0.5318  -19.6370  -41.9228 H         1 UNK         0.0600 
    153 H153        0.5333  -21.0299  -41.7318 H         1 UNK         0.0600 
    154 H154        1.4623  -19.6459  -43.5656 H         1 UNK         0.3000 
    155 H155        3.1989  -19.6499  -45.6894 H         1 UNK         0.0600 
    156 H156        2.3923  -19.3824  -47.9885 H         1 UNK         0.0600 
    157 H157        3.3112  -17.9669  -47.5289 H         1 UNK         0.0600 
    158 H158        1.5473  -17.8958  -47.5795 H         1 UNK         0.0600 
    159 H159        2.4671  -16.9223  -45.5080 H         1 UNK         0.3000 
    160 H160        2.7754  -16.5085  -42.0181 H         1 UNK         0.0600 
    161 H161        4.7610  -15.6791  -44.2115 H         1 UNK         0.0600 
    162 H162        5.1768  -16.5927  -42.7681 H         1 UNK         0.0600 
    163 H163        4.5976  -14.9463  -42.6111 H         1 UNK         0.0600 
    164 H164        1.6456  -15.7495  -44.5372 H         1 UNK         0.3000 
    165 H165       -0.3635  -13.4146  -43.0583 H         1 UNK         0.0600 
    166 H166        1.5321  -12.6378  -45.3378 H         1 UNK         0.0600 
    167 H167        1.4676  -11.8051  -43.7888 H         1 UNK         0.0600 
    168 H168        0.0664  -11.7958  -44.8403 H         1 UNK         0.0600 
    169 H169       -0.4467  -14.0836  -45.7264 H         1 UNK         0.3000 
    170 H170       -0.8100  -16.7235  -46.4539 H         1 UNK         0.0600 
    171 H171       -3.2978  -17.2942  -44.7625 H         1 UNK         0.0600 
    172 H172       -1.8917  -18.3337  -44.9404 H         1 UNK         0.0600 
    173 H173       -2.9302  -18.0314  -46.3201 H         1 UNK         0.0600 
    174 H174       -2.0976  -15.3558  -47.6150 H         1 UNK         0.3000 
    175 H175       -4.7185  -14.2840  -47.8692 H         1 UNK         0.0600 
    176 H176       -5.1846  -11.8582  -47.4711 H         1 UNK         0.0600 
    177 H177       -5.5615  -12.8261  -46.0568 H         1 UNK         0.0600 
    178 H178       -4.0849  -11.8693  -46.0931 H         1 UNK         0.0600 
    179 H179       -3.2862  -13.3811  -49.2823 H         1 UNK         0.3000 
    180 H180       -1.0629  -12.8983  -50.0161 H         1 UNK         0.0600 
    181 H181       -2.1149  -10.0796  -49.4248 H         1 UNK         0.0600 
    182 H182       -2.9185  -11.3084  -50.3808 H         1 UNK         0.0600 
    183 H183       -1.4211  -10.6029  -50.9599 H         1 UNK         0.0600 
    184 H184        0.9618  -12.2272  -49.4766 H         1 UNK         0.3000 
    185 H185        2.5783  -10.2069  -49.2998 H         1 UNK         0.0600 
    186 H186        3.7262   -9.1333  -47.3749 H         1 UNK         0.0600 
    187 H187        2.2255   -8.3030  -47.7475 H         1 UNK         0.0600 
    188 H188        2.3051   -9.3864  -46.3617 H         1 UNK         0.0600 
    189 H189        3.2048  -11.6021  -46.8533 H         1 UNK         0.3000 
    190 H190       -0.8349  -21.8095  -47.2687 H         1 UNK         0.3000 
    191 H191       -3.1319  -22.1961  -48.8760 H         1 UNK         0.0600 
    192 H192       -2.8147  -20.2497  -47.3770 H         1 UNK         0.0600 
    193 H193       -4.3244  -21.0696  -47.0083 H         1 UNK         0.0600 
    194 H194       -2.9284  -21.2853  -45.9568 H         1 UNK         0.0600 
    195 H195       -2.1938  -23.7693  -45.7620 H         1 UNK         0.3000 
    196 H196       -4.4537  -25.4084  -45.4707 H         1 UNK         0.0600 
    197 H197       -2.9875  -26.7190  -43.9149 H         1 UNK         0.0600 
    198 H198       -2.8507  -24.9895  -43.6438 H         1 UNK         0.0600 
    199 H199       -1.5786  -25.8491  -44.5112 H         1 UNK         0.0600 
    200 H200       -1.4226  -26.0562  -47.2786 H         1 UNK         0.3000 
    201 H201       -1.9805  -28.7536  -47.9756 H         1 UNK         0.0600 
    202 H202        0.2724  -27.7423  -48.1570 H         1 UNK         0.0600 
    203 H203       -0.2875  -26.6454  -49.4176 H         1 UNK         0.0600 
    204 H204       -0.2282  -28.3779  -49.7161 H         1 UNK         0.0600 
    205 H205       -3.2511  -25.7582  -49.2558 H         1 UNK         0.3000 
    206 H206       -4.5894  -27.1032  -51.5537 H         1 UNK         0.0600 
    207 H207       -3.3063  -25.0229  -52.0363 H         1 UNK         0.0600 
    208 H208       -5.0258  -24.7568  -52.2791 H         1 UNK         0.0600 
    209 H209       -4.2409  -24.1570  -50.8210 H         1 UNK         0.0600 
    210 H210       -5.2113  -27.0284  -48.4175 H         1 UNK         0.3000 
    211 H211       -6.9315  -27.0905  -47.0483 H         1 UNK         0.0600 
    212 H212       -8.6595  -27.5666  -49.5341 H         1 UNK         0.0600 
    213 H213       -9.0641  -28.0068  -47.8803 H         1 UNK         0.0600 
    214 H214       -7.7302  -28.8067  -48.6928 H         1 UNK         0.0600 
    215 H215       -6.1633  -24.4786  -48.0459 H         1 UNK         0.3000 
    216 H216       -6.6024  -22.3545  -47.9356 H         1 UNK         0.0600 
    217 H217       -7.5091  -22.8754  -45.6595 H         1 UNK         0.0600 
    218 H218       -9.1314  -23.0093  -46.3386 H         1 UNK         0.0600 
    219 H219       -8.2819  -21.4720  -46.3756 H         1 UNK         0.0600 
    220 H220       -8.0499  -24.1468  -50.0768 H         1 UNK         0.3000 
    221 H221      -10.1589  -22.3471  -51.0420 H         1 UNK         0.0600 
    222 H222       -8.8976  -24.8374  -52.3060 H         1 UNK         0.0600 
    223 H223      -10.3302  -24.8360  -51.2778 H         1 UNK         0.0600 
    224 H224      -10.3644  -24.0274  -52.8378 H         1 UNK         0.0600 
    225 H225       -6.7284  -22.5604  -51.3132 H         1 UNK         0.3000 
    226 H226       -6.4825  -20.3610  -53.1079 H         1 UNK         0.0600 
    227 H227       -6.8340  -22.2226  -54.8066 H         1 UNK         0.0600 
    228 H228       -5.2135  -21.5706  -54.8995 H         1 UNK         0.0600 
    229 H229       -5.4912  -23.1103  -54.0939 H         1 UNK         0.0600 
    230 H230       -3.8821  -20.4586  -53.6737 H         1 UNK         0.3000 
    231 H231       -1.7937  -20.2679  -53.0326 H         1 UNK         0.0600 
    232 H232       -0.7625  -22.1651  -51.8314 H         1 UNK         0.0600 
    233 H233       -1.9530  -22.7495  -52.9811 H         1 UNK         0.0600 
    234 H234       -2.3385  -22.6946  -51.2641 H         1 UNK         0.0600 
    235 H235       -3.9603  -19.0500  -51.1272 H         1 UNK         0.3000 
    236 H236       -2.2938  -18.3394  -48.8032 H         1 UNK         0.0600 
    237 H237       -4.2757  -16.9495  -48.2058 H         1 UNK         0.0600 
    238 H238       -5.0345  -17.3304  -49.7448 H         1 UNK         0.0600 
    239 H239       -4.7589  -18.6012  -48.5526 H         1 UNK         0.0600 
    240 H240       -2.8128  -17.2461  -52.0257 H         1 UNK         0.3000 
    241 H241       -2.0474  -15.6593  -53.3088 H         1 UNK         0.0600 
    242 H242       -2.1162  -13.2259  -53.8084 H         1 UNK         0.3800 
    243 H243       -3.2654  -12.3065  -52.8837 H         1 UNK         0.3800 
    244 H244       -0.1045  -14.2232  -52.7497 H         1 UNK         0.0800 
    245 H245       -0.2011  -14.6640  -51.0778 H         1 UNK         0.0800 
    246 H246        1.0424  -16.2021  -50.0454 H         1 UNK         0.0800 
    247 H247        0.2745  -17.7090  -50.4520 H         1 UNK         0.0800 
@<TRIPOS>BOND
     1    1    2 1    
     2    1  127 1    
     3    1  128 1    
     4    1  129 1    
     5    2    3 2    
     6    2    4 am   BACKBONE|DICT|INTERRES
     7    4    5 1    
     8    4  130 1    
     9    5    6 1    
    10    5   65 1    
    11    5  131 1    
    12    6    7 1    
    13    6  132 1    
    14    6  133 1    
    15    7    8 1    
    16    8    9 1    
    17    8  134 1    
    18    8  135 1    
    19    9   10 ar   
    20    9   14 ar   
    21   10   11 ar   
    22   10  136 1    
    23   11   12 ar   
    24   11  126 1    
    25   12   13 ar   
    26   12  137 1    
    27   13   14 ar   
    28   13   15 1    
    29   14  138 1    
    30   15   16 1    
    31   15  139 1    
    32   15  140 1    
    33   16   17 1    
    34   17   18 1    
    35   17  141 1    
    36   17  142 1    
    37   18   19 1    
    38   18   67 1    
    39   18  143 1    
    40   19   20 am   BACKBONE|DICT|INTERRES
    41   19  144 1    
    42   20   21 2    
    43   20   22 1    
    44   22   23 1    
    45   22   24 1    
    46   22  145 1    
    47   23  146 1    
    48   23  147 1    
    49   23  148 1    
    50   24   25 am   BACKBONE|DICT|INTERRES
    51   24  149 1    
    52   25   26 2    
    53   25   27 1    
    54   27   28 1    
    55   27   29 1    
    56   27  150 1    
    57   28  151 1    
    58   28  152 1    
    59   28  153 1    
    60   29   30 am   BACKBONE|DICT|INTERRES
    61   29  154 1    
    62   30   31 2    
    63   30   32 1    
    64   32   33 1    
    65   32   34 1    
    66   32  155 1    
    67   33  156 1    
    68   33  157 1    
    69   33  158 1    
    70   34   35 am   BACKBONE|DICT|INTERRES
    71   34  159 1    
    72   35   36 2    
    73   35   37 1    
    74   37   38 1    
    75   37   39 1    
    76   37  160 1    
    77   38  161 1    
    78   38  162 1    
    79   38  163 1    
    80   39   40 am   BACKBONE|DICT|INTERRES
    81   39  164 1    
    82   40   41 2    
    83   40   42 1    
    84   42   43 1    
    85   42   44 1    
    86   42  165 1    
    87   43  166 1    
    88   43  167 1    
    89   43  168 1    
    90   44   45 am   BACKBONE|DICT|INTERRES
    91   44  169 1    
    92   45   46 2    
    93   45   47 1    
    94   47   48 1    
    95   47   49 1    
    96   47  170 1    
    97   48  171 1    
    98   48  172 1    
    99   48  173 1    
   100   49   50 am   BACKBONE|DICT|INTERRES
   101   49  174 1    
   102   50   51 2    
   103   50   52 1    
   104   52   53 1    
   105   52   54 1    
   106   52  175 1    
   107   53  176 1    
   108   53  177 1    
   109   53  178 1    
   110   54   55 am   BACKBONE|DICT|INTERRES
   111   54  179 1    
   112   55   56 2    
   113   55   57 1    
   114   57   58 1    
   115   57   59 1    
   116   57  180 1    
   117   58  181 1    
   118   58  182 1    
   119   58  183 1    
   120   59   60 am   BACKBONE|DICT|INTERRES
   121   59  184 1    
   122   60   61 2    
   123   60   62 1    
   124   62   63 1    
   125   62   64 1    
   126   62  185 1    
   127   63  186 1    
   128   63  187 1    
   129   63  188 1    
   130   64   65 am   BACKBONE|DICT|INTERRES
   131   64  189 1    
   132   65   66 2    
   133   67   68 2    
   134   67   69 am   BACKBONE|DICT|INTERRES
   135   69   70 1    
   136   69  190 1    
   137   70   71 1    
   138   70   72 1    
   139   70  191 1    
   140   71  192 1    
   141   71  193 1    
   142   71  194 1    
   143   72   73 2    
   144   72   74 am   BACKBONE|DICT|INTERRES
   145   74   75 1    
   146   74  195 1    
   147   75   76 1    
   148   75   77 1    
   149   75  196 1    
   150   76  197 1    
   151   76  198 1    
   152   76  199 1    
   153   77   78 2    
   154   77   79 am   BACKBONE|DICT|INTERRES
   155   79   80 1    
   156   79  200 1    
   157   80   81 1    
   158   80   82 1    
   159   80  201 1    
   160   81  202 1    
   161   81  203 1    
   162   81  204 1    
   163   82   83 2    
   164   82   84 am   BACKBONE|DICT|INTERRES
   165   84   85 1    
   166   84  205 1    
   167   85   86 1    
   168   85   87 1    
   169   85  206 1    
   170   86  207 1    
   171   86  208 1    
   172   86  209 1    
   173   87   88 2    
   174   87   89 am   BACKBONE|DICT|INTERRES
   175   89   90 1    
   176   89  210 1    
   177   90   91 1    
   178   90   92 1    
   179   90  211 1    
   180   91  212 1    
   181   91  213 1    
   182   91  214 1    
   183   92   93 2    
   184   92   94 am   BACKBONE|DICT|INTERRES
   185   94   95 1    
   186   94  215 1    
   187   95   96 1    
   188   95   97 1    
   189   95  216 1    
   190   96  217 1    
   191   96  218 1    
   192   96  219 1    
   193   97   98 2    
   194   97   99 am   BACKBONE|DICT|INTERRES
   195   99  100 1    
   196   99  220 1    
   197  100  101 1    
   198  100  102 1    
   199  100  221 1    
   200  101  222 1    
   201  101  223 1    
   202  101  224 1    
   203  102  103 2    
   204  102  104 am   BACKBONE|DICT|INTERRES
   205  104  105 1    
   206  104  225 1    
   207  105  106 1    
   208  105  107 1    
   209  105  226 1    
   210  106  227 1    
   211  106  228 1    
   212  106  229 1    
   213  107  108 2    
   214  107  109 am   BACKBONE|DICT|INTERRES
   215  109  110 1    
   216  109  230 1    
   217  110  111 1    
   218  110  112 1    
   219  110  231 1    
   220  111  232 1    
   221  111  233 1    
   222  111  234 1    
   223  112  113 2    
   224  112  114 am   BACKBONE|DICT|INTERRES
   225  114  115 1    
   226  114  235 1    
   227  115  116 1    
   228  115  117 1    
   229  115  236 1    
   230  116  237 1    
   231  116  238 1    
   232  116  239 1    
   233  117  118 2    
   234  117  119 am   BACKBONE|DICT|INTERRES
   235  119  120 1    
   236  119  240 1    
   237  120  121 1    
   238  120  124 1    
   239  120  241 1    
   240  121  122 am   BACKBONE|DICT|INTERRES
   241  121  123 2    
   242  122  242 1    
   243  122  243 1    
   244  124  125 1    
   245  124  244 1    
   246  124  245 1    
   247  125  126 1    
   248  126  246 1    
   249  126  247 1    
@<TRIPOS>SUBSTRUCTURE
     1 UNK         1 GROUP             0       ****    0 ROOT    
