@<TRIPOS>MOLECULE
3R540
247   249    1
SMALL
USER_CHARGES


@<TRIPOS>ATOM
      1 CA         -5.2238  -16.3617  -48.5932 C.3       0 UNK        -0.1800 
      2 C          -4.1211  -15.3296  -48.4074 C.2       0 UNK         0.5000 
      3 O          -4.4064  -14.1766  -48.0839 O.2       0 UNK        -0.5000 
      4 N          -2.8645  -15.7398  -48.6172 N.am      1 UNK        -0.5000 
      5 CA         -1.6649  -14.9253  -48.4196 C.3       1 UNK         0.1400 
      6 C6         -0.4209  -15.6072  -49.0441 C.3       23 UNK        -0.0398 
      7 S7          1.0580  -14.5327  -49.0483 S.3       23 UNK        -0.2404 
      8 C8          1.5666  -14.5844  -50.7956 C.3       23 UNK        -0.0205 
      9 C9          1.9488  -15.9863  -51.2533 C.ar      23 UNK        -0.0193 
     10 C10         1.2794  -16.5786  -52.3278 C.ar      23 UNK        -0.1150 
     11 C11         1.6363  -17.8550  -52.7700 C.ar      23 UNK        -0.0193 
     12 C12         2.6693  -18.5423  -52.1262 C.ar      23 UNK        -0.1150 
     13 C13         3.3461  -17.9638  -51.0468 C.ar      23 UNK        -0.0193 
     14 C14         2.9826  -16.6834  -50.6194 C.ar      23 UNK        -0.1150 
     15 C15         4.5029  -18.6937  -50.3745 C.3       23 UNK        -0.0205 
     16 S16         4.0570  -20.3541  -49.7721 S.3       23 UNK        -0.2404 
     17 C17         3.0923  -19.9778  -48.2698 C.3       23 UNK        -0.0398 
     18 CA          2.1811  -21.1676  -47.8689 C.3       11 UNK         0.1400 
     19 N           2.0118  -21.2751  -46.4169 N.am      11 UNK        -0.5000 
     20 C           1.5838  -22.3773  -45.7838 C.2       10 UNK         0.5000 
     21 O           1.3569  -23.4470  -46.3492 O.2       10 UNK        -0.5000 
     22 CA          1.3397  -22.2628  -44.2670 C.3       10 UNK         0.1400 
     23 CB          2.6283  -22.5603  -43.4860 C.3       10 UNK        -0.1800 
     24 N           0.8158  -20.9548  -43.8707 N.am      10 UNK        -0.5000 
     25 C          -0.3807  -20.4742  -44.2375 C.2       9 UNK         0.5000 
     26 O          -1.1965  -21.1162  -44.8978 O.2       9 UNK        -0.5000 
     27 CA         -0.6975  -19.0176  -43.8503 C.3       9 UNK         0.1400 
     28 CB         -1.2068  -18.9458  -42.4035 C.3       9 UNK        -0.1800 
     29 N           0.4508  -18.1248  -44.0146 N.am      9 UNK        -0.5000 
     30 C           1.0831  -17.8943  -45.1759 C.2       8 UNK         0.5000 
     31 O           0.7528  -18.3991  -46.2482 O.2       8 UNK        -0.5000 
     32 CA          2.3523  -17.0288  -45.1158 C.3       8 UNK         0.1400 
     33 CB          2.0164  -15.5345  -45.0796 C.3       8 UNK        -0.1800 
     34 N           3.1760  -17.3744  -43.9597 N.am      8 UNK        -0.5000 
     35 C           3.9004  -18.4973  -43.8673 C.2       7 UNK         0.5000 
     36 O           3.9779  -19.3365  -44.7650 O.2       7 UNK        -0.5000 
     37 CA          4.6332  -18.7342  -42.5343 C.3       7 UNK         0.1400 
     38 CB          5.9802  -17.9963  -42.5174 C.3       7 UNK        -0.1800 
     39 N           3.8402  -18.3246  -41.3731 N.am      7 UNK        -0.5000 
     40 C           2.7125  -18.9332  -40.9808 C.2       6 UNK         0.5000 
     41 O           2.2289  -19.9080  -41.5544 O.2       6 UNK        -0.5000 
     42 CA          1.9839  -18.3336  -39.7644 C.3       6 UNK         0.1400 
     43 CB          2.5630  -18.8969  -38.4582 C.3       6 UNK        -0.1800 
     44 N           2.0109  -16.8688  -39.7162 N.am      6 UNK        -0.5000 
     45 C           1.4771  -16.0659  -40.6455 C.2       5 UNK         0.5000 
     46 O           0.9799  -16.4724  -41.6975 O.2       5 UNK        -0.5000 
     47 CA          1.5203  -14.5584  -40.3600 C.3       5 UNK         0.1400 
     48 CB          2.4194  -13.8348  -41.3749 C.3       5 UNK        -0.1800 
     49 N           0.1658  -14.0219  -40.4444 N.am      5 UNK        -0.5000 
     50 C          -0.6663  -13.8819  -39.4026 C.2       4 UNK         0.5000 
     51 O          -0.3400  -14.1111  -38.2369 O.2       4 UNK        -0.5000 
     52 CA         -2.1073  -13.4107  -39.6976 C.3       4 UNK         0.1400 
     53 CB         -2.2183  -11.8871  -39.5346 C.3       4 UNK        -0.1800 
     54 N          -2.5740  -13.7798  -41.0340 N.am      4 UNK        -0.5000 
     55 C          -2.8180  -15.0331  -41.4384 C.2       3 UNK         0.5000 
     56 O          -2.8247  -15.9989  -40.6744 O.2       3 UNK        -0.5000 
     57 CA         -3.0900  -15.2613  -42.9422 C.3       3 UNK         0.1400 
     58 CB         -4.5636  -15.6282  -43.1772 C.3       3 UNK        -0.1800 
     59 N          -2.7300  -14.1667  -43.8535 N.am      3 UNK        -0.5000 
     60 C          -1.5133  -13.6218  -43.9939 C.2       2 UNK         0.5000 
     61 O          -0.5811  -13.8148  -43.2137 O.2       2 UNK        -0.5000 
     62 CA         -1.3078  -12.7338  -45.2396 C.3       2 UNK         0.1400 
     63 CB          0.1211  -12.1625  -45.3282 C.3       2 UNK        -0.1800 
     64 N          -1.6485  -13.3676  -46.5232 N.am      2 UNK        -0.5000 
     65 C          -1.4583  -14.6387  -46.9176 C.2       1 UNK         0.5000 
     66 O          -1.1336  -15.5698  -46.1813 O.2       1 UNK        -0.5000 
     67 C           0.8228  -21.1250  -48.6024 C.2       11 UNK         0.5000 
     68 O           0.7010  -21.7009  -49.6824 O.2       11 UNK        -0.5000 
     69 N          -0.1734  -20.4609  -47.9982 N.am      12 UNK        -0.5000 
     70 CA         -1.5408  -20.3669  -48.5062 C.3       12 UNK         0.1400 
     71 CB         -2.2796  -19.2313  -47.7827 C.3       12 UNK        -0.1800 
     72 C          -2.3296  -21.6818  -48.3869 C.2       12 UNK         0.5000 
     73 O          -3.1114  -21.9963  -49.2864 O.2       12 UNK        -0.5000 
     74 N          -2.0910  -22.4188  -47.2942 N.am      13 UNK        -0.5000 
     75 CA         -2.6918  -23.7013  -46.9224 C.3       13 UNK         0.1400 
     76 CB         -2.3652  -24.7840  -47.9741 C.3       13 UNK        -0.1800 
     77 C          -4.2034  -23.6095  -46.6197 C.2       13 UNK         0.5000 
     78 O          -4.7804  -22.5180  -46.5843 O.2       13 UNK        -0.5000 
     79 N          -4.8151  -24.7746  -46.3650 N.am      14 UNK        -0.5000 
     80 CA         -6.2374  -24.9388  -46.0645 C.3       14 UNK         0.1400 
     81 CB         -6.5249  -26.4201  -45.7772 C.3       14 UNK        -0.1800 
     82 C          -7.1281  -24.4265  -47.2095 C.2       14 UNK         0.5000 
     83 O          -6.8666  -24.7413  -48.3728 O.2       14 UNK        -0.5000 
     84 N          -8.1358  -23.6169  -46.8545 N.am      15 UNK        -0.5000 
     85 CA         -9.1006  -22.9590  -47.7477 C.3       15 UNK         0.1400 
     86 CB        -10.0344  -24.0077  -48.3882 C.3       15 UNK        -0.1800 
     87 C          -8.4593  -22.0269  -48.8031 C.2       15 UNK         0.5000 
     88 O          -9.0994  -21.7260  -49.8117 O.2       15 UNK        -0.5000 
     89 N          -7.2073  -21.6021  -48.5613 N.am      16 UNK        -0.5000 
     90 CA         -6.3381  -20.8372  -49.4614 C.3       16 UNK         0.1400 
     91 CB         -6.9046  -19.4214  -49.7015 C.3       16 UNK        -0.1800 
     92 C          -6.0125  -21.5803  -50.7779 C.2       16 UNK         0.5000 
     93 O          -5.7298  -20.9332  -51.7869 O.2       16 UNK        -0.5000 
     94 N          -6.0561  -22.9216  -50.7608 N.am      17 UNK        -0.5000 
     95 CA         -5.8950  -23.7708  -51.9425 C.3       17 UNK         0.1400 
     96 CB         -6.1916  -25.2295  -51.5662 C.3       17 UNK        -0.1800 
     97 C          -4.5144  -23.6557  -52.6122 C.2       17 UNK         0.5000 
     98 O          -4.4382  -23.6185  -53.8412 O.2       17 UNK        -0.5000 
     99 N          -3.4501  -23.5724  -51.8035 N.am      18 UNK        -0.5000 
    100 CA        -2.0836  -23.4112  -52.2973 C.3       18 UNK         0.1400 
    101 CB        -1.0802  -23.9554  -51.2738 C.3       18 UNK        -0.1800 
    102 C         -1.7794  -21.9554  -52.6914 C.2       18 UNK         0.5000 
    103 O         -0.9827  -21.7480  -53.6049 O.2       18 UNK        -0.5000 
    104 N         -2.4570  -20.9824  -52.0605 N.am      19 UNK        -0.5000 
    105 CA        -2.4441  -19.5732  -52.4671 C.3       19 UNK         0.1400 
    106 CB        -3.0920  -18.6772  -51.3949 C.3       19 UNK        -0.1800 
    107 C         -3.1071  -19.3568  -53.8392 C.2       19 UNK         0.5000 
    108 O         -2.5824  -18.5995  -54.6551 O.2       19 UNK        -0.5000 
    109 N         -4.2363  -20.0390  -54.0713 N.am      20 UNK        -0.5000 
    110 CA        -4.9659  -20.0306  -55.3380 C.3       20 UNK         0.1400 
    111 CB        -6.3267  -20.7178  -55.1470 C.3       20 UNK        -0.1800 
    112 C         -4.1748  -20.6865  -56.4852 C.2       20 UNK         0.5000 
    113 O         -4.1985  -20.1732  -57.6046 O.2       20 UNK        -0.5000 
    114 N         -3.4887  -21.7989  -56.1876 N.am      21 UNK        -0.5000 
    115 CA        -2.6403  -22.5223  -57.1331 C.3       21 UNK         0.1400 
    116 CB        -2.3728  -23.9400  -56.6005 C.3       21 UNK        -0.1800 
    117 C         -1.3263  -21.7732  -57.4245 C.2       21 UNK         0.5000 
    118 O         -1.0727  -21.4087  -58.5731 O.2       21 UNK        -0.5000 
    119 N         -0.5201  -21.5646  -56.3754 N.am      22 UNK        -0.5000 
    120 CA         0.7967  -20.9062  -56.3870 C.3       22 UNK         0.1400 
    121 C          1.8820  -21.5753  -57.2887 C.2       22 UNK         0.5000 
    122 N          1.7729  -22.8628  -57.5945 N.am      22 UNK        -0.7600 
    123 O          2.8481  -20.9382  -57.6997 O.2       22 UNK        -0.5000 
    124 C124        0.6784  -19.3646  -56.5648 C.3       23 UNK        -0.0398 
    125 S125        1.8293  -18.4486  -55.4804 S.3       23 UNK        -0.2404 
    126 C126        0.8889  -18.5007  -53.9249 C.3       23 UNK        -0.0205 
    127 H127       -5.9306  -16.0258  -49.3519 H         1 UNK         0.0600 
    128 H128       -5.7661  -16.5050  -47.6586 H         1 UNK         0.0600 
    129 H129       -4.8240  -17.3258  -48.9055 H         1 UNK         0.0600 
    130 H130       -2.6990  -16.7051  -48.8540 H         1 UNK         0.3000 
    131 H131       -1.8214  -13.9791  -48.9426 H         1 UNK         0.0600 
    132 H132       -0.6479  -15.9002  -50.0697 H         1 UNK         0.0800 
    133 H133       -0.1698  -16.5310  -48.5188 H         1 UNK         0.0800 
    134 H134        2.4245  -13.9247  -50.9316 H         1 UNK         0.0800 
    135 H135        0.7640  -14.1748  -51.4110 H         1 UNK         0.0800 
    136 H136        0.4810  -16.0449  -52.8242 H         1 UNK         0.1150 
    137 H137        2.9493  -19.5288  -52.4686 H         1 UNK         0.1150 
    138 H138        3.5066  -16.2211  -49.7945 H         1 UNK         0.1150 
    139 H139        5.3116  -18.7942  -51.0994 H         1 UNK         0.0800 
    140 H140        4.9072  -18.1113  -49.5450 H         1 UNK         0.0800 
    141 H141        2.5215  -19.0563  -48.4030 H         1 UNK         0.0800 
    142 H142        3.8143  -19.7697  -47.4791 H         1 UNK         0.0800 
    143 H143        2.6765  -22.0902  -48.1805 H         1 UNK         0.0600 
    144 H144        2.1901  -20.4399  -45.8745 H         1 UNK         0.3000 
    145 H145        0.5971  -23.0158  -43.9950 H         1 UNK         0.0600 
    146 H146        2.4432  -22.5739  -42.4119 H         1 UNK         0.0600 
    147 H147        3.0345  -23.5353  -43.7579 H         1 UNK         0.0600 
    148 H148        3.3998  -21.8157  -43.6830 H         1 UNK         0.0600 
    149 H149        1.4035  -20.3953  -43.2594 H         1 UNK         0.3000 
    150 H150       -1.4879  -18.6557  -44.5107 H         1 UNK         0.0600 
    151 H151       -2.1255  -19.5214  -42.2851 H         1 UNK         0.0600 
    152 H152       -1.4233  -17.9205  -42.1076 H         1 UNK         0.0600 
    153 H153       -0.4769  -19.3448  -41.6997 H         1 UNK         0.0600 
    154 H154        0.7630  -17.6295  -43.1830 H         1 UNK         0.3000 
    155 H155        2.9330  -17.2183  -46.0215 H         1 UNK         0.0600 
    156 H156        1.3491  -15.2948  -44.2524 H         1 UNK         0.0600 
    157 H157        1.5186  -15.2341  -46.0013 H         1 UNK         0.0600 
    158 H158        2.9133  -14.9232  -44.9814 H         1 UNK         0.0600 
    159 H159        3.1149  -16.7650  -43.1577 H         1 UNK         0.3000 
    160 H160        4.8302  -19.8052  -42.4506 H         1 UNK         0.0600 
    161 H161        5.8495  -16.9148  -42.5718 H         1 UNK         0.0600 
    162 H162        6.5991  -18.2954  -43.3645 H         1 UNK         0.0600 
    163 H163        6.5418  -18.2218  -41.6107 H         1 UNK         0.0600 
    164 H164        4.1686  -17.5279  -40.8475 H         1 UNK         0.3000 
    165 H165        0.9376  -18.6389  -39.8281 H         1 UNK         0.0600 
    166 H166        1.9894  -18.5601  -37.5944 H         1 UNK         0.0600 
    167 H167        2.5368  -19.9876  -38.4579 H         1 UNK         0.0600 
    168 H168        3.6004  -18.5934  -38.3125 H         1 UNK         0.0600 
    169 H169        2.4039  -16.4563  -38.8824 H         1 UNK         0.3000 
    170 H170        1.9327  -14.3874  -39.3635 H         1 UNK         0.0600 
    171 H171        3.4366  -14.2270  -41.3468 H         1 UNK         0.0600 
    172 H172        2.0515  -13.9461  -42.3950 H         1 UNK         0.0600 
    173 H173        2.4748  -12.7681  -41.1580 H         1 UNK         0.0600 
    174 H174       -0.1930  -13.8943  -41.3888 H         1 UNK         0.3000 
    175 H175       -2.7656  -13.8817  -38.9646 H         1 UNK         0.0600 
    176 H176       -1.5926  -11.3592  -40.2554 H         1 UNK         0.0600 
    177 H177       -3.2460  -11.5492  -39.6694 H         1 UNK         0.0600 
    178 H178       -1.9034  -11.5771  -38.5372 H         1 UNK         0.0600 
    179 H179       -2.5777  -13.0511  -41.7320 H         1 UNK         0.3000 
    180 H180       -2.4809  -16.1171  -43.2386 H         1 UNK         0.0600 
    181 H181       -4.7381  -15.9183  -44.2136 H         1 UNK         0.0600 
    182 H182       -5.2256  -14.7934  -42.9440 H         1 UNK         0.0600 
    183 H183       -4.8641  -16.4707  -42.5527 H         1 UNK         0.0600 
    184 H184       -3.4223  -13.9366  -44.5515 H         1 UNK         0.3000 
    185 H185       -1.9889  -11.8899  -45.1212 H         1 UNK         0.0600 
    186 H186        0.3928  -11.6316  -44.4149 H         1 UNK         0.0600 
    187 H187        0.8588  -12.9489  -45.4835 H         1 UNK         0.0600 
    188 H188        0.2123  -11.4546  -46.1519 H         1 UNK         0.0600 
    189 H189       -2.0012  -12.7264  -47.2199 H         1 UNK         0.3000 
    190 H190        0.0383  -19.9385  -47.1528 H         1 UNK         0.3000 
    191 H191       -1.4705  -20.1245  -49.5651 H         1 UNK         0.0600 
    192 H192       -3.2750  -19.0853  -48.2025 H         1 UNK         0.0600 
    193 H193       -1.7379  -18.2904  -47.8668 H         1 UNK         0.0600 
    194 H194       -2.4037  -19.4456  -46.7212 H         1 UNK         0.0600 
    195 H195       -1.5168  -21.9956  -46.5704 H         1 UNK         0.3000 
    196 H196       -2.2074  -23.9865  -45.9875 H         1 UNK         0.0600 
    197 H197       -2.9339  -24.6421  -48.8934 H         1 UNK         0.0600 
    198 H198       -1.3051  -24.7758  -48.2282 H         1 UNK         0.0600 
    199 H199       -2.5923  -25.7833  -47.6026 H         1 UNK         0.0600 
    200 H200       -4.2775  -25.6258  -46.4317 H         1 UNK         0.3000 
    201 H201       -6.4520  -24.3642  -45.1611 H         1 UNK         0.0600 
    202 H202       -6.2975  -27.0483  -46.6396 H         1 UNK         0.0600 
    203 H203       -7.5760  -26.5725  -45.5287 H         1 UNK         0.0600 
    204 H204       -5.9368  -26.7812  -44.9333 H         1 UNK         0.0600 
    205 H205       -8.2481  -23.4011  -45.8733 H         1 UNK         0.3000 
    206 H206       -9.7124  -22.3157  -47.1138 H         1 UNK         0.0600 
    207 H207      -10.4833  -24.6510  -47.6315 H         1 UNK         0.0600 
    208 H208      -10.8516  -23.5292  -48.9292 H         1 UNK         0.0600 
    209 H209       -9.5023  -24.6436  -49.0966 H         1 UNK         0.0600 
    210 H210       -6.7576  -21.9252  -47.7134 H         1 UNK         0.3000 
    211 H211       -5.3902  -20.7221  -48.9359 H         1 UNK         0.0600 
    212 H212       -6.2072  -18.8074  -50.2707 H         1 UNK         0.0600 
    213 H213       -7.0937  -18.9077  -48.7591 H         1 UNK         0.0600 
    214 H214       -7.8380  -19.4463  -50.2638 H         1 UNK         0.0600 
    215 H215       -6.2915  -23.3938  -49.8944 H         1 UNK         0.3000 
    216 H216       -6.6393  -23.4539  -52.6759 H         1 UNK         0.0600 
    217 H217       -5.5066  -25.5937  -50.7993 H         1 UNK         0.0600 
    218 H218       -6.0969  -25.8855  -52.4324 H         1 UNK         0.0600 
    219 H219       -7.2073  -25.3386  -51.1849 H         1 UNK         0.0600 
    220 H220       -3.5888  -23.5010  -50.8026 H         1 UNK         0.3000 
    221 H221       -1.9686  -24.0160  -53.1991 H         1 UNK         0.0600 
    222 H222       -1.2472  -25.0153  -51.0830 H         1 UNK         0.0600 
    223 H223       -1.1462  -23.4314  -50.3240 H         1 UNK         0.0600 
    224 H224       -0.0567  -23.8452  -51.6345 H         1 UNK         0.0600 
    225 H225       -3.0841  -21.2481  -51.3113 H         1 UNK         0.3000 
    226 H226       -1.4038  -19.2637  -52.5583 H         1 UNK         0.0600 
    227 H227       -3.9394  -19.1611  -50.9128 H         1 UNK         0.0600 
    228 H228       -2.3732  -18.4049  -50.6251 H         1 UNK         0.0600 
    229 H229       -3.4505  -17.7381  -51.8193 H         1 UNK         0.0600 
    230 H230       -4.6500  -20.5704  -53.3092 H         1 UNK         0.3000 
    231 H231       -5.1480  -18.9895  -55.6124 H         1 UNK         0.0600 
    232 H232       -6.2141  -21.7592  -54.8443 H         1 UNK         0.0600 
    233 H233       -6.9048  -20.7043  -56.0718 H         1 UNK         0.0600 
    234 H234       -6.9194  -20.2120  -54.3844 H         1 UNK         0.0600 
    235 H235       -3.5714  -22.1853  -55.2551 H         1 UNK         0.3000 
    236 H236       -3.1833  -22.6208  -58.0756 H         1 UNK         0.0600 
    237 H237       -3.3037  -24.4939  -56.4776 H         1 UNK         0.0600 
    238 H238       -1.7471  -24.5057  -57.2919 H         1 UNK         0.0600 
    239 H239       -1.8674  -23.9250  -55.6348 H         1 UNK         0.0600 
    240 H240       -0.8311  -21.8491  -55.4497 H         1 UNK         0.3000 
    241 H241        1.1669  -21.0937  -55.3792 H         1 UNK         0.0600 
    242 H242        2.4768  -23.2967  -58.1711 H         1 UNK         0.3800 
    243 H243        0.9943  -23.4063  -57.2589 H         1 UNK         0.3800 
    244 H244       -0.3327  -19.0264  -56.3321 H         1 UNK         0.0800 
    245 H245        0.8468  -19.0722  -57.6025 H         1 UNK         0.0800 
    246 H246       -0.0669  -17.9995  -54.0794 H         1 UNK         0.0800 
    247 H247        0.6634  -19.5364  -53.6691 H         1 UNK         0.0800 
@<TRIPOS>BOND
     1    1    2 1    
     2    1  127 1    
     3    1  128 1    
     4    1  129 1    
     5    2    3 2    
     6    2    4 am   BACKBONE|DICT|INTERRES
     7    4    5 1    
     8    4  130 1    
     9    5    6 1    
    10    5   65 1    
    11    5  131 1    
    12    6    7 1    
    13    6  132 1    
    14    6  133 1    
    15    7    8 1    
    16    8    9 1    
    17    8  134 1    
    18    8  135 1    
    19    9   10 ar   
    20    9   14 ar   
    21   10   11 ar   
    22   10  136 1    
    23   11   12 ar   
    24   11  126 1    
    25   12   13 ar   
    26   12  137 1    
    27   13   14 ar   
    28   13   15 1    
    29   14  138 1    
    30   15   16 1    
    31   15  139 1    
    32   15  140 1    
    33   16   17 1    
    34   17   18 1    
    35   17  141 1    
    36   17  142 1    
    37   18   19 1    
    38   18   67 1    
    39   18  143 1    
    40   19   20 am   BACKBONE|DICT|INTERRES
    41   19  144 1    
    42   20   21 2    
    43   20   22 1    
    44   22   23 1    
    45   22   24 1    
    46   22  145 1    
    47   23  146 1    
    48   23  147 1    
    49   23  148 1    
    50   24   25 am   BACKBONE|DICT|INTERRES
    51   24  149 1    
    52   25   26 2    
    53   25   27 1    
    54   27   28 1    
    55   27   29 1    
    56   27  150 1    
    57   28  151 1    
    58   28  152 1    
    59   28  153 1    
    60   29   30 am   BACKBONE|DICT|INTERRES
    61   29  154 1    
    62   30   31 2    
    63   30   32 1    
    64   32   33 1    
    65   32   34 1    
    66   32  155 1    
    67   33  156 1    
    68   33  157 1    
    69   33  158 1    
    70   34   35 am   BACKBONE|DICT|INTERRES
    71   34  159 1    
    72   35   36 2    
    73   35   37 1    
    74   37   38 1    
    75   37   39 1    
    76   37  160 1    
    77   38  161 1    
    78   38  162 1    
    79   38  163 1    
    80   39   40 am   BACKBONE|DICT|INTERRES
    81   39  164 1    
    82   40   41 2    
    83   40   42 1    
    84   42   43 1    
    85   42   44 1    
    86   42  165 1    
    87   43  166 1    
    88   43  167 1    
    89   43  168 1    
    90   44   45 am   BACKBONE|DICT|INTERRES
    91   44  169 1    
    92   45   46 2    
    93   45   47 1    
    94   47   48 1    
    95   47   49 1    
    96   47  170 1    
    97   48  171 1    
    98   48  172 1    
    99   48  173 1    
   100   49   50 am   BACKBONE|DICT|INTERRES
   101   49  174 1    
   102   50   51 2    
   103   50   52 1    
   104   52   53 1    
   105   52   54 1    
   106   52  175 1    
   107   53  176 1    
   108   53  177 1    
   109   53  178 1    
   110   54   55 am   BACKBONE|DICT|INTERRES
   111   54  179 1    
   112   55   56 2    
   113   55   57 1    
   114   57   58 1    
   115   57   59 1    
   116   57  180 1    
   117   58  181 1    
   118   58  182 1    
   119   58  183 1    
   120   59   60 am   BACKBONE|DICT|INTERRES
   121   59  184 1    
   122   60   61 2    
   123   60   62 1    
   124   62   63 1    
   125   62   64 1    
   126   62  185 1    
   127   63  186 1    
   128   63  187 1    
   129   63  188 1    
   130   64   65 am   BACKBONE|DICT|INTERRES
   131   64  189 1    
   132   65   66 2    
   133   67   68 2    
   134   67   69 am   BACKBONE|DICT|INTERRES
   135   69   70 1    
   136   69  190 1    
   137   70   71 1    
   138   70   72 1    
   139   70  191 1    
   140   71  192 1    
   141   71  193 1    
   142   71  194 1    
   143   72   73 2    
   144   72   74 am   BACKBONE|DICT|INTERRES
   145   74   75 1    
   146   74  195 1    
   147   75   76 1    
   148   75   77 1    
   149   75  196 1    
   150   76  197 1    
   151   76  198 1    
   152   76  199 1    
   153   77   78 2    
   154   77   79 am   BACKBONE|DICT|INTERRES
   155   79   80 1    
   156   79  200 1    
   157   80   81 1    
   158   80   82 1    
   159   80  201 1    
   160   81  202 1    
   161   81  203 1    
   162   81  204 1    
   163   82   83 2    
   164   82   84 am   BACKBONE|DICT|INTERRES
   165   84   85 1    
   166   84  205 1    
   167   85   86 1    
   168   85   87 1    
   169   85  206 1    
   170   86  207 1    
   171   86  208 1    
   172   86  209 1    
   173   87   88 2    
   174   87   89 am   BACKBONE|DICT|INTERRES
   175   89   90 1    
   176   89  210 1    
   177   90   91 1    
   178   90   92 1    
   179   90  211 1    
   180   91  212 1    
   181   91  213 1    
   182   91  214 1    
   183   92   93 2    
   184   92   94 am   BACKBONE|DICT|INTERRES
   185   94   95 1    
   186   94  215 1    
   187   95   96 1    
   188   95   97 1    
   189   95  216 1    
   190   96  217 1    
   191   96  218 1    
   192   96  219 1    
   193   97   98 2    
   194   97   99 am   BACKBONE|DICT|INTERRES
   195   99  100 1    
   196   99  220 1    
   197  100  101 1    
   198  100  102 1    
   199  100  221 1    
   200  101  222 1    
   201  101  223 1    
   202  101  224 1    
   203  102  103 2    
   204  102  104 am   BACKBONE|DICT|INTERRES
   205  104  105 1    
   206  104  225 1    
   207  105  106 1    
   208  105  107 1    
   209  105  226 1    
   210  106  227 1    
   211  106  228 1    
   212  106  229 1    
   213  107  108 2    
   214  107  109 am   BACKBONE|DICT|INTERRES
   215  109  110 1    
   216  109  230 1    
   217  110  111 1    
   218  110  112 1    
   219  110  231 1    
   220  111  232 1    
   221  111  233 1    
   222  111  234 1    
   223  112  113 2    
   224  112  114 am   BACKBONE|DICT|INTERRES
   225  114  115 1    
   226  114  235 1    
   227  115  116 1    
   228  115  117 1    
   229  115  236 1    
   230  116  237 1    
   231  116  238 1    
   232  116  239 1    
   233  117  118 2    
   234  117  119 am   BACKBONE|DICT|INTERRES
   235  119  120 1    
   236  119  240 1    
   237  120  121 1    
   238  120  124 1    
   239  120  241 1    
   240  121  122 am   BACKBONE|DICT|INTERRES
   241  121  123 2    
   242  122  242 1    
   243  122  243 1    
   244  124  125 1    
   245  124  244 1    
   246  124  245 1    
   247  125  126 1    
   248  126  246 1    
   249  126  247 1    
@<TRIPOS>SUBSTRUCTURE
     1 UNK         1 GROUP             0       ****    0 ROOT    
