@<TRIPOS>MOLECULE
3R540
247   249    1
SMALL
USER_CHARGES


@<TRIPOS>ATOM
      1 CA          4.6738   -9.1594  -48.6243 C.3       0 UNK        -0.1800 
      2 C           3.8416  -10.3343  -48.1295 C.2       0 UNK         0.5000 
      3 O           3.9598  -10.7216  -46.9667 O.2       0 UNK        -0.5000 
      4 N           3.0090  -10.9061  -49.0083 N.am      1 UNK        -0.5000 
      5 CA          2.0808  -11.9959  -48.6932 C.3       1 UNK         0.1400 
      6 C6          1.5727  -12.6910  -49.9814 C.3       23 UNK        -0.0398 
      7 S7          1.0565  -14.4237  -49.7049 S.3       23 UNK        -0.2404 
      8 C8          2.3519  -15.3166  -50.6207 C.3       23 UNK        -0.0205 
      9 C9          1.9873  -16.7734  -50.8653 C.ar      23 UNK        -0.0193 
     10 C10         1.0319  -17.0973  -51.8321 C.ar      23 UNK        -0.1150 
     11 C11         0.7463  -18.4317  -52.1343 C.ar      23 UNK        -0.0193 
     12 C12         1.4115  -19.4506  -51.4455 C.ar      23 UNK        -0.1150 
     13 C13         2.3669  -19.1403  -50.4716 C.ar      23 UNK        -0.0193 
     14 C14         2.6466  -17.7999  -50.1827 C.ar      23 UNK        -0.1150 
     15 C15         3.1435  -20.2479  -49.7725 C.3       23 UNK        -0.0205 
     16 S16         2.7289  -20.3757  -48.0067 S.3       23 UNK        -0.2404 
     17 C17         1.0824  -21.1565  -48.0556 C.3       23 UNK        -0.0398 
     18 CA          1.0837  -22.5907  -47.4745 C.3       11 UNK         0.1400 
     19 N           1.5296  -22.6146  -46.0816 N.am      11 UNK        -0.5000 
     20 C           1.8740  -23.7113  -45.3970 C.2       10 UNK         0.5000 
     21 O           1.9146  -24.8388  -45.8944 O.2       10 UNK        -0.5000 
     22 CA          2.2299  -23.4995  -43.9104 C.3       10 UNK         0.1400 
     23 CB          2.9096  -24.7234  -43.2617 C.3       10 UNK        -0.1800 
     24 N           3.0119  -22.2812  -43.6806 N.am      10 UNK        -0.5000 
     25 C           4.2350  -21.9848  -44.1458 C.2       9 UNK         0.5000 
     26 O           4.9160  -22.7547  -44.8245 O.2       9 UNK        -0.5000 
     27 CA          4.8048  -20.5918  -43.7989 C.3       9 UNK         0.1400 
     28 CB          4.8946  -19.7130  -45.0554 C.3       9 UNK        -0.1800 
     29 N           4.0291  -19.8740  -42.7855 N.am      9 UNK        -0.5000 
     30 C           4.0407  -20.1390  -41.4728 C.2       8 UNK         0.5000 
     31 O           4.7686  -20.9845  -40.9515 O.2       8 UNK        -0.5000 
     32 CA          3.0399  -19.3533  -40.6035 C.3       8 UNK         0.1400 
     33 CB          3.6254  -17.9941  -40.1923 C.3       8 UNK        -0.1800 
     34 N           1.7452  -19.1520  -41.2614 N.am      8 UNK        -0.5000 
     35 C           0.8983  -20.1379  -41.5930 C.2       7 UNK         0.5000 
     36 O           1.1085  -21.3271  -41.3553 O.2       7 UNK        -0.5000 
     37 CA         -0.3757  -19.7402  -42.3587 C.3       7 UNK         0.1400 
     38 CB         -1.4400  -19.1863  -41.4001 C.3       7 UNK        -0.1800 
     39 N          -0.1111  -18.7749  -43.4259 N.am      7 UNK        -0.5000 
     40 C           0.6233  -19.0377  -44.5170 C.2       6 UNK         0.5000 
     41 O           1.1072  -20.1420  -44.7595 O.2       6 UNK        -0.5000 
     42 CA          0.9002  -17.8659  -45.4766 C.3       6 UNK         0.1400 
     43 CB         -0.2826  -17.6285  -46.4288 C.3       6 UNK        -0.1800 
     44 N           1.2006  -16.6248  -44.7676 N.am      6 UNK        -0.5000 
     45 C           2.2477  -16.4352  -43.9542 C.2       5 UNK         0.5000 
     46 O           3.1155  -17.2808  -43.7421 O.2       5 UNK        -0.5000 
     47 CA          2.2970  -15.0927  -43.2065 C.3       5 UNK         0.1400 
     48 CB          2.8178  -13.9693  -44.1167 C.3       5 UNK        -0.1800 
     49 N           0.9880  -14.7260  -42.6643 N.am      5 UNK        -0.5000 
     50 C           0.3740  -15.3777  -41.6664 C.2       4 UNK         0.5000 
     51 O           0.8617  -16.3416  -41.0768 O.2       4 UNK        -0.5000 
     52 CA         -1.0370  -14.8917  -41.2888 C.3       4 UNK         0.1400 
     53 CB         -0.9591  -13.6928  -40.3319 C.3       4 UNK        -0.1800 
     54 N          -1.8381  -14.5285  -42.4585 N.am      4 UNK        -0.5000 
     55 C          -2.2811  -15.4037  -43.3723 C.2       3 UNK         0.5000 
     56 O          -2.0810  -16.6158  -43.3132 O.2       3 UNK        -0.5000 
     57 CA         -3.0246  -14.8150  -44.5857 C.3       3 UNK         0.1400 
     58 CB         -4.5038  -14.5723  -44.2512 C.3       3 UNK        -0.1800 
     59 N          -2.4228  -13.5740  -45.0858 N.am      3 UNK        -0.5000 
     60 C          -1.1716  -13.4839  -45.5530 C.2       2 UNK         0.5000 
     61 O          -0.3837  -14.4328  -45.5812 O.2       2 UNK        -0.5000 
     62 CA         -0.7003  -12.1073  -46.0329 C.3       2 UNK         0.1400 
     63 CB         -0.2833  -11.2247  -44.8424 C.3       2 UNK        -0.1800 
     64 N           0.4369  -12.3272  -46.9162 N.am      2 UNK        -0.5000 
     65 C           0.9076  -11.4800  -47.8318 C.2       1 UNK         0.5000 
     66 O           0.4417  -10.3545  -48.0302 O.2       1 UNK        -0.5000 
     67 C          -0.3292  -23.1933  -47.5892 C.2       11 UNK         0.5000 
     68 O          -1.1786  -22.9258  -46.7351 O.2       11 UNK        -0.5000 
     69 N          -0.5799  -23.9372  -48.6761 N.am      12 UNK        -0.5000 
     70 CA         -1.8758  -24.5533  -48.9853 C.3       12 UNK         0.1400 
     71 CB         -1.7468  -25.3886  -50.2681 C.3       12 UNK        -0.1800 
     72 C          -3.0224  -23.5348  -49.1271 C.2       12 UNK         0.5000 
     73 O          -4.1573  -23.8411  -48.7643 O.2       12 UNK        -0.5000 
     74 N          -2.6921  -22.3273  -49.6058 N.am      13 UNK        -0.5000 
     75 CA         -3.6137  -21.2047  -49.7771 C.3       13 UNK         0.1400 
     76 CB         -2.8734  -20.0575  -50.4818 C.3       13 UNK        -0.1800 
     77 C          -4.2505  -20.7124  -48.4628 C.2       13 UNK         0.5000 
     78 O          -5.3889  -20.2469  -48.4812 O.2       13 UNK        -0.5000 
     79 N          -3.5316  -20.8476  -47.3384 N.am      14 UNK        -0.5000 
     80 CA         -4.0335  -20.4834  -46.0119 C.3       14 UNK         0.1400 
     81 CB         -2.8595  -20.3739  -45.0306 C.3       14 UNK        -0.1800 
     82 C          -5.0897  -21.4738  -45.4893 C.2       14 UNK         0.5000 
     83 O          -6.0038  -21.0624  -44.7745 O.2       14 UNK        -0.5000 
     84 N          -4.9532  -22.7526  -45.8638 N.am      15 UNK        -0.5000 
     85 CA         -5.8992  -23.8139  -45.5273 C.3       15 UNK         0.1400 
     86 CB         -5.1729  -25.1682  -45.5556 C.3       15 UNK        -0.1800 
     87 C          -7.1053  -23.8198  -46.4817 C.2       15 UNK         0.5000 
     88 O          -8.2415  -23.9607  -46.0281 O.2       15 UNK        -0.5000 
     89 N          -6.8348  -23.6741  -47.7854 N.am      16 UNK        -0.5000 
     90 CA         -7.8323  -23.7348  -48.8528 C.3       16 UNK         0.1400 
     91 CB         -7.1096  -23.9774  -50.1860 C.3       16 UNK        -0.1800 
     92 C          -8.7042  -22.4730  -48.9679 C.2       16 UNK         0.5000 
     93 O          -9.8053  -22.5608  -49.5107 O.2       16 UNK        -0.5000 
     94 N          -8.1749  -21.3180  -48.5377 N.am      17 UNK        -0.5000 
     95 CA         -8.6945  -19.9486  -48.6895 C.3       17 UNK         0.1400 
     96 CB        -10.1066  -19.7932  -48.0929 C.3       17 UNK        -0.1800 
     97 C          -8.6223  -19.4094  -50.1358 C.2       17 UNK         0.5000 
     98 O          -8.4169  -18.2093  -50.3248 O.2       17 UNK        -0.5000 
     99 N          -8.7556  -20.2989  -51.1269 N.am      18 UNK        -0.5000 
    100 CA        -8.4339  -20.0802  -52.5355 C.3       18 UNK         0.1400 
    101 CB        -9.0374  -21.2395  -53.3465 C.3       18 UNK        -0.1800 
    102 C         -6.9097  -19.9917  -52.7640 C.2       18 UNK         0.5000 
    103 O         -6.1275  -20.2680  -51.8536 O.2       18 UNK        -0.5000 
    104 N         -6.5107  -19.6333  -53.9920 N.am      19 UNK        -0.5000 
    105 CA        -5.1115  -19.4736  -54.4080 C.3       19 UNK         0.1400 
    106 CB        -5.0820  -18.9101  -55.8361 C.3       19 UNK        -0.1800 
    107 C         -4.2621  -20.7594  -54.3081 C.2       19 UNK         0.5000 
    108 O         -3.0581  -20.6635  -54.0664 O.2       19 UNK        -0.5000 
    109 N         -4.9096  -21.9257  -54.4607 N.am      20 UNK        -0.5000 
    110 CA        -4.3717  -23.2790  -54.2885 C.3       20 UNK         0.1400 
    111 CB        -4.1194  -23.5623  -52.7918 C.3       20 UNK        -0.1800 
    112 C         -3.1398  -23.5523  -55.1752 C.2       20 UNK         0.5000 
    113 O         -3.3016  -23.8683  -56.3545 O.2       20 UNK        -0.5000 
    114 N         -1.9404  -23.4340  -54.5904 N.am      21 UNK        -0.5000 
    115 CA        -0.6516  -23.5852  -55.2637 C.3       21 UNK         0.1400 
    116 CB         0.4492  -23.7030  -54.1974 C.3       21 UNK        -0.1800 
    117 C         -0.3364  -22.4319  -56.2363 C.2       21 UNK         0.5000 
    118 O          0.3916  -22.6459  -57.2070 O.2       21 UNK        -0.5000 
    119 N         -0.8780  -21.2398  -55.9611 N.am      22 UNK        -0.5000 
    120 CA        -0.7655  -20.0549  -56.8195 C.3       22 UNK         0.1400 
    121 C         -1.7980  -20.0822  -57.9797 C.2       22 UNK         0.5000 
    122 N         -1.4802  -19.4655  -59.1099 N.am      22 UNK        -0.7600 
    123 O         -2.8958  -20.6207  -57.8603 O.2       22 UNK        -0.5000 
    124 C124       -0.8898  -18.7490  -55.9971 C.3       23 UNK        -0.0398 
    125 S125        0.5243  -18.5124  -54.8705 S.3       23 UNK        -0.2404 
    126 C126       -0.2450  -18.7595  -53.2397 C.3       23 UNK        -0.0205 
    127 H127        4.4717   -8.9311  -49.6712 H         1 UNK         0.0600 
    128 H128        5.7359   -9.3830  -48.5241 H         1 UNK         0.0600 
    129 H129        4.4542   -8.2697  -48.0340 H         1 UNK         0.0600 
    130 H130        2.9318  -10.5171  -49.9370 H         1 UNK         0.3000 
    131 H131        2.6420  -12.7281  -48.1074 H         1 UNK         0.0600 
    132 H132        0.7430  -12.1417  -50.4307 H         1 UNK         0.0800 
    133 H133        2.3599  -12.6846  -50.7363 H         1 UNK         0.0800 
    134 H134        2.5150  -14.8382  -51.5876 H         1 UNK         0.0800 
    135 H135        3.2938  -15.2387  -50.0754 H         1 UNK         0.0800 
    136 H136        0.5326  -16.3073  -52.3757 H         1 UNK         0.1150 
    137 H137        1.2060  -20.4834  -51.6894 H         1 UNK         0.1150 
    138 H138        3.3969  -17.5596  -49.4424 H         1 UNK         0.1150 
    139 H139        2.9798  -21.2119  -50.2568 H         1 UNK         0.0800 
    140 H140        4.2105  -20.0405  -49.8645 H         1 UNK         0.0800 
    141 H141        0.7160  -21.1562  -49.0832 H         1 UNK         0.0800 
    142 H142        0.3973  -20.5241  -47.4918 H         1 UNK         0.0800 
    143 H143        1.7738  -23.2018  -48.0602 H         1 UNK         0.0600 
    144 H144        1.4866  -21.7248  -45.5880 H         1 UNK         0.3000 
    145 H145        1.2801  -23.3448  -43.3968 H         1 UNK         0.0600 
    146 H146        3.1300  -24.5390  -42.2101 H         1 UNK         0.0600 
    147 H147        2.2616  -25.5992  -43.3078 H         1 UNK         0.0600 
    148 H148        3.8438  -24.9823  -43.7605 H         1 UNK         0.0600 
    149 H149        2.5345  -21.5643  -43.1499 H         1 UNK         0.3000 
    150 H150        5.8169  -20.7434  -43.4184 H         1 UNK         0.0600 
    151 H151        5.4461  -20.2126  -45.8528 H         1 UNK         0.0600 
    152 H152        5.4062  -18.7741  -44.8434 H         1 UNK         0.0600 
    153 H153        3.9039  -19.4713  -45.4401 H         1 UNK         0.0600 
    154 H154        3.4521  -19.1076  -43.1214 H         1 UNK         0.3000 
    155 H155        2.8644  -19.9345  -39.6960 H         1 UNK         0.0600 
    156 H156        4.5827  -18.1179  -39.6845 H         1 UNK         0.0600 
    157 H157        2.9592  -17.4697  -39.5071 H         1 UNK         0.0600 
    158 H158        3.7916  -17.3492  -41.0555 H         1 UNK         0.0600 
    159 H159        1.4786  -18.1906  -41.4521 H         1 UNK         0.3000 
    160 H160       -0.7777  -20.6444  -42.8204 H         1 UNK         0.0600 
    161 H161       -1.1167  -18.2572  -40.9307 H         1 UNK         0.0600 
    162 H162       -1.6573  -19.8990  -40.6036 H         1 UNK         0.0600 
    163 H163       -2.3761  -18.9883  -41.9218 H         1 UNK         0.0600 
    164 H164       -0.5386  -17.8594  -43.3272 H         1 UNK         0.3000 
    165 H165        1.7741  -18.1273  -46.0764 H         1 UNK         0.0600 
    166 H166       -0.0430  -16.8616  -47.1660 H         1 UNK         0.0600 
    167 H167       -0.5439  -18.5320  -46.9775 H         1 UNK         0.0600 
    168 H168       -1.1729  -17.3046  -45.8896 H         1 UNK         0.0600 
    169 H169        0.5526  -15.8543  -44.9166 H         1 UNK         0.3000 
    170 H170        2.9921  -15.2008  -42.3712 H         1 UNK         0.0600 
    171 H171        3.8104  -14.2091  -44.4998 H         1 UNK         0.0600 
    172 H172        2.1683  -13.8059  -44.9762 H         1 UNK         0.0600 
    173 H173        2.8985  -13.0271  -43.5745 H         1 UNK         0.0600 
    174 H174        0.4962  -13.9778  -43.1277 H         1 UNK         0.3000 
    175 H175       -1.5428  -15.7090  -40.7703 H         1 UNK         0.0600 
    176 H176       -0.3793  -13.9415  -39.4421 H         1 UNK         0.0600 
    177 H177       -0.4857  -12.8299  -40.8019 H         1 UNK         0.0600 
    178 H178       -1.9517  -13.3907  -39.9974 H         1 UNK         0.0600 
    179 H179       -2.0454  -13.5494  -42.5875 H         1 UNK         0.3000 
    180 H180       -2.9759  -15.5536  -45.3886 H         1 UNK         0.0600 
    181 H181       -4.9774  -15.4870  -43.8917 H         1 UNK         0.0600 
    182 H182       -4.6240  -13.8138  -43.4768 H         1 UNK         0.0600 
    183 H183       -5.0585  -14.2456  -45.1310 H         1 UNK         0.0600 
    184 H184       -3.0107  -12.7527  -45.0842 H         1 UNK         0.3000 
    185 H185       -1.5098  -11.6318  -46.5903 H         1 UNK         0.0600 
    186 H186       -1.1166  -11.0687  -44.1564 H         1 UNK         0.0600 
    187 H187        0.5324  -11.6741  -44.2749 H         1 UNK         0.0600 
    188 H188        0.0472  -10.2409  -45.1759 H         1 UNK         0.0600 
    189 H189        0.8156  -13.2649  -46.8498 H         1 UNK         0.3000 
    190 H190        0.1672  -24.1190  -49.3310 H         1 UNK         0.3000 
    191 H191       -2.1327  -25.2225  -48.1615 H         1 UNK         0.0600 
    192 H192       -1.4583  -24.7755  -51.1230 H         1 UNK         0.0600 
    193 H193       -2.6928  -25.8724  -50.5157 H         1 UNK         0.0600 
    194 H194       -1.0021  -26.1764  -50.1531 H         1 UNK         0.0600 
    195 H195       -1.7333  -22.1685  -49.8734 H         1 UNK         0.3000 
    196 H196       -4.4225  -21.5465  -50.4238 H         1 UNK         0.0600 
    197 H197       -3.5499  -19.2259  -50.6837 H         1 UNK         0.0600 
    198 H198       -2.4670  -20.3803  -51.4397 H         1 UNK         0.0600 
    199 H199       -2.0490  -19.6750  -49.8784 H         1 UNK         0.0600 
    200 H200       -2.6261  -21.2970  -47.3768 H         1 UNK         0.3000 
    201 H201       -4.5052  -19.5005  -46.0796 H         1 UNK         0.0600 
    202 H202       -3.2039  -20.0632  -44.0438 H         1 UNK         0.0600 
    203 H203       -2.3350  -21.3225  -44.9126 H         1 UNK         0.0600 
    204 H204       -2.1404  -19.6311  -45.3694 H         1 UNK         0.0600 
    205 H205       -4.1887  -22.9997  -46.4766 H         1 UNK         0.3000 
    206 H206       -6.2713  -23.6542  -44.5129 H         1 UNK         0.0600 
    207 H207       -4.3498  -25.1876  -44.8411 H         1 UNK         0.0600 
    208 H208       -5.8520  -25.9798  -45.2915 H         1 UNK         0.0600 
    209 H209       -4.7642  -25.3903  -46.5420 H         1 UNK         0.0600 
    210 H210       -5.8629  -23.6157  -48.0813 H         1 UNK         0.3000 
    211 H211       -8.4941  -24.5822  -48.6614 H         1 UNK         0.0600 
    212 H212       -7.8197  -24.0874  -51.0066 H         1 UNK         0.0600 
    213 H213       -6.5058  -24.8845  -50.1528 H         1 UNK         0.0600 
    214 H214       -6.4510  -23.1433  -50.4305 H         1 UNK         0.0600 
    215 H215       -7.2223  -21.3513  -48.1938 H         1 UNK         0.3000 
    216 H216       -8.0240  -19.3233  -48.0980 H         1 UNK         0.0600 
    217 H217      -10.4026  -18.7438  -48.0735 H         1 UNK         0.0600 
    218 H218      -10.1446  -20.1613  -47.0676 H         1 UNK         0.0600 
    219 H219      -10.8591  -20.3283  -48.6721 H         1 UNK         0.0600 
    220 H220       -8.9655  -21.2511  -50.8566 H         1 UNK         0.3000 
    221 H221       -8.8877  -19.1409  -52.8575 H         1 UNK         0.0600 
    222 H222       -8.5890  -22.1961  -53.0738 H         1 UNK         0.0600 
    223 H223      -10.1125  -21.3166  -53.1824 H         1 UNK         0.0600 
    224 H224       -8.8866  -21.0985  -54.4173 H         1 UNK         0.0600 
    225 H225       -7.2098  -19.4290  -54.6914 H         1 UNK         0.3000 
    226 H226       -4.6553  -18.7372  -53.7431 H         1 UNK         0.0600 
    227 H227       -4.0605  -18.7149  -56.1604 H         1 UNK         0.0600 
    228 H228       -5.5238  -19.6046  -56.5518 H         1 UNK         0.0600 
    229 H229       -5.6246  -17.9669  -55.9017 H         1 UNK         0.0600 
    230 H230       -5.8911  -21.8776  -54.6904 H         1 UNK         0.3000 
    231 H231       -5.1499  -23.9666  -54.6234 H         1 UNK         0.0600 
    232 H232       -5.0451  -23.4810  -52.2257 H         1 UNK         0.0600 
    233 H233       -3.4069  -22.8644  -52.3528 H         1 UNK         0.0600 
    234 H234       -3.7372  -24.5722  -52.6393 H         1 UNK         0.0600 
    235 H235       -1.9135  -23.1316  -53.6283 H         1 UNK         0.3000 
    236 H236       -0.6733  -24.5117  -55.8412 H         1 UNK         0.0600 
    237 H237        0.2723  -24.5533  -53.5385 H         1 UNK         0.0600 
    238 H238        1.4262  -23.8491  -54.6601 H         1 UNK         0.0600 
    239 H239        0.5097  -22.8052  -53.5806 H         1 UNK         0.0600 
    240 H240       -1.5290  -21.1615  -55.1857 H         1 UNK         0.3000 
    241 H241        0.2265  -20.0619  -57.2763 H         1 UNK         0.0600 
    242 H242       -0.5884  -19.0113  -59.2355 H         1 UNK         0.3800 
    243 H243       -2.1450  -19.4638  -59.8681 H         1 UNK         0.3800 
    244 H244       -0.9175  -17.8810  -56.6582 H         1 UNK         0.0800 
    245 H245       -1.8226  -18.7279  -55.4340 H         1 UNK         0.0800 
    246 H246       -0.5926  -19.7901  -53.1550 H         1 UNK         0.0800 
    247 H247       -1.1257  -18.1227  -53.1426 H         1 UNK         0.0800 
@<TRIPOS>BOND
     1    1    2 1    
     2    1  127 1    
     3    1  128 1    
     4    1  129 1    
     5    2    3 2    
     6    2    4 am   BACKBONE|DICT|INTERRES
     7    4    5 1    
     8    4  130 1    
     9    5    6 1    
    10    5   65 1    
    11    5  131 1    
    12    6    7 1    
    13    6  132 1    
    14    6  133 1    
    15    7    8 1    
    16    8    9 1    
    17    8  134 1    
    18    8  135 1    
    19    9   10 ar   
    20    9   14 ar   
    21   10   11 ar   
    22   10  136 1    
    23   11   12 ar   
    24   11  126 1    
    25   12   13 ar   
    26   12  137 1    
    27   13   14 ar   
    28   13   15 1    
    29   14  138 1    
    30   15   16 1    
    31   15  139 1    
    32   15  140 1    
    33   16   17 1    
    34   17   18 1    
    35   17  141 1    
    36   17  142 1    
    37   18   19 1    
    38   18   67 1    
    39   18  143 1    
    40   19   20 am   BACKBONE|DICT|INTERRES
    41   19  144 1    
    42   20   21 2    
    43   20   22 1    
    44   22   23 1    
    45   22   24 1    
    46   22  145 1    
    47   23  146 1    
    48   23  147 1    
    49   23  148 1    
    50   24   25 am   BACKBONE|DICT|INTERRES
    51   24  149 1    
    52   25   26 2    
    53   25   27 1    
    54   27   28 1    
    55   27   29 1    
    56   27  150 1    
    57   28  151 1    
    58   28  152 1    
    59   28  153 1    
    60   29   30 am   BACKBONE|DICT|INTERRES
    61   29  154 1    
    62   30   31 2    
    63   30   32 1    
    64   32   33 1    
    65   32   34 1    
    66   32  155 1    
    67   33  156 1    
    68   33  157 1    
    69   33  158 1    
    70   34   35 am   BACKBONE|DICT|INTERRES
    71   34  159 1    
    72   35   36 2    
    73   35   37 1    
    74   37   38 1    
    75   37   39 1    
    76   37  160 1    
    77   38  161 1    
    78   38  162 1    
    79   38  163 1    
    80   39   40 am   BACKBONE|DICT|INTERRES
    81   39  164 1    
    82   40   41 2    
    83   40   42 1    
    84   42   43 1    
    85   42   44 1    
    86   42  165 1    
    87   43  166 1    
    88   43  167 1    
    89   43  168 1    
    90   44   45 am   BACKBONE|DICT|INTERRES
    91   44  169 1    
    92   45   46 2    
    93   45   47 1    
    94   47   48 1    
    95   47   49 1    
    96   47  170 1    
    97   48  171 1    
    98   48  172 1    
    99   48  173 1    
   100   49   50 am   BACKBONE|DICT|INTERRES
   101   49  174 1    
   102   50   51 2    
   103   50   52 1    
   104   52   53 1    
   105   52   54 1    
   106   52  175 1    
   107   53  176 1    
   108   53  177 1    
   109   53  178 1    
   110   54   55 am   BACKBONE|DICT|INTERRES
   111   54  179 1    
   112   55   56 2    
   113   55   57 1    
   114   57   58 1    
   115   57   59 1    
   116   57  180 1    
   117   58  181 1    
   118   58  182 1    
   119   58  183 1    
   120   59   60 am   BACKBONE|DICT|INTERRES
   121   59  184 1    
   122   60   61 2    
   123   60   62 1    
   124   62   63 1    
   125   62   64 1    
   126   62  185 1    
   127   63  186 1    
   128   63  187 1    
   129   63  188 1    
   130   64   65 am   BACKBONE|DICT|INTERRES
   131   64  189 1    
   132   65   66 2    
   133   67   68 2    
   134   67   69 am   BACKBONE|DICT|INTERRES
   135   69   70 1    
   136   69  190 1    
   137   70   71 1    
   138   70   72 1    
   139   70  191 1    
   140   71  192 1    
   141   71  193 1    
   142   71  194 1    
   143   72   73 2    
   144   72   74 am   BACKBONE|DICT|INTERRES
   145   74   75 1    
   146   74  195 1    
   147   75   76 1    
   148   75   77 1    
   149   75  196 1    
   150   76  197 1    
   151   76  198 1    
   152   76  199 1    
   153   77   78 2    
   154   77   79 am   BACKBONE|DICT|INTERRES
   155   79   80 1    
   156   79  200 1    
   157   80   81 1    
   158   80   82 1    
   159   80  201 1    
   160   81  202 1    
   161   81  203 1    
   162   81  204 1    
   163   82   83 2    
   164   82   84 am   BACKBONE|DICT|INTERRES
   165   84   85 1    
   166   84  205 1    
   167   85   86 1    
   168   85   87 1    
   169   85  206 1    
   170   86  207 1    
   171   86  208 1    
   172   86  209 1    
   173   87   88 2    
   174   87   89 am   BACKBONE|DICT|INTERRES
   175   89   90 1    
   176   89  210 1    
   177   90   91 1    
   178   90   92 1    
   179   90  211 1    
   180   91  212 1    
   181   91  213 1    
   182   91  214 1    
   183   92   93 2    
   184   92   94 am   BACKBONE|DICT|INTERRES
   185   94   95 1    
   186   94  215 1    
   187   95   96 1    
   188   95   97 1    
   189   95  216 1    
   190   96  217 1    
   191   96  218 1    
   192   96  219 1    
   193   97   98 2    
   194   97   99 am   BACKBONE|DICT|INTERRES
   195   99  100 1    
   196   99  220 1    
   197  100  101 1    
   198  100  102 1    
   199  100  221 1    
   200  101  222 1    
   201  101  223 1    
   202  101  224 1    
   203  102  103 2    
   204  102  104 am   BACKBONE|DICT|INTERRES
   205  104  105 1    
   206  104  225 1    
   207  105  106 1    
   208  105  107 1    
   209  105  226 1    
   210  106  227 1    
   211  106  228 1    
   212  106  229 1    
   213  107  108 2    
   214  107  109 am   BACKBONE|DICT|INTERRES
   215  109  110 1    
   216  109  230 1    
   217  110  111 1    
   218  110  112 1    
   219  110  231 1    
   220  111  232 1    
   221  111  233 1    
   222  111  234 1    
   223  112  113 2    
   224  112  114 am   BACKBONE|DICT|INTERRES
   225  114  115 1    
   226  114  235 1    
   227  115  116 1    
   228  115  117 1    
   229  115  236 1    
   230  116  237 1    
   231  116  238 1    
   232  116  239 1    
   233  117  118 2    
   234  117  119 am   BACKBONE|DICT|INTERRES
   235  119  120 1    
   236  119  240 1    
   237  120  121 1    
   238  120  124 1    
   239  120  241 1    
   240  121  122 am   BACKBONE|DICT|INTERRES
   241  121  123 2    
   242  122  242 1    
   243  122  243 1    
   244  124  125 1    
   245  124  244 1    
   246  124  245 1    
   247  125  126 1    
   248  126  246 1    
   249  126  247 1    
@<TRIPOS>SUBSTRUCTURE
     1 UNK         1 GROUP             0       ****    0 ROOT    
