@<TRIPOS>MOLECULE
3R540
247   249    1
SMALL
USER_CHARGES


@<TRIPOS>ATOM
      1 CA         -0.2299   -9.3797  -49.2567 C.3       0 UNK        -0.1800 
      2 C           0.1728  -10.7181  -48.6557 C.2       0 UNK         0.5000 
      3 O          -0.4736  -11.1907  -47.7210 O.2       0 UNK        -0.5000 
      4 N           1.2277  -11.3423  -49.1968 N.am      1 UNK        -0.5000 
      5 CA          1.7713  -12.6342  -48.7515 C.3       1 UNK         0.1400 
      6 C6          3.1356  -12.9540  -49.4114 C.3       23 UNK        -0.0398 
      7 S7          3.1196  -12.9321  -51.2419 S.3       23 UNK        -0.2404 
      8 C8          3.7968  -14.5716  -51.6563 C.3       23 UNK        -0.0205 
      9 C9          2.7343  -15.6597  -51.6214 C.ar      23 UNK        -0.0193 
     10 C10         1.9734  -15.9307  -52.7642 C.ar      23 UNK        -0.1150 
     11 C11         1.0141  -16.9469  -52.7522 C.ar      23 UNK        -0.0193 
     12 C12         0.8183  -17.6840  -51.5852 C.ar      23 UNK        -0.1150 
     13 C13         1.5395  -17.4014  -50.4225 C.ar      23 UNK        -0.0193 
     14 C14         2.5149  -16.4008  -50.4550 C.ar      23 UNK        -0.1150 
     15 C15         1.2361  -18.1543  -49.1320 C.3       23 UNK        -0.0205 
     16 S16        -0.5395  -18.0659  -48.7312 S.3       23 UNK        -0.2404 
     17 C17        -0.6556  -18.8572  -47.1046 C.3       23 UNK        -0.0398 
     18 CA         -1.0057  -20.3571  -47.2178 C.3       11 UNK         0.1400 
     19 N           0.1704  -21.1536  -47.5685 N.am      11 UNK        -0.5000 
     20 C           0.1711  -22.4535  -47.8904 C.2       10 UNK         0.5000 
     21 O          -0.8501  -23.1293  -48.0022 O.2       10 UNK        -0.5000 
     22 CA          1.5556  -23.1222  -48.0259 C.3       10 UNK         0.1400 
     23 CB          2.0196  -23.0938  -49.4881 C.3       10 UNK        -0.1800 
     24 N           2.5868  -22.5068  -47.1762 N.am      10 UNK        -0.5000 
     25 C           2.5015  -22.3975  -45.8426 C.2       9 UNK         0.5000 
     26 O           1.5581  -22.8568  -45.1943 O.2       9 UNK        -0.5000 
     27 CA          3.5896  -21.5629  -45.1393 C.3       9 UNK         0.1400 
     28 CB          3.5381  -20.0983  -45.6125 C.3       9 UNK        -0.1800 
     29 N           3.3873  -21.5709  -43.6925 N.am      9 UNK        -0.5000 
     30 C           3.7766  -22.5356  -42.8505 C.2       8 UNK         0.5000 
     31 O           4.4880  -23.4838  -43.1870 O.2       8 UNK        -0.5000 
     32 CA          3.2489  -22.4473  -41.3995 C.3       8 UNK         0.1400 
     33 CB          4.3230  -22.8143  -40.3544 C.3       8 UNK        -0.1800 
     34 N           2.5899  -21.1708  -41.0769 N.am      8 UNK        -0.5000 
     35 C           3.1503  -19.9579  -40.9442 C.2       7 UNK         0.5000 
     36 O           4.3615  -19.7522  -41.0211 O.2       7 UNK        -0.5000 
     37 CA          2.1981  -18.7593  -40.7421 C.3       7 UNK         0.1400 
     38 CB          2.3887  -17.7306  -41.8689 C.3       7 UNK        -0.1800 
     39 N           0.7806  -19.1362  -40.6972 N.am      7 UNK        -0.5000 
     40 C           0.1266  -19.5399  -39.5981 C.2       6 UNK         0.5000 
     41 O           0.6775  -19.6798  -38.5057 O.2       6 UNK        -0.5000 
     42 CA         -1.3760  -19.8849  -39.7385 C.3       6 UNK         0.1400 
     43 CB         -2.2057  -19.3725  -38.5427 C.3       6 UNK        -0.1800 
     44 N          -1.9893  -19.4845  -41.0149 N.am      6 UNK        -0.5000 
     45 C          -2.1710  -18.2392  -41.4764 C.2       5 UNK         0.5000 
     46 O          -1.8586  -17.2193  -40.8580 O.2       5 UNK        -0.5000 
     47 CA         -2.8001  -18.1194  -42.8786 C.3       5 UNK         0.1400 
     48 CB         -4.3177  -17.9078  -42.7835 C.3       5 UNK        -0.1800 
     49 N          -2.1982  -17.0181  -43.6265 N.am      5 UNK        -0.5000 
     50 C          -0.9288  -16.9939  -44.0457 C.2       4 UNK         0.5000 
     51 O          -0.1921  -17.9812  -43.9867 O.2       4 UNK        -0.5000 
     52 CA         -0.3986  -15.6534  -44.6079 C.3       4 UNK         0.1400 
     53 CB          1.0545  -15.7629  -45.1034 C.3       4 UNK        -0.1800 
     54 N          -1.2211  -15.0656  -45.6743 N.am      4 UNK        -0.5000 
     55 C          -2.4210  -14.4837  -45.5146 C.2       3 UNK         0.5000 
     56 O          -3.0101  -14.4523  -44.4328 O.2       3 UNK        -0.5000 
     57 CA         -3.0789  -13.8000  -46.7324 C.3       3 UNK         0.1400 
     58 CB         -3.4412  -12.3405  -46.4104 C.3       3 UNK        -0.1800 
     59 N          -2.2380  -13.8165  -47.9289 N.am      3 UNK        -0.5000 
     60 C          -2.2626  -14.7706  -48.8703 C.2       2 UNK         0.5000 
     61 O          -3.0363  -15.7263  -48.8394 O.2       2 UNK        -0.5000 
     62 CA         -1.2652  -14.6455  -50.0450 C.3       2 UNK         0.1400 
     63 CB         -1.9935  -14.2621  -51.3407 C.3       2 UNK        -0.1800 
     64 N          -0.1806  -13.6897  -49.8187 N.am      2 UNK        -0.5000 
     65 C           0.7733  -13.8050  -48.8843 C.2       1 UNK         0.5000 
     66 O           0.8494  -14.7532  -48.1052 O.2       1 UNK        -0.5000 
     67 C          -1.7093  -20.8406  -45.9326 C.2       11 UNK         0.5000 
     68 O          -2.9181  -20.6429  -45.8203 O.2       11 UNK        -0.5000 
     69 N          -0.9844  -21.4742  -44.9990 N.am      12 UNK        -0.5000 
     70 CA         -1.5647  -22.0508  -43.7857 C.3       12 UNK         0.1400 
     71 CB         -0.4803  -22.2063  -42.7095 C.3       12 UNK        -0.1800 
     72 C          -2.2669  -23.3881  -44.0691 C.2       12 UNK         0.5000 
     73 O          -3.3106  -23.6573  -43.4757 O.2       12 UNK        -0.5000 
     74 N          -1.7072  -24.1790  -44.9948 N.am      13 UNK        -0.5000 
     75 CA         -2.2967  -25.4294  -45.4749 C.3       13 UNK         0.1400 
     76 CB         -1.2303  -26.2415  -46.2263 C.3       13 UNK        -0.1800 
     77 C          -3.5282  -25.1786  -46.3649 C.2       13 UNK         0.5000 
     78 O          -4.5393  -25.8660  -46.2201 O.2       13 UNK        -0.5000 
     79 N          -3.4228  -24.1822  -47.2536 N.am      14 UNK        -0.5000 
     80 CA         -4.4780  -23.7632  -48.1763 C.3       14 UNK         0.1400 
     81 CB         -3.8284  -22.9560  -49.3074 C.3       14 UNK        -0.1800 
     82 C          -5.5898  -22.9255  -47.5145 C.2       14 UNK         0.5000 
     83 O          -6.6503  -22.7675  -48.1172 O.2       14 UNK        -0.5000 
     84 N          -5.3203  -22.3731  -46.3219 N.am      15 UNK        -0.5000 
     85 CA         -6.1596  -21.4332  -45.5680 C.3       15 UNK         0.1400 
     86 CB         -7.4609  -22.1103  -45.0900 C.3       15 UNK        -0.1800 
     87 C          -6.3978  -20.1215  -46.3482 C.2       15 UNK         0.5000 
     88 O          -7.5372  -19.6792  -46.5023 O.2       15 UNK        -0.5000 
     89 N          -5.2926  -19.5471  -46.8451 N.am      16 UNK        -0.5000 
     90 CA         -5.1855  -18.3150  -47.6372 C.3       16 UNK         0.1400 
     91 CB         -5.6061  -17.0857  -46.8048 C.3       16 UNK        -0.1800 
     92 C          -5.8774  -18.3670  -49.0193 C.2       16 UNK         0.5000 
     93 O          -6.1286  -17.3182  -49.6158 O.2       16 UNK        -0.5000 
     94 N          -6.1525  -19.5742  -49.5343 N.am      17 UNK        -0.5000 
     95 CA         -6.6341  -19.7966  -50.8964 C.3       17 UNK         0.1400 
     96 CB         -7.3467  -21.1565  -50.9782 C.3       17 UNK        -0.1800 
     97 C          -5.4469  -19.7083  -51.8695 C.2       17 UNK         0.5000 
     98 O          -4.7554  -20.7055  -52.0830 O.2       17 UNK        -0.5000 
     99 N          -5.2075  -18.5051  -52.4080 N.am      18 UNK        -0.5000 
    100 CA        -4.0472  -18.1391  -53.2287 C.3       18 UNK         0.1400 
    101 CB        -4.2105  -16.6897  -53.7096 C.3       18 UNK        -0.1800 
    102 C         -3.7865  -19.0696  -54.4283 C.2       18 UNK         0.5000 
    103 O         -2.6320  -19.3861  -54.7078 O.2       18 UNK        -0.5000 
    104 N         -4.8665  -19.5201  -55.0810 N.am      19 UNK        -0.5000 
    105 CA        -4.8360  -20.4321  -56.2268 C.3       19 UNK         0.1400 
    106 CB        -6.2297  -20.4560  -56.8738 C.3       19 UNK        -0.1800 
    107 C         -4.3777  -21.8645  -55.8824 C.2       19 UNK         0.5000 
    108 O         -3.9455  -22.5860  -56.7822 O.2       19 UNK        -0.5000 
    109 N         -4.4894  -22.2569  -54.6066 N.am      20 UNK        -0.5000 
    110 CA        -3.9804  -23.5243  -54.0852 C.3       20 UNK         0.1400 
    111 CB        -4.9845  -24.0941  -53.0705 C.3       20 UNK        -0.1800 
    112 C         -2.5999  -23.3338  -53.4349 C.2       20 UNK         0.5000 
    113 O         -1.7454  -24.2121  -53.5567 O.2       20 UNK        -0.5000 
    114 N         -2.4106  -22.1967  -52.7523 N.am      21 UNK        -0.5000 
    115 CA        -1.1973  -21.8484  -52.0186 C.3       21 UNK         0.1400 
    116 CB        -1.4912  -20.6422  -51.1221 C.3       21 UNK        -0.1800 
    117 C          0.0226  -21.5663  -52.9157 C.2       21 UNK         0.5000 
    118 O          1.1408  -21.8852  -52.5113 O.2       21 UNK        -0.5000 
    119 N         -0.1912  -20.9912  -54.1057 N.am      22 UNK        -0.5000 
    120 CA         0.8610  -20.7453  -55.1014 C.3       22 UNK         0.1400 
    121 C          0.3376  -20.8465  -56.5625 C.2       22 UNK         0.5000 
    122 N          1.2088  -20.7044  -57.5532 N.am      22 UNK        -0.7600 
    123 O         -0.8411  -21.0797  -56.8178 O.2       22 UNK        -0.5000 
    124 C124        1.7161  -19.4816  -54.7742 C.3       23 UNK        -0.0398 
    125 S125        1.0886  -17.8753  -55.3898 S.3       23 UNK        -0.2404 
    126 C126        0.1489  -17.2280  -53.9728 C.3       23 UNK        -0.0205 
    127 H127        0.4222   -9.0931  -50.0822 H         1 UNK         0.0600 
    128 H128       -0.1820   -8.5988  -48.4978 H         1 UNK         0.0600 
    129 H129       -1.2522   -9.4299  -49.6317 H         1 UNK         0.0600 
    130 H130        1.7111  -10.9174  -49.9760 H         1 UNK         0.3000 
    131 H131        1.9584  -12.5318  -47.6802 H         1 UNK         0.0600 
    132 H132        3.5184  -13.9078  -49.0465 H         1 UNK         0.0800 
    133 H133        3.8678  -12.2133  -49.0874 H         1 UNK         0.0800 
    134 H134        4.6223  -14.8178  -50.9867 H         1 UNK         0.0800 
    135 H135        4.2302  -14.5230  -52.6564 H         1 UNK         0.0800 
    136 H136        2.1276  -15.3525  -53.6644 H         1 UNK         0.1150 
    137 H137        0.0700  -18.4575  -51.5681 H         1 UNK         0.1150 
    138 H138        3.0860  -16.1835  -49.5641 H         1 UNK         0.1150 
    139 H139        1.5384  -19.1954  -49.2467 H         1 UNK         0.0800 
    140 H140        1.8090  -17.7386  -48.3015 H         1 UNK         0.0800 
    141 H141       -1.4405  -18.3127  -46.5765 H         1 UNK         0.0800 
    142 H142        0.2625  -18.6998  -46.5373 H         1 UNK         0.0800 
    143 H143       -1.7355  -20.4830  -48.0197 H         1 UNK         0.0600 
    144 H144        1.0616  -20.6893  -47.4945 H         1 UNK         0.3000 
    145 H145        1.4469  -24.1642  -47.7180 H         1 UNK         0.0600 
    146 H146        2.9589  -23.6317  -49.6163 H         1 UNK         0.0600 
    147 H147        1.2845  -23.5676  -50.1402 H         1 UNK         0.0600 
    148 H148        2.1641  -22.0734  -49.8458 H         1 UNK         0.0600 
    149 H149        3.3868  -22.1151  -47.6522 H         1 UNK         0.3000 
    150 H150        4.5669  -21.9871  -45.3782 H         1 UNK         0.0600 
    151 H151        3.7490  -20.0133  -46.6790 H         1 UNK         0.0600 
    152 H152        4.2813  -19.4930  -45.0926 H         1 UNK         0.0600 
    153 H153        2.5606  -19.6481  -45.4320 H         1 UNK         0.0600 
    154 H154        2.7813  -20.8543  -43.3256 H         1 UNK         0.3000 
    155 H155        2.4653  -23.2032  -41.3312 H         1 UNK         0.0600 
    156 H156        5.1982  -22.1682  -40.4239 H         1 UNK         0.0600 
    157 H157        4.6676  -23.8396  -40.4935 H         1 UNK         0.0600 
    158 H158        3.9292  -22.7409  -39.3407 H         1 UNK         0.0600 
    159 H159        1.5869  -21.2173  -40.9786 H         1 UNK         0.3000 
    160 H160        2.4710  -18.2810  -39.7991 H         1 UNK         0.0600 
    161 H161        2.2212  -18.1754  -42.8503 H         1 UNK         0.0600 
    162 H162        3.4011  -17.3251  -41.8639 H         1 UNK         0.0600 
    163 H163        1.7034  -16.8898  -41.7587 H         1 UNK         0.0600 
    164 H164        0.2595  -19.0199  -41.5552 H         1 UNK         0.3000 
    165 H165       -1.4260  -20.9743  -39.7179 H         1 UNK         0.0600 
    166 H166       -2.1420  -18.2893  -38.4370 H         1 UNK         0.0600 
    167 H167       -3.2574  -19.6383  -38.6490 H         1 UNK         0.0600 
    168 H168       -1.8565  -19.8100  -37.6067 H         1 UNK         0.0600 
    169 H169       -2.3072  -20.2511  -41.5882 H         1 UNK         0.3000 
    170 H170       -2.6160  -19.0406  -43.4329 H         1 UNK         0.0600 
    171 H171       -4.5624  -16.9599  -42.3025 H         1 UNK         0.0600 
    172 H172       -4.7785  -17.9146  -43.7704 H         1 UNK         0.0600 
    173 H173       -4.7887  -18.7028  -42.2039 H         1 UNK         0.0600 
    174 H174       -2.7297  -16.1547  -43.6960 H         1 UNK         0.3000 
    175 H175       -0.3975  -14.9545  -43.7691 H         1 UNK         0.0600 
    176 H176        1.1384  -16.4382  -45.9553 H         1 UNK         0.0600 
    177 H177        1.4409  -14.7902  -45.4077 H         1 UNK         0.0600 
    178 H178        1.7140  -16.1370  -44.3202 H         1 UNK         0.0600 
    179 H179       -0.8021  -15.0550  -46.5968 H         1 UNK         0.3000 
    180 H180       -4.0099  -14.3320  -46.9338 H         1 UNK         0.0600 
    181 H181       -3.8971  -11.8471  -47.2690 H         1 UNK         0.0600 
    182 H182       -2.5637  -11.7632  -46.1180 H         1 UNK         0.0600 
    183 H183       -4.1569  -12.2853  -45.5892 H         1 UNK         0.0600 
    184 H184       -1.5688  -13.0598  -48.0139 H         1 UNK         0.3000 
    185 H185       -0.8134  -15.6254  -50.1958 H         1 UNK         0.0600 
    186 H186       -1.3153  -14.2797  -52.1943 H         1 UNK         0.0600 
    187 H187       -2.7979  -14.9655  -51.5526 H         1 UNK         0.0600 
    188 H188       -2.4344  -13.2668  -51.2761 H         1 UNK         0.0600 
    189 H189       -0.1682  -12.8703  -50.4075 H         1 UNK         0.3000 
    190 H190       -0.0044  -21.6759  -45.1666 H         1 UNK         0.3000 
    191 H191       -2.3194  -21.3642  -43.4001 H         1 UNK         0.0600 
    192 H192       -0.9187  -22.5017  -41.7558 H         1 UNK         0.0600 
    193 H193        0.0511  -21.2683  -42.5555 H         1 UNK         0.0600 
    194 H194        0.2522  -22.9682  -42.9756 H         1 UNK         0.0600 
    195 H195       -0.8491  -23.8774  -45.4350 H         1 UNK         0.3000 
    196 H196       -2.6200  -26.0132  -44.6104 H         1 UNK         0.0600 
    197 H197       -0.8569  -25.7103  -47.1023 H         1 UNK         0.0600 
    198 H198       -0.3793  -26.4646  -45.5825 H         1 UNK         0.0600 
    199 H199       -1.6368  -27.1937  -46.5695 H         1 UNK         0.0600 
    200 H200       -2.5232  -23.7197  -47.3610 H         1 UNK         0.3000 
    201 H201       -4.9419  -24.6524  -48.6080 H         1 UNK         0.0600 
    202 H202       -4.5617  -22.6462  -50.0503 H         1 UNK         0.0600 
    203 H203       -3.3589  -22.0553  -48.9147 H         1 UNK         0.0600 
    204 H204       -3.0658  -23.5364  -49.8271 H         1 UNK         0.0600 
    205 H205       -4.4000  -22.5323  -45.9364 H         1 UNK         0.3000 
    206 H206       -5.5885  -21.1602  -44.6791 H         1 UNK         0.0600 
    207 H207       -7.2471  -23.0210  -44.5305 H         1 UNK         0.0600 
    208 H208       -8.0234  -21.4483  -44.4307 H         1 UNK         0.0600 
    209 H209       -8.1147  -22.3733  -45.9219 H         1 UNK         0.0600 
    210 H210       -4.4064  -19.9908  -46.6094 H         1 UNK         0.3000 
    211 H211       -4.1229  -18.2007  -47.8578 H         1 UNK         0.0600 
    212 H212       -5.4767  -16.1640  -47.3722 H         1 UNK         0.0600 
    213 H213       -4.9955  -16.9922  -45.9078 H         1 UNK         0.0600 
    214 H214       -6.6519  -17.1349  -46.5020 H         1 UNK         0.0600 
    215 H215       -5.9421  -20.3968  -48.9882 H         1 UNK         0.3000 
    216 H216       -7.3634  -19.0266  -51.1569 H         1 UNK         0.0600 
    217 H217       -6.6834  -21.9845  -50.7314 H         1 UNK         0.0600 
    218 H218       -7.7291  -21.3350  -51.9838 H         1 UNK         0.0600 
    219 H219       -8.1945  -21.1973  -50.2941 H         1 UNK         0.0600 
    220 H220       -5.8060  -17.7405  -52.1271 H         1 UNK         0.3000 
    221 H221       -3.1717  -18.1799  -52.5794 H         1 UNK         0.0600 
    222 H222       -4.3833  -16.0119  -52.8746 H         1 UNK         0.0600 
    223 H223       -5.0502  -16.5863  -54.3979 H         1 UNK         0.0600 
    224 H224       -3.3142  -16.3476  -54.2289 H         1 UNK         0.0600 
    225 H225       -5.7764  -19.2173  -54.7662 H         1 UNK         0.3000 
    226 H226       -4.1265  -20.0328  -56.9549 H         1 UNK         0.0600 
    227 H227       -6.9867  -20.8301  -56.1834 H         1 UNK         0.0600 
    228 H228       -6.5319  -19.4601  -57.1984 H         1 UNK         0.0600 
    229 H229       -6.2413  -21.1001  -57.7541 H         1 UNK         0.0600 
    230 H230       -4.8285  -21.5942  -53.9192 H         1 UNK         0.3000 
    231 H231       -3.8723  -24.2523  -54.8918 H         1 UNK         0.0600 
    232 H232       -5.1578  -23.4077  -52.2423 H         1 UNK         0.0600 
    233 H233       -4.6245  -25.0334  -52.6490 H         1 UNK         0.0600 
    234 H234       -5.9464  -24.2958  -53.5419 H         1 UNK         0.0600 
    235 H235       -3.1937  -21.5576  -52.6514 H         1 UNK         0.3000 
    236 H236       -0.9466  -22.6929  -51.3730 H         1 UNK         0.0600 
    237 H237       -2.3406  -20.8212  -50.4682 H         1 UNK         0.0600 
    238 H238       -0.6325  -20.4203  -50.4889 H         1 UNK         0.0600 
    239 H239       -1.7209  -19.7567  -51.7120 H         1 UNK         0.0600 
    240 H240       -1.1308  -20.7323  -54.3945 H         1 UNK         0.3000 
    241 H241        1.5365  -21.6003  -55.0300 H         1 UNK         0.0600 
    242 H242        0.8801  -20.7763  -58.5035 H         1 UNK         0.3800 
    243 H243        2.1831  -20.5121  -57.3815 H         1 UNK         0.3800 
    244 H244        2.7045  -19.6091  -55.2167 H         1 UNK         0.0800 
    245 H245        1.9048  -19.4148  -53.7027 H         1 UNK         0.0800 
    246 H246       -0.6455  -17.9338  -53.7290 H         1 UNK         0.0800 
    247 H247       -0.3478  -16.3044  -54.2729 H         1 UNK         0.0800 
@<TRIPOS>BOND
     1    1    2 1    
     2    1  127 1    
     3    1  128 1    
     4    1  129 1    
     5    2    3 2    
     6    2    4 am   BACKBONE|DICT|INTERRES
     7    4    5 1    
     8    4  130 1    
     9    5    6 1    
    10    5   65 1    
    11    5  131 1    
    12    6    7 1    
    13    6  132 1    
    14    6  133 1    
    15    7    8 1    
    16    8    9 1    
    17    8  134 1    
    18    8  135 1    
    19    9   10 ar   
    20    9   14 ar   
    21   10   11 ar   
    22   10  136 1    
    23   11   12 ar   
    24   11  126 1    
    25   12   13 ar   
    26   12  137 1    
    27   13   14 ar   
    28   13   15 1    
    29   14  138 1    
    30   15   16 1    
    31   15  139 1    
    32   15  140 1    
    33   16   17 1    
    34   17   18 1    
    35   17  141 1    
    36   17  142 1    
    37   18   19 1    
    38   18   67 1    
    39   18  143 1    
    40   19   20 am   BACKBONE|DICT|INTERRES
    41   19  144 1    
    42   20   21 2    
    43   20   22 1    
    44   22   23 1    
    45   22   24 1    
    46   22  145 1    
    47   23  146 1    
    48   23  147 1    
    49   23  148 1    
    50   24   25 am   BACKBONE|DICT|INTERRES
    51   24  149 1    
    52   25   26 2    
    53   25   27 1    
    54   27   28 1    
    55   27   29 1    
    56   27  150 1    
    57   28  151 1    
    58   28  152 1    
    59   28  153 1    
    60   29   30 am   BACKBONE|DICT|INTERRES
    61   29  154 1    
    62   30   31 2    
    63   30   32 1    
    64   32   33 1    
    65   32   34 1    
    66   32  155 1    
    67   33  156 1    
    68   33  157 1    
    69   33  158 1    
    70   34   35 am   BACKBONE|DICT|INTERRES
    71   34  159 1    
    72   35   36 2    
    73   35   37 1    
    74   37   38 1    
    75   37   39 1    
    76   37  160 1    
    77   38  161 1    
    78   38  162 1    
    79   38  163 1    
    80   39   40 am   BACKBONE|DICT|INTERRES
    81   39  164 1    
    82   40   41 2    
    83   40   42 1    
    84   42   43 1    
    85   42   44 1    
    86   42  165 1    
    87   43  166 1    
    88   43  167 1    
    89   43  168 1    
    90   44   45 am   BACKBONE|DICT|INTERRES
    91   44  169 1    
    92   45   46 2    
    93   45   47 1    
    94   47   48 1    
    95   47   49 1    
    96   47  170 1    
    97   48  171 1    
    98   48  172 1    
    99   48  173 1    
   100   49   50 am   BACKBONE|DICT|INTERRES
   101   49  174 1    
   102   50   51 2    
   103   50   52 1    
   104   52   53 1    
   105   52   54 1    
   106   52  175 1    
   107   53  176 1    
   108   53  177 1    
   109   53  178 1    
   110   54   55 am   BACKBONE|DICT|INTERRES
   111   54  179 1    
   112   55   56 2    
   113   55   57 1    
   114   57   58 1    
   115   57   59 1    
   116   57  180 1    
   117   58  181 1    
   118   58  182 1    
   119   58  183 1    
   120   59   60 am   BACKBONE|DICT|INTERRES
   121   59  184 1    
   122   60   61 2    
   123   60   62 1    
   124   62   63 1    
   125   62   64 1    
   126   62  185 1    
   127   63  186 1    
   128   63  187 1    
   129   63  188 1    
   130   64   65 am   BACKBONE|DICT|INTERRES
   131   64  189 1    
   132   65   66 2    
   133   67   68 2    
   134   67   69 am   BACKBONE|DICT|INTERRES
   135   69   70 1    
   136   69  190 1    
   137   70   71 1    
   138   70   72 1    
   139   70  191 1    
   140   71  192 1    
   141   71  193 1    
   142   71  194 1    
   143   72   73 2    
   144   72   74 am   BACKBONE|DICT|INTERRES
   145   74   75 1    
   146   74  195 1    
   147   75   76 1    
   148   75   77 1    
   149   75  196 1    
   150   76  197 1    
   151   76  198 1    
   152   76  199 1    
   153   77   78 2    
   154   77   79 am   BACKBONE|DICT|INTERRES
   155   79   80 1    
   156   79  200 1    
   157   80   81 1    
   158   80   82 1    
   159   80  201 1    
   160   81  202 1    
   161   81  203 1    
   162   81  204 1    
   163   82   83 2    
   164   82   84 am   BACKBONE|DICT|INTERRES
   165   84   85 1    
   166   84  205 1    
   167   85   86 1    
   168   85   87 1    
   169   85  206 1    
   170   86  207 1    
   171   86  208 1    
   172   86  209 1    
   173   87   88 2    
   174   87   89 am   BACKBONE|DICT|INTERRES
   175   89   90 1    
   176   89  210 1    
   177   90   91 1    
   178   90   92 1    
   179   90  211 1    
   180   91  212 1    
   181   91  213 1    
   182   91  214 1    
   183   92   93 2    
   184   92   94 am   BACKBONE|DICT|INTERRES
   185   94   95 1    
   186   94  215 1    
   187   95   96 1    
   188   95   97 1    
   189   95  216 1    
   190   96  217 1    
   191   96  218 1    
   192   96  219 1    
   193   97   98 2    
   194   97   99 am   BACKBONE|DICT|INTERRES
   195   99  100 1    
   196   99  220 1    
   197  100  101 1    
   198  100  102 1    
   199  100  221 1    
   200  101  222 1    
   201  101  223 1    
   202  101  224 1    
   203  102  103 2    
   204  102  104 am   BACKBONE|DICT|INTERRES
   205  104  105 1    
   206  104  225 1    
   207  105  106 1    
   208  105  107 1    
   209  105  226 1    
   210  106  227 1    
   211  106  228 1    
   212  106  229 1    
   213  107  108 2    
   214  107  109 am   BACKBONE|DICT|INTERRES
   215  109  110 1    
   216  109  230 1    
   217  110  111 1    
   218  110  112 1    
   219  110  231 1    
   220  111  232 1    
   221  111  233 1    
   222  111  234 1    
   223  112  113 2    
   224  112  114 am   BACKBONE|DICT|INTERRES
   225  114  115 1    
   226  114  235 1    
   227  115  116 1    
   228  115  117 1    
   229  115  236 1    
   230  116  237 1    
   231  116  238 1    
   232  116  239 1    
   233  117  118 2    
   234  117  119 am   BACKBONE|DICT|INTERRES
   235  119  120 1    
   236  119  240 1    
   237  120  121 1    
   238  120  124 1    
   239  120  241 1    
   240  121  122 am   BACKBONE|DICT|INTERRES
   241  121  123 2    
   242  122  242 1    
   243  122  243 1    
   244  124  125 1    
   245  124  244 1    
   246  124  245 1    
   247  125  126 1    
   248  126  246 1    
   249  126  247 1    
@<TRIPOS>SUBSTRUCTURE
     1 UNK         1 GROUP             0       ****    0 ROOT    
