@<TRIPOS>MOLECULE
3R540
247   249    1
SMALL
USER_CHARGES


@<TRIPOS>ATOM
      1 CA          3.0545  -11.5112  -50.5858 C.3       0 UNK        -0.1800 
      2 C           2.3101  -12.5638  -49.7777 C.2       0 UNK         0.5000 
      3 O           1.5654  -13.3587  -50.3506 O.2       0 UNK        -0.5000 
      4 N           2.5040  -12.5656  -48.4517 N.am      1 UNK        -0.5000 
      5 CA          1.9445  -13.4780  -47.4382 C.3       1 UNK         0.1400 
      6 C6          2.2702  -14.9791  -47.6654 C.3       23 UNK        -0.0398 
      7 S7          4.0481  -15.3569  -47.8374 S.3       23 UNK        -0.2404 
      8 C8          4.2111  -15.7804  -49.6037 C.3       23 UNK        -0.0205 
      9 C9          3.5066  -17.0773  -49.9827 C.ar      23 UNK        -0.0193 
     10 C10         2.2169  -17.0441  -50.5198 C.ar      23 UNK        -0.1150 
     11 C11         1.5772  -18.2190  -50.9241 C.ar      23 UNK        -0.0193 
     12 C12         2.2459  -19.4399  -50.7938 C.ar      23 UNK        -0.1150 
     13 C13         3.5405  -19.4897  -50.2665 C.ar      23 UNK        -0.0193 
     14 C14         4.1614  -18.3059  -49.8531 C.ar      23 UNK        -0.1150 
     15 C15         4.2875  -20.8144  -50.1878 C.3       23 UNK        -0.0205 
     16 S16         4.1331  -21.6049  -48.5565 S.3       23 UNK        -0.2404 
     17 C17         2.3898  -22.1443  -48.5708 C.3       23 UNK        -0.0398 
     18 CA          2.1465  -23.3728  -47.6577 C.3       11 UNK         0.1400 
     19 N           2.3252  -23.0412  -46.2383 N.am      11 UNK        -0.5000 
     20 C           2.5139  -23.9287  -45.2524 C.2       10 UNK         0.5000 
     21 O           2.6351  -25.1399  -45.4375 O.2       10 UNK        -0.5000 
     22 CA          2.5150  -23.3758  -43.8135 C.3       10 UNK         0.1400 
     23 CB          3.8997  -22.8263  -43.4396 C.3       10 UNK        -0.1800 
     24 N           1.5010  -22.3393  -43.5976 N.am      10 UNK        -0.5000 
     25 C           0.1755  -22.5319  -43.6696 C.2       9 UNK         0.5000 
     26 O          -0.3446  -23.6220  -43.9032 O.2       9 UNK        -0.5000 
     27 CA         -0.7205  -21.2893  -43.5164 C.3       9 UNK         0.1400 
     28 CB         -0.9307  -20.9234  -42.0396 C.3       9 UNK        -0.1800 
     29 N          -0.1785  -20.1426  -44.2432 N.am      9 UNK        -0.5000 
     30 C          -0.1720  -20.0406  -45.5791 C.2       8 UNK         0.5000 
     31 O          -0.7074  -20.8605  -46.3258 O.2       8 UNK        -0.5000 
     32 CA          0.5701  -18.8362  -46.1835 C.3       8 UNK         0.1400 
     33 CB         -0.3862  -17.6488  -46.3548 C.3       8 UNK        -0.1800 
     34 N           1.7365  -18.4375  -45.3900 N.am      8 UNK        -0.5000 
     35 C           2.8407  -19.1931  -45.2813 C.2       7 UNK         0.5000 
     36 O           2.9653  -20.2835  -45.8313 O.2       7 UNK        -0.5000 
     37 CA          3.9624  -18.6975  -44.3498 C.3       7 UNK         0.1400 
     38 CB          4.8590  -17.6804  -45.0682 C.3       7 UNK        -0.1800 
     39 N           3.4594  -18.1049  -43.1131 N.am      7 UNK        -0.5000 
     40 C           2.6916  -18.7312  -42.2104 C.2       6 UNK         0.5000 
     41 O           2.3930  -19.9224  -42.2810 O.2       6 UNK        -0.5000 
     42 CA          2.1166  -17.8692  -41.0688 C.3       6 UNK         0.1400 
     43 CB          2.9510  -18.0428  -39.7915 C.3       6 UNK        -0.1800 
     44 N           2.0339  -16.4426  -41.4027 N.am      6 UNK        -0.5000 
     45 C           1.2768  -15.9301  -42.3821 C.2       5 UNK         0.5000 
     46 O           0.5445  -16.6065  -43.1089 O.2       5 UNK        -0.5000 
     47 CA          1.4479  -14.4280  -42.6526 C.3       5 UNK         0.1400 
     48 CB          2.5191  -14.2085  -43.7303 C.3       5 UNK        -0.1800 
     49 N           0.1937  -13.8257  -43.0947 N.am      5 UNK        -0.5000 
     50 C          -0.8021  -13.4907  -42.2642 C.2       4 UNK         0.5000 
     51 O          -0.7520  -13.6330  -41.0414 O.2       4 UNK        -0.5000 
     52 CA         -2.0598  -12.8844  -42.9011 C.3       4 UNK         0.1400 
     53 CB         -1.8445  -11.3926  -43.2024 C.3       4 UNK        -0.1800 
     54 N          -2.4255  -13.5685  -44.1380 N.am      4 UNK        -0.5000 
     55 C          -3.2620  -14.6143  -44.2175 C.2       3 UNK         0.5000 
     56 O          -3.7643  -15.1575  -43.2332 O.2       3 UNK        -0.5000 
     57 CA         -3.6355  -15.1072  -45.6315 C.3       3 UNK         0.1400 
     58 CB         -5.1488  -15.3437  -45.7723 C.3       3 UNK        -0.1800 
     59 N          -3.2184  -14.1278  -46.6333 N.am      3 UNK        -0.5000 
     60 C          -2.4230  -14.3788  -47.6753 C.2       2 UNK         0.5000 
     61 O          -2.1246  -15.5104  -48.0568 O.2       2 UNK        -0.5000 
     62 CA         -1.8036  -13.1572  -48.3844 C.3       2 UNK         0.1400 
     63 CB         -2.3182  -11.7888  -47.8811 C.3       2 UNK        -0.1800 
     64 N          -0.3429  -13.2069  -48.3019 N.am      2 UNK        -0.5000 
     65 C           0.4255  -13.3012  -47.2063 C.2       1 UNK         0.5000 
     66 O          -0.0109  -13.2689  -46.0515 O.2       1 UNK        -0.5000 
     67 C           0.7632  -23.9971  -47.9583 C.2       11 UNK         0.5000 
     68 O           0.5766  -24.5132  -49.0607 O.2       11 UNK        -0.5000 
     69 N          -0.1717  -23.9364  -46.9956 N.am      12 UNK        -0.5000 
     70 CA         -1.5652  -24.3860  -47.0719 C.3       12 UNK         0.1400 
     71 CB         -1.6422  -25.9219  -47.1964 C.3       12 UNK        -0.1800 
     72 C          -2.3487  -23.6416  -48.1708 C.2       12 UNK         0.5000 
     73 O          -3.0358  -24.2684  -48.9784 O.2       12 UNK        -0.5000 
     74 N          -2.1895  -22.3126  -48.1917 N.am      13 UNK        -0.5000 
     75 CA         -2.7550  -21.4192  -49.1979 C.3       13 UNK         0.1400 
     76 CB         -1.6166  -20.8956  -50.0863 C.3       13 UNK        -0.1800 
     77 C          -3.5607  -20.2562  -48.5970 C.2       13 UNK         0.5000 
     78 O          -4.2220  -19.5488  -49.3584 O.2       13 UNK        -0.5000 
     79 N          -3.5084  -20.0693  -47.2689 N.am      14 UNK        -0.5000 
     80 CA         -4.2552  -19.0342  -46.5463 C.3       14 UNK         0.1400 
     81 CB         -3.7759  -18.9768  -45.0858 C.3       14 UNK        -0.1800 
     82 C          -5.7795  -19.2499  -46.5984 C.2       14 UNK         0.5000 
     83 O          -6.5282  -18.2965  -46.8111 O.2       14 UNK        -0.5000 
     84 N          -6.2026  -20.5043  -46.4185 N.am      15 UNK        -0.5000 
     85 CA         -7.5834  -20.9631  -46.4896 C.3       15 UNK         0.1400 
     86 CB         -8.3509  -20.5827  -45.2103 C.3       15 UNK        -0.1800 
     87 C          -7.5486  -22.4825  -46.6832 C.2       15 UNK         0.5000 
     88 O          -6.7070  -23.1440  -46.0680 O.2       15 UNK        -0.5000 
     89 N          -8.4515  -22.9927  -47.5336 N.am      16 UNK        -0.5000 
     90 CA         -8.5354  -24.3805  -48.0127 C.3       16 UNK         0.1400 
     91 CB         -8.8507  -25.3419  -46.8459 C.3       16 UNK        -0.1800 
     92 C          -7.2872  -24.8204  -48.8139 C.2       16 UNK         0.5000 
     93 O          -6.3802  -24.0169  -49.0358 O.2       16 UNK        -0.5000 
     94 N          -7.2807  -26.0856  -49.2601 N.am      17 UNK        -0.5000 
     95 CA         -6.2042  -26.7544  -50.0011 C.3       17 UNK         0.1400 
     96 CB         -5.0298  -27.0821  -49.0547 C.3       17 UNK        -0.1800 
     97 C          -5.7961  -25.9902  -51.2804 C.2       17 UNK         0.5000 
     98 O          -6.5655  -25.9898  -52.2425 O.2       17 UNK        -0.5000 
     99 N          -4.6271  -25.3372  -51.2739 N.am      18 UNK        -0.5000 
    100 CA        -4.0901  -24.5445  -52.3806 C.3       18 UNK         0.1400 
    101 CB        -2.5694  -24.7765  -52.4521 C.3       18 UNK        -0.1800 
    102 C         -4.4541  -23.0540  -52.2188 C.2       18 UNK         0.5000 
    103 O         -3.5916  -22.1904  -52.3888 O.2       18 UNK        -0.5000 
    104 N         -5.7177  -22.7845  -51.8584 N.am      19 UNK        -0.5000 
    105 CA        -6.2873  -21.4814  -51.5065 C.3       19 UNK         0.1400 
    106 CB        -7.8061  -21.6324  -51.3177 C.3       19 UNK        -0.1800 
    107 C         -5.9640  -20.3739  -52.5276 C.2       19 UNK         0.5000 
    108 O         -6.5164  -20.3802  -53.6297 O.2       19 UNK        -0.5000 
    109 N         -5.0513  -19.4719  -52.1395 N.am      20 UNK        -0.5000 
    110 CA        -4.5164  -18.3506  -52.9183 C.3       20 UNK         0.1400 
    111 CB        -5.5974  -17.2660  -53.1028 C.3       20 UNK        -0.1800 
    112 C         -3.8457  -18.7533  -54.2534 C.2       20 UNK         0.5000 
    113 O         -3.8000  -17.9391  -55.1785 O.2       20 UNK        -0.5000 
    114 N         -3.3071  -19.9816  -54.3386 N.am      21 UNK        -0.5000 
    115 CA        -2.6763  -20.5422  -55.5435 C.3       21 UNK         0.1400 
    116 CB        -2.3430  -22.0222  -55.3064 C.3       21 UNK        -0.1800 
    117 C         -1.4230  -19.7833  -56.0260 C.2       21 UNK         0.5000 
    118 O         -1.0575  -19.8981  -57.1967 O.2       21 UNK        -0.5000 
    119 N         -0.8060  -19.0083  -55.1273 N.am      22 UNK        -0.5000 
    120 CA         0.2587  -18.0414  -55.4265 C.3       22 UNK         0.1400 
    121 C         -0.1991  -16.7891  -56.2370 C.2       22 UNK         0.5000 
    122 N         -1.4914  -16.5214  -56.3937 N.am      22 UNK        -0.7600 
    123 O          0.6400  -16.0521  -56.7478 O.2       22 UNK        -0.5000 
    124 C124        1.0336  -17.6445  -54.1437 C.3       23 UNK        -0.0398 
    125 S125       -0.0325  -16.9456  -52.8298 S.3       23 UNK        -0.2404 
    126 C126        0.1650  -18.1742  -51.4974 C.3       23 UNK        -0.0205 
    127 H127        2.3458  -10.8753  -51.1163 H         1 UNK         0.0600 
    128 H128        3.6996  -11.9922  -51.3211 H         1 UNK         0.0600 
    129 H129        3.6748  -10.8763  -49.9528 H         1 UNK         0.0600 
    130 H130        3.1167  -11.8592  -48.0690 H         1 UNK         0.3000 
    131 H131        2.4279  -13.1801  -46.5075 H         1 UNK         0.0600 
    132 H132        1.9227  -15.5623  -46.8133 H         1 UNK         0.0800 
    133 H133        1.7186  -15.3601  -48.5213 H         1 UNK         0.0800 
    134 H134        3.8403  -14.9587  -50.2156 H         1 UNK         0.0800 
    135 H135        5.2728  -15.8668  -49.8391 H         1 UNK         0.0800 
    136 H136        1.7112  -16.0967  -50.6425 H         1 UNK         0.1150 
    137 H137        1.7639  -20.3526  -51.1145 H         1 UNK         0.1150 
    138 H138        5.1639  -18.3387  -49.4501 H         1 UNK         0.1150 
    139 H139        3.9398  -21.4979  -50.9638 H         1 UNK         0.0800 
    140 H140        5.3458  -20.6451  -50.3919 H         1 UNK         0.0800 
    141 H141        1.7575  -21.3068  -48.2709 H         1 UNK         0.0800 
    142 H142        2.1217  -22.3766  -49.6030 H         1 UNK         0.0800 
    143 H143        2.8848  -24.1345  -47.9176 H         1 UNK         0.0600 
    144 H144        2.3441  -22.0491  -46.0124 H         1 UNK         0.3000 
    145 H145        2.2873  -24.2046  -43.1401 H         1 UNK         0.0600 
    146 H146        3.9191  -22.4720  -42.4088 H         1 UNK         0.0600 
    147 H147        4.1915  -21.9973  -44.0839 H         1 UNK         0.0600 
    148 H148        4.6637  -23.5988  -43.5339 H         1 UNK         0.0600 
    149 H149        1.8431  -21.4157  -43.3469 H         1 UNK         0.3000 
    150 H150       -1.6979  -21.5298  -43.9404 H         1 UNK         0.0600 
    151 H151       -1.3934  -21.7497  -41.4987 H         1 UNK         0.0600 
    152 H152       -1.5884  -20.0599  -41.9382 H         1 UNK         0.0600 
    153 H153        0.0075  -20.6910  -41.5368 H         1 UNK         0.0600 
    154 H154        0.2961  -19.4355  -43.7003 H         1 UNK         0.3000 
    155 H155        0.9175  -19.1311  -47.1763 H         1 UNK         0.0600 
    156 H156       -1.2779  -17.9448  -46.9090 H         1 UNK         0.0600 
    157 H157        0.0767  -16.8440  -46.9212 H         1 UNK         0.0600 
    158 H158       -0.7128  -17.2433  -45.3971 H         1 UNK         0.0600 
    159 H159        1.6504  -17.5949  -44.8374 H         1 UNK         0.3000 
    160 H160        4.5740  -19.5609  -44.0813 H         1 UNK         0.0600 
    161 H161        4.3295  -16.7467  -45.2568 H         1 UNK         0.0600 
    162 H162        5.2015  -18.0663  -46.0297 H         1 UNK         0.0600 
    163 H163        5.7445  -17.4486  -44.4764 H         1 UNK         0.0600 
    164 H164        3.6657  -17.1294  -42.9629 H         1 UNK         0.3000 
    165 H165        1.1041  -18.2266  -40.8698 H         1 UNK         0.0600 
    166 H166        2.5088  -17.5022  -38.9544 H         1 UNK         0.0600 
    167 H167        3.0094  -19.0933  -39.5033 H         1 UNK         0.0600 
    168 H168        3.9716  -17.6817  -39.9247 H         1 UNK         0.0600 
    169 H169        2.6171  -15.8226  -40.8587 H         1 UNK         0.3000 
    170 H170        1.7747  -13.9320  -41.7359 H         1 UNK         0.0600 
    171 H171        3.4933  -14.5659  -43.3949 H         1 UNK         0.0600 
    172 H172        2.2742  -14.7418  -44.6476 H         1 UNK         0.0600 
    173 H173        2.6271  -13.1509  -43.9713 H         1 UNK         0.0600 
    174 H174        0.0702  -13.7040  -44.0944 H         1 UNK         0.3000 
    175 H175       -2.8765  -12.9670  -42.1805 H         1 UNK         0.0600 
    176 H176       -1.0494  -11.2381  -43.9333 H         1 UNK         0.0600 
    177 H177       -2.7530  -10.9358  -43.5953 H         1 UNK         0.0600 
    178 H178       -1.5714  -10.8468  -42.2984 H         1 UNK         0.0600 
    179 H179       -1.9555  -13.2576  -44.9786 H         1 UNK         0.3000 
    180 H180       -3.1145  -16.0547  -45.7794 H         1 UNK         0.0600 
    181 H181       -5.3989  -15.6923  -46.7744 H         1 UNK         0.0600 
    182 H182       -5.7171  -14.4322  -45.5838 H         1 UNK         0.0600 
    183 H183       -5.4994  -16.1013  -45.0708 H         1 UNK         0.0600 
    184 H184       -3.4356  -13.1646  -46.4189 H         1 UNK         0.3000 
    185 H185       -2.0634  -13.2473  -49.4400 H         1 UNK         0.0600 
    186 H186       -1.8774  -10.9766  -48.4593 H         1 UNK         0.0600 
    187 H187       -3.3999  -11.7065  -47.9942 H         1 UNK         0.0600 
    188 H188       -2.0733  -11.6106  -46.8334 H         1 UNK         0.0600 
    189 H189        0.1432  -13.2806  -49.1931 H         1 UNK         0.3000 
    190 H190        0.0876  -23.5025  -46.1196 H         1 UNK         0.3000 
    191 H191       -2.0295  -24.1096  -46.1243 H         1 UNK         0.0600 
    192 H192       -2.6719  -26.2676  -47.1037 H         1 UNK         0.0600 
    193 H193       -1.0653  -26.4093  -46.4104 H         1 UNK         0.0600 
    194 H194       -1.2649  -26.2727  -48.1573 H         1 UNK         0.0600 
    195 H195       -1.5717  -21.8814  -47.5055 H         1 UNK         0.3000 
    196 H196       -3.4604  -21.9676  -49.8190 H         1 UNK         0.0600 
    197 H197       -2.0068  -20.2488  -50.8727 H         1 UNK         0.0600 
    198 H198       -1.0929  -21.7170  -50.5759 H         1 UNK         0.0600 
    199 H199       -0.8870  -20.3250  -49.5101 H         1 UNK         0.0600 
    200 H200       -2.9055  -20.6671  -46.7216 H         1 UNK         0.3000 
    201 H201       -4.0398  -18.0725  -47.0172 H         1 UNK         0.0600 
    202 H202       -3.8780  -19.9417  -44.5879 H         1 UNK         0.0600 
    203 H203       -4.3526  -18.2510  -44.5112 H         1 UNK         0.0600 
    204 H204       -2.7327  -18.6758  -45.0186 H         1 UNK         0.0600 
    205 H205       -5.5292  -21.2455  -46.2712 H         1 UNK         0.3000 
    206 H206       -8.0644  -20.5029  -47.3554 H         1 UNK         0.0600 
    207 H207       -8.4048  -19.5014  -45.0839 H         1 UNK         0.0600 
    208 H208       -9.3751  -20.9559  -45.2450 H         1 UNK         0.0600 
    209 H209       -7.8780  -21.0006  -44.3207 H         1 UNK         0.0600 
    210 H210       -9.0889  -22.3515  -47.9837 H         1 UNK         0.3000 
    211 H211       -9.3757  -24.4078  -48.7080 H         1 UNK         0.0600 
    212 H212       -7.9964  -25.4678  -46.1801 H         1 UNK         0.0600 
    213 H213       -9.1273  -26.3317  -47.2095 H         1 UNK         0.0600 
    214 H214       -9.6873  -24.9767  -46.2500 H         1 UNK         0.0600 
    215 H215       -8.0914  -26.6588  -49.0746 H         1 UNK         0.3000 
    216 H216       -6.6117  -27.7060  -50.3456 H         1 UNK         0.0600 
    217 H217       -5.3354  -27.8013  -48.2950 H         1 UNK         0.0600 
    218 H218       -4.6679  -26.1972  -48.5339 H         1 UNK         0.0600 
    219 H219       -4.1902  -27.5222  -49.5943 H         1 UNK         0.0600 
    220 H220       -4.1187  -25.2552  -50.3971 H         1 UNK         0.3000 
    221 H221       -4.5214  -24.8808  -53.3254 H         1 UNK         0.0600 
    222 H222       -2.1348  -24.2739  -53.3159 H         1 UNK         0.0600 
    223 H223       -2.0626  -24.3994  -51.5627 H         1 UNK         0.0600 
    224 H224       -2.3360  -25.8371  -52.5454 H         1 UNK         0.0600 
    225 H225       -6.3294  -23.5770  -51.7264 H         1 UNK         0.3000 
    226 H226       -5.8671  -21.2035  -50.5397 H         1 UNK         0.0600 
    227 H227       -8.0383  -22.3318  -50.5158 H         1 UNK         0.0600 
    228 H228       -8.2633  -20.6774  -51.0557 H         1 UNK         0.0600 
    229 H229       -8.2911  -21.9917  -52.2262 H         1 UNK         0.0600 
    230 H230       -4.6724  -19.5569  -51.1988 H         1 UNK         0.3000 
    231 H231       -3.7213  -17.9191  -52.3084 H         1 UNK         0.0600 
    232 H232       -5.1777  -16.3629  -53.5474 H         1 UNK         0.0600 
    233 H233       -6.0353  -16.9796  -52.1466 H         1 UNK         0.0600 
    234 H234       -6.4038  -17.6069  -53.7529 H         1 UNK         0.0600 
    235 H235       -3.3977  -20.6130  -53.5465 H         1 UNK         0.3000 
    236 H236       -3.4101  -20.4872  -56.3500 H         1 UNK         0.0600 
    237 H237       -1.6588  -22.1463  -54.4662 H         1 UNK         0.0600 
    238 H238       -3.2436  -22.6000  -55.0998 H         1 UNK         0.0600 
    239 H239       -1.8710  -22.4664  -56.1837 H         1 UNK         0.0600 
    240 H240       -1.1892  -18.9645  -54.1956 H         1 UNK         0.3000 
    241 H241        0.9719  -18.5533  -56.0755 H         1 UNK         0.0600 
    242 H242       -1.7646  -15.7111  -56.9263 H         1 UNK         0.3800 
    243 H243       -2.2079  -17.1042  -55.9720 H         1 UNK         0.3800 
    244 H244        1.8183  -16.9215  -54.3726 H         1 UNK         0.0800 
    245 H245        1.5559  -18.5209  -53.7584 H         1 UNK         0.0800 
    246 H246       -0.5309  -17.9348  -50.6921 H         1 UNK         0.0800 
    247 H247       -0.1248  -19.1518  -51.8836 H         1 UNK         0.0800 
@<TRIPOS>BOND
     1    1    2 1    
     2    1  127 1    
     3    1  128 1    
     4    1  129 1    
     5    2    3 2    
     6    2    4 am   BACKBONE|DICT|INTERRES
     7    4    5 1    
     8    4  130 1    
     9    5    6 1    
    10    5   65 1    
    11    5  131 1    
    12    6    7 1    
    13    6  132 1    
    14    6  133 1    
    15    7    8 1    
    16    8    9 1    
    17    8  134 1    
    18    8  135 1    
    19    9   10 ar   
    20    9   14 ar   
    21   10   11 ar   
    22   10  136 1    
    23   11   12 ar   
    24   11  126 1    
    25   12   13 ar   
    26   12  137 1    
    27   13   14 ar   
    28   13   15 1    
    29   14  138 1    
    30   15   16 1    
    31   15  139 1    
    32   15  140 1    
    33   16   17 1    
    34   17   18 1    
    35   17  141 1    
    36   17  142 1    
    37   18   19 1    
    38   18   67 1    
    39   18  143 1    
    40   19   20 am   BACKBONE|DICT|INTERRES
    41   19  144 1    
    42   20   21 2    
    43   20   22 1    
    44   22   23 1    
    45   22   24 1    
    46   22  145 1    
    47   23  146 1    
    48   23  147 1    
    49   23  148 1    
    50   24   25 am   BACKBONE|DICT|INTERRES
    51   24  149 1    
    52   25   26 2    
    53   25   27 1    
    54   27   28 1    
    55   27   29 1    
    56   27  150 1    
    57   28  151 1    
    58   28  152 1    
    59   28  153 1    
    60   29   30 am   BACKBONE|DICT|INTERRES
    61   29  154 1    
    62   30   31 2    
    63   30   32 1    
    64   32   33 1    
    65   32   34 1    
    66   32  155 1    
    67   33  156 1    
    68   33  157 1    
    69   33  158 1    
    70   34   35 am   BACKBONE|DICT|INTERRES
    71   34  159 1    
    72   35   36 2    
    73   35   37 1    
    74   37   38 1    
    75   37   39 1    
    76   37  160 1    
    77   38  161 1    
    78   38  162 1    
    79   38  163 1    
    80   39   40 am   BACKBONE|DICT|INTERRES
    81   39  164 1    
    82   40   41 2    
    83   40   42 1    
    84   42   43 1    
    85   42   44 1    
    86   42  165 1    
    87   43  166 1    
    88   43  167 1    
    89   43  168 1    
    90   44   45 am   BACKBONE|DICT|INTERRES
    91   44  169 1    
    92   45   46 2    
    93   45   47 1    
    94   47   48 1    
    95   47   49 1    
    96   47  170 1    
    97   48  171 1    
    98   48  172 1    
    99   48  173 1    
   100   49   50 am   BACKBONE|DICT|INTERRES
   101   49  174 1    
   102   50   51 2    
   103   50   52 1    
   104   52   53 1    
   105   52   54 1    
   106   52  175 1    
   107   53  176 1    
   108   53  177 1    
   109   53  178 1    
   110   54   55 am   BACKBONE|DICT|INTERRES
   111   54  179 1    
   112   55   56 2    
   113   55   57 1    
   114   57   58 1    
   115   57   59 1    
   116   57  180 1    
   117   58  181 1    
   118   58  182 1    
   119   58  183 1    
   120   59   60 am   BACKBONE|DICT|INTERRES
   121   59  184 1    
   122   60   61 2    
   123   60   62 1    
   124   62   63 1    
   125   62   64 1    
   126   62  185 1    
   127   63  186 1    
   128   63  187 1    
   129   63  188 1    
   130   64   65 am   BACKBONE|DICT|INTERRES
   131   64  189 1    
   132   65   66 2    
   133   67   68 2    
   134   67   69 am   BACKBONE|DICT|INTERRES
   135   69   70 1    
   136   69  190 1    
   137   70   71 1    
   138   70   72 1    
   139   70  191 1    
   140   71  192 1    
   141   71  193 1    
   142   71  194 1    
   143   72   73 2    
   144   72   74 am   BACKBONE|DICT|INTERRES
   145   74   75 1    
   146   74  195 1    
   147   75   76 1    
   148   75   77 1    
   149   75  196 1    
   150   76  197 1    
   151   76  198 1    
   152   76  199 1    
   153   77   78 2    
   154   77   79 am   BACKBONE|DICT|INTERRES
   155   79   80 1    
   156   79  200 1    
   157   80   81 1    
   158   80   82 1    
   159   80  201 1    
   160   81  202 1    
   161   81  203 1    
   162   81  204 1    
   163   82   83 2    
   164   82   84 am   BACKBONE|DICT|INTERRES
   165   84   85 1    
   166   84  205 1    
   167   85   86 1    
   168   85   87 1    
   169   85  206 1    
   170   86  207 1    
   171   86  208 1    
   172   86  209 1    
   173   87   88 2    
   174   87   89 am   BACKBONE|DICT|INTERRES
   175   89   90 1    
   176   89  210 1    
   177   90   91 1    
   178   90   92 1    
   179   90  211 1    
   180   91  212 1    
   181   91  213 1    
   182   91  214 1    
   183   92   93 2    
   184   92   94 am   BACKBONE|DICT|INTERRES
   185   94   95 1    
   186   94  215 1    
   187   95   96 1    
   188   95   97 1    
   189   95  216 1    
   190   96  217 1    
   191   96  218 1    
   192   96  219 1    
   193   97   98 2    
   194   97   99 am   BACKBONE|DICT|INTERRES
   195   99  100 1    
   196   99  220 1    
   197  100  101 1    
   198  100  102 1    
   199  100  221 1    
   200  101  222 1    
   201  101  223 1    
   202  101  224 1    
   203  102  103 2    
   204  102  104 am   BACKBONE|DICT|INTERRES
   205  104  105 1    
   206  104  225 1    
   207  105  106 1    
   208  105  107 1    
   209  105  226 1    
   210  106  227 1    
   211  106  228 1    
   212  106  229 1    
   213  107  108 2    
   214  107  109 am   BACKBONE|DICT|INTERRES
   215  109  110 1    
   216  109  230 1    
   217  110  111 1    
   218  110  112 1    
   219  110  231 1    
   220  111  232 1    
   221  111  233 1    
   222  111  234 1    
   223  112  113 2    
   224  112  114 am   BACKBONE|DICT|INTERRES
   225  114  115 1    
   226  114  235 1    
   227  115  116 1    
   228  115  117 1    
   229  115  236 1    
   230  116  237 1    
   231  116  238 1    
   232  116  239 1    
   233  117  118 2    
   234  117  119 am   BACKBONE|DICT|INTERRES
   235  119  120 1    
   236  119  240 1    
   237  120  121 1    
   238  120  124 1    
   239  120  241 1    
   240  121  122 am   BACKBONE|DICT|INTERRES
   241  121  123 2    
   242  122  242 1    
   243  122  243 1    
   244  124  125 1    
   245  124  244 1    
   246  124  245 1    
   247  125  126 1    
   248  126  246 1    
   249  126  247 1    
@<TRIPOS>SUBSTRUCTURE
     1 UNK         1 GROUP             0       ****    0 ROOT    
