@<TRIPOS>MOLECULE
3R540
247   249    1
SMALL
USER_CHARGES


@<TRIPOS>ATOM
      1 CA         -1.9675  -14.4581  -44.4028 C.3       0 UNK        -0.1800 
      2 C          -1.5076  -13.4324  -45.4301 C.2       0 UNK         0.5000 
      3 O          -1.7696  -12.2409  -45.2698 O.2       0 UNK        -0.5000 
      4 N          -0.8175  -13.8915  -46.4814 N.am      1 UNK        -0.5000 
      5 CA         -0.3110  -13.0652  -47.5881 C.3       1 UNK         0.1400 
      6 C6         -0.1842  -13.8809  -48.9009 C.3       23 UNK        -0.0398 
      7 S7         -1.7895  -14.4911  -49.5267 S.3       23 UNK        -0.2404 
      8 C8         -1.7700  -16.2518  -49.0615 C.3       23 UNK        -0.0205 
      9 C9         -0.7258  -17.0504  -49.8273 C.ar      23 UNK        -0.0193 
     10 C10        -0.9739  -17.4751  -51.1370 C.ar      23 UNK        -0.1150 
     11 C11        -0.0165  -18.2181  -51.8386 C.ar      23 UNK        -0.0193 
     12 C12         1.1917  -18.5377  -51.2120 C.ar      23 UNK        -0.1150 
     13 C13         1.4446  -18.1306  -49.8993 C.ar      23 UNK        -0.0193 
     14 C14         0.4826  -17.3876  -49.2126 C.ar      23 UNK        -0.1150 
     15 C15         2.7601  -18.4935  -49.2300 C.3       23 UNK        -0.0205 
     16 S16         2.7123  -20.1624  -48.5060 S.3       23 UNK        -0.2404 
     17 C17         1.8312  -19.8730  -46.9353 C.3       23 UNK        -0.0398 
     18 CA          0.7380  -20.9344  -46.6591 C.3       11 UNK         0.1400 
     19 N           0.5683  -21.1698  -45.2250 N.am      11 UNK        -0.5000 
     20 C          -0.1594  -22.1579  -44.6879 C.2       10 UNK         0.5000 
     21 O          -0.7234  -23.0314  -45.3473 O.2       10 UNK        -0.5000 
     22 CA         -0.3319  -22.1213  -43.1590 C.3       10 UNK         0.1400 
     23 CB          0.8757  -22.7490  -42.4471 C.3       10 UNK        -0.1800 
     24 N          -0.5388  -20.7550  -42.6742 N.am      10 UNK        -0.5000 
     25 C          -1.6474  -20.0392  -42.9115 C.2       9 UNK         0.5000 
     26 O          -2.6300  -20.4854  -43.5028 O.2       9 UNK        -0.5000 
     27 CA         -1.6441  -18.5709  -42.4497 C.3       9 UNK         0.1400 
     28 CB         -2.0665  -18.4702  -40.9772 C.3       9 UNK        -0.1800 
     29 N          -0.3464  -17.9189  -42.6398 N.am      9 UNK        -0.5000 
     30 C           0.1961  -17.6586  -43.8380 C.2       8 UNK         0.5000 
     31 O          -0.3615  -17.9011  -44.9054 O.2       8 UNK        -0.5000 
     32 CA          1.6121  -17.0644  -43.8680 C.3       8 UNK         0.1400 
     33 CB          1.5611  -15.5366  -43.7560 C.3       8 UNK        -0.1800 
     34 N           2.4901  -17.6048  -42.8343 N.am      8 UNK        -0.5000 
     35 C           2.8646  -18.8873  -42.7382 C.2       7 UNK         0.5000 
     36 O           2.4560  -19.7756  -43.4860 O.2       7 UNK        -0.5000 
     37 CA          3.8422  -19.2324  -41.6054 C.3       7 UNK         0.1400 
     38 CB          5.2789  -18.8496  -41.9932 C.3       7 UNK        -0.1800 
     39 N           3.4725  -18.5424  -40.3720 N.am      7 UNK        -0.5000 
     40 C           2.5884  -19.0117  -39.4824 C.2       6 UNK         0.5000 
     41 O           2.0422  -20.1118  -39.5740 O.2       6 UNK        -0.5000 
     42 CA          2.2390  -18.0875  -38.2993 C.3       6 UNK         0.1400 
     43 CB          3.2233  -18.3005  -37.1394 C.3       6 UNK        -0.1800 
     44 N           2.2131  -16.6659  -38.6538 N.am      6 UNK        -0.5000 
     45 C           1.3496  -16.1174  -39.5189 C.2       5 UNK         0.5000 
     46 O           0.4930  -16.7562  -40.1279 O.2       5 UNK        -0.5000 
     47 CA          1.4853  -14.6073  -39.7804 C.3       5 UNK         0.1400 
     48 CB          0.7538  -13.8074  -38.6925 C.3       5 UNK        -0.1800 
     49 N           2.8562  -14.1030  -39.9051 N.am      5 UNK        -0.5000 
     50 C           3.8422  -14.6058  -40.6602 C.2       4 UNK         0.5000 
     51 O           3.7844  -15.6937  -41.2343 O.2       4 UNK        -0.5000 
     52 CA          5.0787  -13.7028  -40.8412 C.3       4 UNK         0.1400 
     53 CB          6.2411  -14.4326  -41.5385 C.3       4 UNK        -0.1800 
     54 N           4.7338  -12.5142  -41.6233 N.am      4 UNK        -0.5000 
     55 C           4.0593  -11.4490  -41.1683 C.2       3 UNK         0.5000 
     56 O           3.7246  -11.3122  -39.9901 O.2       3 UNK        -0.5000 
     57 CA          3.6752  -10.3640  -42.1937 C.3       3 UNK         0.1400 
     58 CB          4.6499   -9.1794  -42.1087 C.3       3 UNK        -0.1800 
     59 N           3.6244  -10.8389  -43.5806 N.am      3 UNK        -0.5000 
     60 C           2.7068  -11.6808  -44.0746 C.2       2 UNK         0.5000 
     61 O           1.8111  -12.1984  -43.4025 O.2       2 UNK        -0.5000 
     62 CA          2.8269  -12.0008  -45.5717 C.3       2 UNK         0.1400 
     63 CB          3.9808  -12.9821  -45.8440 C.3       2 UNK        -0.1800 
     64 N           1.5758  -12.5804  -46.0523 N.am      2 UNK        -0.5000 
     65 C           1.0277  -12.3607  -47.2539 C.2       1 UNK         0.5000 
     66 O           1.5469  -11.6336  -48.1024 O.2       1 UNK        -0.5000 
     67 C          -0.6069  -20.6016  -47.3428 C.2       11 UNK         0.5000 
     68 O          -0.9120  -21.1787  -48.3840 O.2       11 UNK        -0.5000 
     69 N          -1.4206  -19.7429  -46.7094 N.am      12 UNK        -0.5000 
     70 CA         -2.7783  -19.3987  -47.1350 C.3       12 UNK         0.1400 
     71 CB         -3.3352  -18.2703  -46.2530 C.3       12 UNK        -0.1800 
     72 C          -3.7373  -20.6029  -47.1302 C.2       12 UNK         0.5000 
     73 O          -4.5330  -20.7411  -48.0577 O.2       12 UNK        -0.5000 
     74 N          -3.6341  -21.4685  -46.1119 N.am      13 UNK        -0.5000 
     75 CA         -4.3972  -22.7147  -46.0158 C.3       13 UNK         0.1400 
     76 CB         -4.2045  -23.3413  -44.6269 C.3       13 UNK        -0.1800 
     77 C          -4.0328  -23.7116  -47.1316 C.2       13 UNK         0.5000 
     78 O          -4.9294  -24.3001  -47.7367 O.2       13 UNK        -0.5000 
     79 N          -2.7305  -23.8441  -47.4213 N.am      14 UNK        -0.5000 
     80 CA         -2.2119  -24.6361  -48.5380 C.3       14 UNK         0.1400 
     81 CB         -0.6834  -24.7425  -48.4294 C.3       14 UNK        -0.1800 
     82 C          -2.6328  -24.0693  -49.9078 C.2       14 UNK         0.5000 
     83 O          -3.0005  -24.8367  -50.7953 O.2       14 UNK        -0.5000 
     84 N          -2.6113  -22.7375  -50.0405 N.am      15 UNK        -0.5000 
     85 CA         -3.0477  -21.9954  -51.2222 C.3       15 UNK         0.1400 
     86 CB         -2.6615  -20.5242  -51.0501 C.3       15 UNK        -0.1800 
     87 C          -4.5553  -22.1219  -51.5041 C.2       15 UNK         0.5000 
     88 O          -4.9491  -22.1889  -52.6683 O.2       15 UNK        -0.5000 
     89 N          -5.3714  -22.1748  -50.4435 N.am      16 UNK        -0.5000 
     90 CA         -6.8127  -22.4151  -50.5210 C.3       16 UNK         0.1400 
     91 CB         -7.4594  -22.0677  -49.1716 C.3       16 UNK        -0.1800 
     92 C          -7.1493  -23.8619  -50.9304 C.2       16 UNK         0.5000 
     93 O          -8.1568  -24.0837  -51.6025 O.2       16 UNK        -0.5000 
     94 N          -6.2984  -24.8149  -50.5275 N.am      17 UNK        -0.5000 
     95 CA         -6.4090  -26.2344  -50.8652 C.3       17 UNK         0.1400 
     96 CB         -5.6587  -27.0526  -49.8020 C.3       17 UNK        -0.1800 
     97 C          -5.8895  -26.5734  -52.2785 C.2       17 UNK         0.5000 
     98 O          -6.1724  -27.6669  -52.7717 O.2       17 UNK        -0.5000 
     99 N          -5.1289  -25.6599  -52.8976 N.am      18 UNK        -0.5000 
    100 CA        -4.5496  -25.8077  -54.2330 C.3       18 UNK         0.1400 
    101 CB        -3.5096  -24.6970  -54.4541 C.3       18 UNK        -0.1800 
    102 C         -5.6103  -25.7799  -55.3506 C.2       18 UNK         0.5000 
    103 O         -6.7253  -25.2890  -55.1500 O.2       18 UNK        -0.5000 
    104 N         -5.2261  -26.2841  -56.5298 N.am      19 UNK        -0.5000 
    105 CA        -6.0384  -26.3291  -57.7470 C.3       19 UNK         0.1400 
    106 CB        -5.4570  -27.4019  -58.6860 C.3       19 UNK        -0.1800 
    107 C         -6.1466  -24.9435  -58.4207 C.2       19 UNK         0.5000 
    108 O         -5.6222  -24.7432  -59.5183 O.2       19 UNK        -0.5000 
    109 N         -6.8224  -24.0154  -57.7316 N.am      20 UNK        -0.5000 
    110 CA        -7.0451  -22.6142  -58.0951 C.3       20 UNK         0.1400 
    111 CB        -7.9286  -22.5091  -59.3597 C.3       20 UNK        -0.1800 
    112 C         -5.7270  -21.8111  -58.1692 C.2       20 UNK         0.5000 
    113 O         -4.8188  -22.0626  -57.3713 O.2       20 UNK        -0.5000 
    114 N         -5.6611  -20.8363  -59.0892 N.am      21 UNK        -0.5000 
    115 CA        -4.5799  -19.8631  -59.2720 C.3       21 UNK         0.1400 
    116 CB        -3.2981  -20.5567  -59.7888 C.3       21 UNK        -0.1800 
    117 C         -4.3842  -19.0204  -57.9939 C.2       21 UNK         0.5000 
    118 O         -5.3040  -18.2940  -57.6123 O.2       21 UNK        -0.5000 
    119 N         -3.2186  -19.1431  -57.3491 N.am      22 UNK        -0.5000 
    120 CA        -2.9239  -18.5562  -56.0333 C.3       22 UNK         0.1400 
    121 C         -3.6967  -19.2340  -54.8583 C.2       22 UNK         0.5000 
    122 N         -4.1271  -20.4862  -54.9747 N.am      22 UNK        -0.7600 
    123 O         -3.9358  -18.6007  -53.8353 O.2       22 UNK        -0.5000 
    124 C124       -1.3890  -18.5257  -55.7985 C.3       23 UNK        -0.0398 
    125 S125       -0.8404  -17.4629  -54.4151 S.3       23 UNK        -0.2404 
    126 C126       -0.3033  -18.7468  -53.2399 C.3       23 UNK        -0.0205 
    127 H127       -1.8006  -15.4786  -44.7468 H         1 UNK         0.0600 
    128 H128       -3.0329  -14.3409  -44.2052 H         1 UNK         0.0600 
    129 H129       -1.4284  -14.3201  -43.4655 H         1 UNK         0.0600 
    130 H130       -0.6324  -14.8804  -46.5561 H         1 UNK         0.3000 
    131 H131       -1.0306  -12.2645  -47.7729 H         1 UNK         0.0600 
    132 H132        0.2333  -13.2610  -49.6964 H         1 UNK         0.0800 
    133 H133        0.5176  -14.7038  -48.7737 H         1 UNK         0.0800 
    134 H134       -2.7574  -16.6754  -49.2508 H         1 UNK         0.0800 
    135 H135       -1.6033  -16.3369  -47.9883 H         1 UNK         0.0800 
    136 H136       -1.9173  -17.2371  -51.6088 H         1 UNK         0.1150 
    137 H137        1.9325  -19.1245  -51.7370 H         1 UNK         0.1150 
    138 H138        0.6735  -17.0713  -48.1973 H         1 UNK         0.1150 
    139 H139        3.5630  -18.4564  -49.9677 H         1 UNK         0.0800 
    140 H140        3.0218  -17.7618  -48.4640 H         1 UNK         0.0800 
    141 H141        1.4256  -18.8624  -46.8887 H         1 UNK         0.0800 
    142 H142        2.5955  -19.9136  -46.1584 H         1 UNK         0.0800 
    143 H143        1.0781  -21.8858  -47.0745 H         1 UNK         0.0600 
    144 H144        1.0455  -20.5286  -44.5983 H         1 UNK         0.3000 
    145 H145       -1.2161  -22.7111  -42.9079 H         1 UNK         0.0600 
    146 H146        1.8000  -22.2120  -42.6602 H         1 UNK         0.0600 
    147 H147        0.7359  -22.7555  -41.3659 H         1 UNK         0.0600 
    148 H148        1.0180  -23.7830  -42.7635 H         1 UNK         0.0600 
    149 H149        0.2397  -20.3102  -42.2095 H         1 UNK         0.3000 
    150 H150       -2.3810  -18.0328  -43.0493 H         1 UNK         0.0600 
    151 H151       -3.0318  -18.9507  -40.8124 H         1 UNK         0.0600 
    152 H152       -2.1651  -17.4297  -40.6673 H         1 UNK         0.0600 
    153 H153       -1.3419  -18.9490  -40.3171 H         1 UNK         0.0600 
    154 H154        0.1479  -17.6375  -41.7969 H         1 UNK         0.3000 
    155 H155        2.0569  -17.3161  -44.8328 H         1 UNK         0.0600 
    156 H156        1.0333  -15.2158  -42.8591 H         1 UNK         0.0600 
    157 H157        2.5613  -15.1061  -43.7252 H         1 UNK         0.0600 
    158 H158        1.0463  -15.1051  -44.6128 H         1 UNK         0.0600 
    159 H159        2.8980  -16.9307  -42.1893 H         1 UNK         0.3000 
    160 H160        3.8110  -20.3128  -41.4478 H         1 UNK         0.0600 
    161 H161        5.5840  -19.3588  -42.9083 H         1 UNK         0.0600 
    162 H162        5.9849  -19.1328  -41.2125 H         1 UNK         0.0600 
    163 H163        5.3822  -17.7772  -42.1640 H         1 UNK         0.0600 
    164 H164        3.8121  -17.5941  -40.2665 H         1 UNK         0.3000 
    165 H165        1.2403  -18.3623  -37.9533 H         1 UNK         0.0600 
    166 H166        2.9343  -17.7181  -36.2644 H         1 UNK         0.0600 
    167 H167        3.2493  -19.3482  -36.8368 H         1 UNK         0.0600 
    168 H168        4.2388  -18.0129  -37.4150 H         1 UNK         0.0600 
    169 H169        2.8979  -16.0694  -38.2131 H         1 UNK         0.3000 
    170 H170        0.9891  -14.3987  -40.7287 H         1 UNK         0.0600 
    171 H171       -0.2800  -14.1401  -38.5891 H         1 UNK         0.0600 
    172 H172        1.2346  -13.9185  -37.7198 H         1 UNK         0.0600 
    173 H173        0.7286  -12.7446  -38.9346 H         1 UNK         0.0600 
    174 H174        3.0142  -13.1740  -39.5296 H         1 UNK         0.3000 
    175 H175        5.4186  -13.3968  -39.8496 H         1 UNK         0.0600 
    176 H176        5.9734  -14.7487  -42.5478 H         1 UNK         0.0600 
    177 H177        7.1210  -13.7932  -41.6102 H         1 UNK         0.0600 
    178 H178        6.5324  -15.3242  -40.9819 H         1 UNK         0.0600 
    179 H179        4.9446  -12.5511  -42.6091 H         1 UNK         0.3000 
    180 H180        2.6794  -10.0051  -41.9250 H         1 UNK         0.0600 
    181 H181        5.6633   -9.4710  -42.3874 H         1 UNK         0.0600 
    182 H182        4.6911   -8.7783  -41.0950 H         1 UNK         0.0600 
    183 H183        4.3410   -8.3656  -42.7650 H         1 UNK         0.0600 
    184 H184        4.3272  -10.4653  -44.2027 H         1 UNK         0.3000 
    185 H185        3.0239  -11.0609  -46.0920 H         1 UNK         0.0600 
    186 H186        4.0783  -13.1858  -46.9105 H         1 UNK         0.0600 
    187 H187        4.9346  -12.5761  -45.5056 H         1 UNK         0.0600 
    188 H188        3.8305  -13.9350  -45.3368 H         1 UNK         0.0600 
    189 H189        1.0543  -13.0984  -45.3584 H         1 UNK         0.3000 
    190 H190       -1.0725  -19.2551  -45.8872 H         1 UNK         0.3000 
    191 H191       -2.7118  -19.0258  -48.1579 H         1 UNK         0.0600 
    192 H192       -3.4658  -18.5925  -45.2205 H         1 UNK         0.0600 
    193 H193       -4.3084  -17.9386  -46.6166 H         1 UNK         0.0600 
    194 H194       -2.6784  -17.4023  -46.2466 H         1 UNK         0.0600 
    195 H195       -3.0052  -21.2530  -45.3455 H         1 UNK         0.3000 
    196 H196       -5.4546  -22.4662  -46.1279 H         1 UNK         0.0600 
    197 H197       -4.7983  -24.2503  -44.5246 H         1 UNK         0.0600 
    198 H198       -4.5190  -22.6564  -43.8391 H         1 UNK         0.0600 
    199 H199       -3.1642  -23.6073  -44.4418 H         1 UNK         0.0600 
    200 H200       -2.0497  -23.3521  -46.8511 H         1 UNK         0.3000 
    201 H201       -2.6272  -25.6425  -48.4544 H         1 UNK         0.0600 
    202 H202       -0.3868  -25.1980  -47.4844 H         1 UNK         0.0600 
    203 H203       -0.2036  -23.7659  -48.4932 H         1 UNK         0.0600 
    204 H204       -0.2781  -25.3604  -49.2314 H         1 UNK         0.0600 
    205 H205       -2.2136  -22.1834  -49.2859 H         1 UNK         0.3000 
    206 H206       -2.5118  -22.3930  -52.0864 H         1 UNK         0.0600 
    207 H207       -1.5872  -20.4148  -50.9057 H         1 UNK         0.0600 
    208 H208       -2.9400  -19.9448  -51.9263 H         1 UNK         0.0600 
    209 H209       -3.1619  -20.0693  -50.1979 H         1 UNK         0.0600 
    210 H210       -4.9819  -22.0117  -49.5201 H         1 UNK         0.3000 
    211 H211       -7.2296  -21.7491  -51.2793 H         1 UNK         0.0600 
    212 H212       -7.0684  -22.6892  -48.3655 H         1 UNK         0.0600 
    213 H213       -8.5395  -22.2146  -49.2063 H         1 UNK         0.0600 
    214 H214       -7.2807  -21.0256  -48.9062 H         1 UNK         0.0600 
    215 H215       -5.5169  -24.5488  -49.9412 H         1 UNK         0.3000 
    216 H216       -7.4620  -26.5210  -50.8285 H         1 UNK         0.0600 
    217 H217       -5.7609  -28.1227  -49.9865 H         1 UNK         0.0600 
    218 H218       -6.0506  -26.8560  -48.8038 H         1 UNK         0.0600 
    219 H219       -4.5934  -26.8215  -49.7939 H         1 UNK         0.0600 
    220 H220       -4.9430  -24.7903  -52.4185 H         1 UNK         0.3000 
    221 H221       -4.0389  -26.7722  -54.2673 H         1 UNK         0.0600 
    222 H222       -3.9796  -23.7172  -54.5395 H         1 UNK         0.0600 
    223 H223       -2.7887  -24.6562  -53.6373 H         1 UNK         0.0600 
    224 H224       -2.9477  -24.8639  -55.3736 H         1 UNK         0.0600 
    225 H225       -4.2821  -26.6307  -56.6211 H         1 UNK         0.3000 
    226 H226       -7.0507  -26.6403  -57.4800 H         1 UNK         0.0600 
    227 H227       -5.4584  -28.3834  -58.2116 H         1 UNK         0.0600 
    228 H228       -6.0483  -27.4839  -59.5990 H         1 UNK         0.0600 
    229 H229       -4.4315  -27.1717  -58.9775 H         1 UNK         0.0600 
    230 H230       -7.1167  -24.2769  -56.7950 H         1 UNK         0.3000 
    231 H231       -7.6079  -22.1810  -57.2672 H         1 UNK         0.0600 
    232 H232       -8.2742  -21.4873  -59.5201 H         1 UNK         0.0600 
    233 H233       -8.8191  -23.1309  -59.2661 H         1 UNK         0.0600 
    234 H234       -7.3971  -22.8265  -60.2576 H         1 UNK         0.0600 
    235 H235       -6.4704  -20.6939  -59.6764 H         1 UNK         0.3000 
    236 H236       -4.9118  -19.1696  -60.0460 H         1 UNK         0.0600 
    237 H237       -2.5111  -19.8288  -59.9898 H         1 UNK         0.0600 
    238 H238       -3.4939  -21.0801  -60.7247 H         1 UNK         0.0600 
    239 H239       -2.9044  -21.2885  -59.0830 H         1 UNK         0.0600 
    240 H240       -2.5318  -19.7822  -57.7211 H         1 UNK         0.3000 
    241 H241       -3.2655  -17.5196  -56.0655 H         1 UNK         0.0600 
    242 H242       -4.5978  -20.9270  -54.1926 H         1 UNK         0.3800 
    243 H243       -4.0514  -20.9950  -55.8485 H         1 UNK         0.3800 
    244 H244       -1.0048  -19.5392  -55.6706 H         1 UNK         0.0800 
    245 H245       -0.8961  -18.1392  -56.6917 H         1 UNK         0.0800 
    246 H246       -1.0718  -19.5150  -53.1734 H         1 UNK         0.0800 
    247 H247        0.5803  -19.2376  -53.6509 H         1 UNK         0.0800 
@<TRIPOS>BOND
     1    1    2 1    
     2    1  127 1    
     3    1  128 1    
     4    1  129 1    
     5    2    3 2    
     6    2    4 am   BACKBONE|DICT|INTERRES
     7    4    5 1    
     8    4  130 1    
     9    5    6 1    
    10    5   65 1    
    11    5  131 1    
    12    6    7 1    
    13    6  132 1    
    14    6  133 1    
    15    7    8 1    
    16    8    9 1    
    17    8  134 1    
    18    8  135 1    
    19    9   10 ar   
    20    9   14 ar   
    21   10   11 ar   
    22   10  136 1    
    23   11   12 ar   
    24   11  126 1    
    25   12   13 ar   
    26   12  137 1    
    27   13   14 ar   
    28   13   15 1    
    29   14  138 1    
    30   15   16 1    
    31   15  139 1    
    32   15  140 1    
    33   16   17 1    
    34   17   18 1    
    35   17  141 1    
    36   17  142 1    
    37   18   19 1    
    38   18   67 1    
    39   18  143 1    
    40   19   20 am   BACKBONE|DICT|INTERRES
    41   19  144 1    
    42   20   21 2    
    43   20   22 1    
    44   22   23 1    
    45   22   24 1    
    46   22  145 1    
    47   23  146 1    
    48   23  147 1    
    49   23  148 1    
    50   24   25 am   BACKBONE|DICT|INTERRES
    51   24  149 1    
    52   25   26 2    
    53   25   27 1    
    54   27   28 1    
    55   27   29 1    
    56   27  150 1    
    57   28  151 1    
    58   28  152 1    
    59   28  153 1    
    60   29   30 am   BACKBONE|DICT|INTERRES
    61   29  154 1    
    62   30   31 2    
    63   30   32 1    
    64   32   33 1    
    65   32   34 1    
    66   32  155 1    
    67   33  156 1    
    68   33  157 1    
    69   33  158 1    
    70   34   35 am   BACKBONE|DICT|INTERRES
    71   34  159 1    
    72   35   36 2    
    73   35   37 1    
    74   37   38 1    
    75   37   39 1    
    76   37  160 1    
    77   38  161 1    
    78   38  162 1    
    79   38  163 1    
    80   39   40 am   BACKBONE|DICT|INTERRES
    81   39  164 1    
    82   40   41 2    
    83   40   42 1    
    84   42   43 1    
    85   42   44 1    
    86   42  165 1    
    87   43  166 1    
    88   43  167 1    
    89   43  168 1    
    90   44   45 am   BACKBONE|DICT|INTERRES
    91   44  169 1    
    92   45   46 2    
    93   45   47 1    
    94   47   48 1    
    95   47   49 1    
    96   47  170 1    
    97   48  171 1    
    98   48  172 1    
    99   48  173 1    
   100   49   50 am   BACKBONE|DICT|INTERRES
   101   49  174 1    
   102   50   51 2    
   103   50   52 1    
   104   52   53 1    
   105   52   54 1    
   106   52  175 1    
   107   53  176 1    
   108   53  177 1    
   109   53  178 1    
   110   54   55 am   BACKBONE|DICT|INTERRES
   111   54  179 1    
   112   55   56 2    
   113   55   57 1    
   114   57   58 1    
   115   57   59 1    
   116   57  180 1    
   117   58  181 1    
   118   58  182 1    
   119   58  183 1    
   120   59   60 am   BACKBONE|DICT|INTERRES
   121   59  184 1    
   122   60   61 2    
   123   60   62 1    
   124   62   63 1    
   125   62   64 1    
   126   62  185 1    
   127   63  186 1    
   128   63  187 1    
   129   63  188 1    
   130   64   65 am   BACKBONE|DICT|INTERRES
   131   64  189 1    
   132   65   66 2    
   133   67   68 2    
   134   67   69 am   BACKBONE|DICT|INTERRES
   135   69   70 1    
   136   69  190 1    
   137   70   71 1    
   138   70   72 1    
   139   70  191 1    
   140   71  192 1    
   141   71  193 1    
   142   71  194 1    
   143   72   73 2    
   144   72   74 am   BACKBONE|DICT|INTERRES
   145   74   75 1    
   146   74  195 1    
   147   75   76 1    
   148   75   77 1    
   149   75  196 1    
   150   76  197 1    
   151   76  198 1    
   152   76  199 1    
   153   77   78 2    
   154   77   79 am   BACKBONE|DICT|INTERRES
   155   79   80 1    
   156   79  200 1    
   157   80   81 1    
   158   80   82 1    
   159   80  201 1    
   160   81  202 1    
   161   81  203 1    
   162   81  204 1    
   163   82   83 2    
   164   82   84 am   BACKBONE|DICT|INTERRES
   165   84   85 1    
   166   84  205 1    
   167   85   86 1    
   168   85   87 1    
   169   85  206 1    
   170   86  207 1    
   171   86  208 1    
   172   86  209 1    
   173   87   88 2    
   174   87   89 am   BACKBONE|DICT|INTERRES
   175   89   90 1    
   176   89  210 1    
   177   90   91 1    
   178   90   92 1    
   179   90  211 1    
   180   91  212 1    
   181   91  213 1    
   182   91  214 1    
   183   92   93 2    
   184   92   94 am   BACKBONE|DICT|INTERRES
   185   94   95 1    
   186   94  215 1    
   187   95   96 1    
   188   95   97 1    
   189   95  216 1    
   190   96  217 1    
   191   96  218 1    
   192   96  219 1    
   193   97   98 2    
   194   97   99 am   BACKBONE|DICT|INTERRES
   195   99  100 1    
   196   99  220 1    
   197  100  101 1    
   198  100  102 1    
   199  100  221 1    
   200  101  222 1    
   201  101  223 1    
   202  101  224 1    
   203  102  103 2    
   204  102  104 am   BACKBONE|DICT|INTERRES
   205  104  105 1    
   206  104  225 1    
   207  105  106 1    
   208  105  107 1    
   209  105  226 1    
   210  106  227 1    
   211  106  228 1    
   212  106  229 1    
   213  107  108 2    
   214  107  109 am   BACKBONE|DICT|INTERRES
   215  109  110 1    
   216  109  230 1    
   217  110  111 1    
   218  110  112 1    
   219  110  231 1    
   220  111  232 1    
   221  111  233 1    
   222  111  234 1    
   223  112  113 2    
   224  112  114 am   BACKBONE|DICT|INTERRES
   225  114  115 1    
   226  114  235 1    
   227  115  116 1    
   228  115  117 1    
   229  115  236 1    
   230  116  237 1    
   231  116  238 1    
   232  116  239 1    
   233  117  118 2    
   234  117  119 am   BACKBONE|DICT|INTERRES
   235  119  120 1    
   236  119  240 1    
   237  120  121 1    
   238  120  124 1    
   239  120  241 1    
   240  121  122 am   BACKBONE|DICT|INTERRES
   241  121  123 2    
   242  122  242 1    
   243  122  243 1    
   244  124  125 1    
   245  124  244 1    
   246  124  245 1    
   247  125  126 1    
   248  126  246 1    
   249  126  247 1    
@<TRIPOS>SUBSTRUCTURE
     1 UNK         1 GROUP             0       ****    0 ROOT    
