@<TRIPOS>MOLECULE
3R540
247   249    1
SMALL
USER_CHARGES


@<TRIPOS>ATOM
      1 CA         -0.4026   -9.3317  -50.1394 C.3       0 UNK        -0.1800 
      2 C           0.7078  -10.1433  -49.4886 C.2       0 UNK         0.5000 
      3 O           1.5176   -9.5870  -48.7470 O.2       0 UNK        -0.5000 
      4 N           0.7394  -11.4589  -49.7484 N.am      1 UNK        -0.5000 
      5 CA          1.7418  -12.4083  -49.2394 C.3       1 UNK         0.1400 
      6 C6          1.5488  -13.8165  -49.8567 C.3       23 UNK        -0.0398 
      7 S7          3.0902  -14.7907  -49.8883 S.3       23 UNK        -0.2404 
      8 C8          2.4785  -16.4127  -50.4456 C.3       23 UNK        -0.0205 
      9 C9          1.7335  -17.1562  -49.3462 C.ar      23 UNK        -0.0193 
     10 C10         0.3374  -17.2087  -49.3439 C.ar      23 UNK        -0.1150 
     11 C11        -0.3458  -17.9099  -48.3462 C.ar      23 UNK        -0.0193 
     12 C12         0.3788  -18.5587  -47.3405 C.ar      23 UNK        -0.1150 
     13 C13         1.7767  -18.4941  -47.3178 C.ar      23 UNK        -0.0193 
     14 C14         2.4453  -17.8036  -48.3333 C.ar      23 UNK        -0.1150 
     15 C15         2.5735  -19.1237  -46.1818 C.3       23 UNK        -0.0205 
     16 S16         2.5590  -20.9428  -46.2334 S.3       23 UNK        -0.2404 
     17 C17         1.3482  -21.3234  -44.9237 C.3       23 UNK        -0.0398 
     18 CA          0.5671  -22.6333  -45.1831 C.3       11 UNK         0.1400 
     19 N          -0.0585  -23.1335  -43.9585 N.am      11 UNK        -0.5000 
     20 C          -0.4955  -24.3870  -43.7777 C.2       10 UNK         0.5000 
     21 O          -0.3552  -25.2874  -44.6047 O.2       10 UNK        -0.5000 
     22 CA         -1.2348  -24.6757  -42.4567 C.3       10 UNK         0.1400 
     23 CB         -0.2433  -25.1188  -41.3707 C.3       10 UNK        -0.1800 
     24 N          -2.0030  -23.5279  -41.9673 N.am      10 UNK        -0.5000 
     25 C          -3.0943  -23.0380  -42.5716 C.2       9 UNK         0.5000 
     26 O          -3.5777  -23.5137  -43.5975 O.2       9 UNK        -0.5000 
     27 CA         -3.7193  -21.7711  -41.9587 C.3       9 UNK         0.1400 
     28 CB         -4.6742  -22.1412  -40.8140 C.3       9 UNK        -0.1800 
     29 N          -2.7412  -20.7884  -41.4791 N.am      9 UNK        -0.5000 
     30 C          -1.7862  -20.2249  -42.2305 C.2       8 UNK         0.5000 
     31 O          -1.5496  -20.5531  -43.3958 O.2       8 UNK        -0.5000 
     32 CA         -0.9220  -19.1447  -41.5529 C.3       8 UNK         0.1400 
     33 CB          0.2563  -19.7976  -40.8142 C.3       8 UNK        -0.1800 
     34 N          -0.3907  -18.1813  -42.5181 N.am      8 UNK        -0.5000 
     35 C          -1.1314  -17.3623  -43.2780 C.2       7 UNK         0.5000 
     36 O          -2.3539  -17.2442  -43.1730 O.2       7 UNK        -0.5000 
     37 CA         -0.3493  -16.5431  -44.3224 C.3       7 UNK         0.1400 
     38 CB         -1.2326  -15.5873  -45.1472 C.3       7 UNK        -0.1800 
     39 N           0.8012  -15.8438  -43.7461 N.am      7 UNK        -0.5000 
     40 C           0.8078  -14.9223  -42.7737 C.2       6 UNK         0.5000 
     41 O          -0.2087  -14.4920  -42.2289 O.2       6 UNK        -0.5000 
     42 CA          2.1816  -14.3687  -42.3374 C.3       6 UNK         0.1400 
     43 CB          2.7173  -15.1386  -41.1146 C.3       6 UNK        -0.1800 
     44 N           3.1944  -14.2860  -43.4048 N.am      6 UNK        -0.5000 
     45 C           3.8134  -15.2801  -44.0598 C.2       5 UNK         0.5000 
     46 O           3.5691  -16.4719  -43.8665 O.2       5 UNK        -0.5000 
     47 CA          4.8412  -14.8956  -45.1400 C.3       5 UNK         0.1400 
     48 CB          4.5292  -15.6110  -46.4638 C.3       5 UNK        -0.1800 
     49 N           4.8869  -13.4570  -45.4047 N.am      5 UNK        -0.5000 
     50 C           5.8464  -12.6274  -44.9778 C.2       4 UNK         0.5000 
     51 O           6.7309  -12.9542  -44.1860 O.2       4 UNK        -0.5000 
     52 CA          5.8266  -11.1970  -45.5387 C.3       4 UNK         0.1400 
     53 CB          6.3923  -11.1778  -46.9682 C.3       4 UNK        -0.1800 
     54 N           4.4754  -10.6367  -45.5581 N.am      4 UNK        -0.5000 
     55 C           4.0784   -9.5768  -44.8397 C.2       3 UNK         0.5000 
     56 O           4.8066   -8.9741  -44.0498 O.2       3 UNK        -0.5000 
     57 CA          2.6285   -9.0875  -45.0354 C.3       3 UNK         0.1400 
     58 CB          2.5968   -7.8675  -45.9685 C.3       3 UNK        -0.1800 
     59 N           1.7330  -10.1161  -45.5658 N.am      3 UNK        -0.5000 
     60 C           1.3088  -11.1770  -44.8647 C.2       2 UNK         0.5000 
     61 O           1.5977  -11.3669  -43.6841 O.2       2 UNK        -0.5000 
     62 CA          0.4427  -12.2186  -45.6006 C.3       2 UNK         0.1400 
     63 CB         -1.0431  -11.9751  -45.2974 C.3       2 UNK        -0.1800 
     64 N           0.6274  -12.2517  -47.0529 N.am      2 UNK        -0.5000 
     65 C           1.7834  -12.4732  -47.6960 C.2       1 UNK         0.5000 
     66 O           2.8557  -12.6585  -47.1195 O.2       1 UNK        -0.5000 
     67 C          -0.4898  -22.4660  -46.2906 C.2       11 UNK         0.5000 
     68 O          -0.2756  -22.9240  -47.4123 O.2       11 UNK        -0.5000 
     69 N          -1.6316  -21.8595  -45.9342 N.am      12 UNK        -0.5000 
     70 CA         -2.7758  -21.6488  -46.8174 C.3       12 UNK         0.1400 
     71 CB         -3.8278  -20.7882  -46.1031 C.3       12 UNK        -0.1800 
     72 C          -3.3853  -22.9637  -47.3318 C.2       12 UNK         0.5000 
     73 O          -3.6540  -23.0764  -48.5250 O.2       12 UNK        -0.5000 
     74 N          -3.5322  -23.9568  -46.4437 N.am      13 UNK        -0.5000 
     75 CA         -4.0148  -25.3026  -46.7665 C.3       13 UNK         0.1400 
     76 CB         -4.1943  -26.0981  -45.4647 C.3       13 UNK        -0.1800 
     77 C          -3.1072  -26.0789  -47.7432 C.2       13 UNK         0.5000 
     78 O          -3.5963  -26.9584  -48.4524 O.2       13 UNK        -0.5000 
     79 N          -1.8116  -25.7434  -47.7624 N.am      14 UNK        -0.5000 
     80 CA         -0.8002  -26.3439  -48.6299 C.3       14 UNK         0.1400 
     81 CB          0.5243  -26.4100  -47.8507 C.3       14 UNK        -0.1800 
     82 C          -0.6137  -25.5835  -49.9592 C.2       14 UNK         0.5000 
     83 O           0.1756  -26.0337  -50.7921 O.2       14 UNK        -0.5000 
     84 N          -1.2983  -24.4444  -50.1388 N.am      15 UNK        -0.5000 
     85 CA         -1.1682  -23.5805  -51.3118 C.3       15 UNK         0.1400 
     86 CB         -1.7605  -22.2006  -50.9931 C.3       15 UNK        -0.1800 
     87 C          -1.8069  -24.1757  -52.5811 C.2       15 UNK         0.5000 
     88 O          -2.6077  -25.1140  -52.5110 O.2       15 UNK        -0.5000 
     89 N          -1.4306  -23.5924  -53.7259 N.am      16 UNK        -0.5000 
     90 CA         -1.8667  -23.9684  -55.0699 C.3       16 UNK         0.1400 
     91 CB         -1.1222  -23.0889  -56.0874 C.3       16 UNK        -0.1800 
     92 C          -3.3902  -23.8772  -55.2847 C.2       16 UNK         0.5000 
     93 O          -4.0899  -23.1787  -54.5452 O.2       16 UNK        -0.5000 
     94 N          -3.8620  -24.5977  -56.3125 N.am      17 UNK        -0.5000 
     95 CA         -5.2648  -24.7308  -56.7240 C.3       17 UNK         0.1400 
     96 CB         -5.8086  -23.3835  -57.2466 C.3       17 UNK        -0.1800 
     97 C          -6.1515  -25.3627  -55.6291 C.2       17 UNK         0.5000 
     98 O          -7.3234  -25.0082  -55.5057 O.2       17 UNK        -0.5000 
     99 N          -5.5611  -26.2789  -54.8441 N.am      18 UNK        -0.5000 
    100 CA        -6.1350  -26.9353  -53.6646 C.3       18 UNK         0.1400 
    101 CB        -7.2764  -27.8929  -54.0675 C.3       18 UNK        -0.1800 
    102 C         -6.5497  -25.9047  -52.5951 C.2       18 UNK         0.5000 
    103 O         -7.7211  -25.8312  -52.2215 O.2       18 UNK        -0.5000 
    104 N         -5.5685  -25.0959  -52.1698 N.am      19 UNK        -0.5000 
    105 CA        -5.6402  -23.9958  -51.2006 C.3       19 UNK         0.1400 
    106 CB        -6.2839  -24.4475  -49.8730 C.3       19 UNK        -0.1800 
    107 C         -6.2943  -22.7023  -51.7279 C.2       19 UNK         0.5000 
    108 O         -6.1668  -21.6674  -51.0727 O.2       19 UNK        -0.5000 
    109 N         -6.9639  -22.7500  -52.8894 N.am      20 UNK        -0.5000 
    110 CA        -7.7388  -21.6406  -53.4554 C.3       20 UNK         0.1400 
    111 CB        -8.6125  -22.1575  -54.6074 C.3       20 UNK        -0.1800 
    112 C         -6.9029  -20.4259  -53.9056 C.2       20 UNK         0.5000 
    113 O         -7.4752  -19.3541  -54.1097 O.2       20 UNK        -0.5000 
    114 N         -5.5780  -20.5881  -54.0382 N.am      21 UNK        -0.5000 
    115 CA        -4.6352  -19.4921  -54.2745 C.3       21 UNK         0.1400 
    116 CB        -3.2556  -20.0736  -54.6145 C.3       21 UNK        -0.1800 
    117 C         -4.5296  -18.5022  -53.0940 C.2       21 UNK         0.5000 
    118 O         -4.1725  -17.3444  -53.3175 O.2       21 UNK        -0.5000 
    119 N         -4.8464  -18.9602  -51.8765 N.am      22 UNK        -0.5000 
    120 CA        -4.9156  -18.1406  -50.6597 C.3       22 UNK         0.1400 
    121 C         -6.3802  -17.7263  -50.3574 C.2       22 UNK         0.5000 
    122 N         -6.5924  -16.5291  -49.8275 N.am      22 UNK        -0.7600 
    123 O         -7.3248  -18.4853  -50.5610 O.2       22 UNK        -0.5000 
    124 C124       -4.2934  -18.8791  -49.4497 C.3       23 UNK        -0.0398 
    125 S125       -2.4896  -19.0682  -49.6404 S.3       23 UNK        -0.2404 
    126 C126       -1.8661  -17.9461  -48.3536 C.3       23 UNK        -0.0205 
    127 H127       -1.0493   -9.9524  -50.7600 H         1 UNK         0.0600 
    128 H128        0.0242   -8.5501  -50.7679 H         1 UNK         0.0600 
    129 H129       -1.0175   -8.8575  -49.3745 H         1 UNK         0.0600 
    130 H130        0.0387  -11.8487  -50.3629 H         1 UNK         0.3000 
    131 H131        2.7102  -12.0217  -49.5645 H         1 UNK         0.0600 
    132 H132        1.2167  -13.7291  -50.8922 H         1 UNK         0.0800 
    133 H133        0.7662  -14.3707  -49.3359 H         1 UNK         0.0800 
    134 H134        1.8456  -16.2839  -51.3250 H         1 UNK         0.0800 
    135 H135        3.3288  -17.0140  -50.7705 H         1 UNK         0.0800 
    136 H136       -0.2217  -16.7110  -50.1238 H         1 UNK         0.1150 
    137 H137       -0.1468  -19.1008  -46.5677 H         1 UNK         0.1150 
    138 H138        3.5249  -17.7532  -48.3312 H         1 UNK         0.1150 
    139 H139        3.6145  -18.8033  -46.2299 H         1 UNK         0.0800 
    140 H140        2.2023  -18.7586  -45.2235 H         1 UNK         0.0800 
    141 H141        0.6673  -20.4832  -44.7842 H         1 UNK         0.0800 
    142 H142        1.9102  -21.4076  -43.9925 H         1 UNK         0.0800 
    143 H143        1.2798  -23.3911  -45.5172 H         1 UNK         0.0600 
    144 H144       -0.2878  -22.4412  -43.2595 H         1 UNK         0.3000 
    145 H145       -1.9306  -25.4973  -42.6404 H         1 UNK         0.0600 
    146 H146       -0.7620  -25.4002  -40.4541 H         1 UNK         0.0600 
    147 H147        0.3307  -25.9870  -41.6974 H         1 UNK         0.0600 
    148 H148        0.4674  -24.3282  -41.1262 H         1 UNK         0.0600 
    149 H149       -1.6691  -23.0742  -41.1297 H         1 UNK         0.3000 
    150 H150       -4.3050  -21.2874  -42.7428 H         1 UNK         0.0600 
    151 H151       -4.1424  -22.5895  -39.9739 H         1 UNK         0.0600 
    152 H152       -5.4250  -22.8588  -41.1481 H         1 UNK         0.0600 
    153 H153       -5.2073  -21.2647  -40.4455 H         1 UNK         0.0600 
    154 H154       -2.8546  -20.4784  -40.5247 H         1 UNK         0.3000 
    155 H155       -1.5381  -18.6009  -40.8340 H         1 UNK         0.0600 
    156 H156        0.9067  -20.3455  -41.4976 H         1 UNK         0.0600 
    157 H157       -0.0942  -20.5022  -40.0590 H         1 UNK         0.0600 
    158 H158        0.8626  -19.0507  -40.3012 H         1 UNK         0.0600 
    159 H159        0.6068  -18.2012  -42.6664 H         1 UNK         0.3000 
    160 H160        0.0675  -17.2720  -45.0132 H         1 UNK         0.0600 
    161 H161       -1.6828  -14.8153  -44.5234 H         1 UNK         0.0600 
    162 H162       -2.0443  -16.1289  -45.6341 H         1 UNK         0.0600 
    163 H163       -0.6560  -15.1014  -45.9339 H         1 UNK         0.0600 
    164 H164        1.7152  -16.1592  -44.0588 H         1 UNK         0.3000 
    165 H165        2.0103  -13.3414  -42.0145 H         1 UNK         0.0600 
    166 H166        3.6620  -14.7199  -40.7677 H         1 UNK         0.0600 
    167 H167        2.0131  -15.0832  -40.2835 H         1 UNK         0.0600 
    168 H168        2.8768  -16.1950  -41.3316 H         1 UNK         0.0600 
    169 H169        3.4426  -13.3449  -43.6770 H         1 UNK         0.3000 
    170 H170        5.8156  -15.2452  -44.7931 H         1 UNK         0.0600 
    171 H171        4.6283  -16.6902  -46.3549 H         1 UNK         0.0600 
    172 H172        3.5139  -15.4027  -46.8043 H         1 UNK         0.0600 
    173 H173        5.2152  -15.3043  -47.2536 H         1 UNK         0.0600 
    174 H174        4.1839  -13.1141  -46.0582 H         1 UNK         0.3000 
    175 H175        6.4870  -10.5943  -44.9118 H         1 UNK         0.0600 
    176 H176        5.7733  -11.7559  -47.6559 H         1 UNK         0.0600 
    177 H177        6.4545  -10.1592  -47.3514 H         1 UNK         0.0600 
    178 H178        7.3983  -11.5983  -46.9972 H         1 UNK         0.0600 
    179 H179        3.8031  -11.0949  -46.1625 H         1 UNK         0.3000 
    180 H180        2.2515   -8.7767  -44.0587 H         1 UNK         0.0600 
    181 H181        3.2018   -7.0533  -45.5676 H         1 UNK         0.0600 
    182 H182        1.5820   -7.4886  -46.0910 H         1 UNK         0.0600 
    183 H183        2.9871   -8.1087  -46.9579 H         1 UNK         0.0600 
    184 H184        1.4790  -10.0354  -46.5433 H         1 UNK         0.3000 
    185 H185        0.7220  -13.2008  -45.2175 H         1 UNK         0.0600 
    186 H186       -1.2383  -12.0485  -44.2265 H         1 UNK         0.0600 
    187 H187       -1.3619  -10.9843  -45.6237 H         1 UNK         0.0600 
    188 H188       -1.6783  -12.7085  -45.7937 H         1 UNK         0.0600 
    189 H189       -0.1939  -12.0716  -47.6115 H         1 UNK         0.3000 
    190 H190       -1.7131  -21.4943  -44.9882 H         1 UNK         0.3000 
    191 H191       -2.4116  -21.0986  -47.6841 H         1 UNK         0.0600 
    192 H192       -3.4070  -19.8359  -45.7797 H         1 UNK         0.0600 
    193 H193       -4.6657  -20.5682  -46.7656 H         1 UNK         0.0600 
    194 H194       -4.2282  -21.2917  -45.2233 H         1 UNK         0.0600 
    195 H195       -3.3374  -23.7712  -45.4629 H         1 UNK         0.3000 
    196 H196       -4.9933  -25.1991  -47.2376 H         1 UNK         0.0600 
    197 H197       -4.5569  -27.1067  -45.6668 H         1 UNK         0.0600 
    198 H198       -4.9200  -25.6193  -44.8072 H         1 UNK         0.0600 
    199 H199       -3.2545  -26.1884  -44.9184 H         1 UNK         0.0600 
    200 H200       -1.4950  -24.9928  -47.1628 H         1 UNK         0.3000 
    201 H201       -1.0925  -27.3655  -48.8807 H         1 UNK         0.0600 
    202 H202        1.3026  -26.9005  -48.4365 H         1 UNK         0.0600 
    203 H203        0.4096  -26.9765  -46.9263 H         1 UNK         0.0600 
    204 H204        0.8873  -25.4156  -47.5889 H         1 UNK         0.0600 
    205 H205       -1.9513  -24.1433  -49.4261 H         1 UNK         0.3000 
    206 H206       -0.1013  -23.4490  -51.5040 H         1 UNK         0.0600 
    207 H207       -1.3502  -21.8072  -50.0627 H         1 UNK         0.0600 
    208 H208       -1.5285  -21.4791  -51.7767 H         1 UNK         0.0600 
    209 H209       -2.8450  -22.2308  -50.8943 H         1 UNK         0.0600 
    210 H210       -0.7940  -22.8111  -53.6777 H         1 UNK         0.3000 
    211 H211       -1.5697  -25.0074  -55.2259 H         1 UNK         0.0600 
    212 H212       -1.3378  -22.0306  -55.9398 H         1 UNK         0.0600 
    213 H213       -1.4025  -23.3401  -57.1111 H         1 UNK         0.0600 
    214 H214       -0.0431  -23.2234  -56.0089 H         1 UNK         0.0600 
    215 H215       -3.2026  -25.1309  -56.8626 H         1 UNK         0.3000 
    216 H216       -5.2763  -25.4333  -57.5584 H         1 UNK         0.0600 
    217 H217       -6.8165  -23.4945  -57.6478 H         1 UNK         0.0600 
    218 H218       -5.1833  -22.9938  -58.0497 H         1 UNK         0.0600 
    219 H219       -5.8491  -22.6282  -56.4618 H         1 UNK         0.0600 
    220 H220       -4.5891  -26.4847  -55.0251 H         1 UNK         0.3000 
    221 H221       -5.3403  -27.5390  -53.2234 H         1 UNK         0.0600 
    222 H222       -8.1263  -27.3608  -54.4956 H         1 UNK         0.0600 
    223 H223       -6.9360  -28.6243  -54.8005 H         1 UNK         0.0600 
    224 H224       -7.6418  -28.4465  -53.2019 H         1 UNK         0.0600 
    225 H225       -4.6406  -25.2241  -52.5637 H         1 UNK         0.3000 
    226 H226       -4.6030  -23.7423  -50.9853 H         1 UNK         0.0600 
    227 H227       -7.3526  -24.6345  -49.9752 H         1 UNK         0.0600 
    228 H228       -5.8150  -25.3571  -49.4993 H         1 UNK         0.0600 
    229 H229       -6.1709  -23.6809  -49.1063 H         1 UNK         0.0600 
    230 H230       -7.0042  -23.6297  -53.3859 H         1 UNK         0.3000 
    231 H231       -8.4071  -21.2850  -52.6684 H         1 UNK         0.0600 
    232 H232       -8.0112  -22.4557  -55.4649 H         1 UNK         0.0600 
    233 H233       -9.3026  -21.3853  -54.9492 H         1 UNK         0.0600 
    234 H234       -9.2109  -23.0154  -54.3000 H         1 UNK         0.0600 
    235 H235       -5.1814  -21.5153  -53.9215 H         1 UNK         0.3000 
    236 H236       -4.9861  -18.9279  -55.1410 H         1 UNK         0.0600 
    237 H237       -2.5238  -19.2824  -54.7816 H         1 UNK         0.0600 
    238 H238       -2.8786  -20.7085  -53.8119 H         1 UNK         0.0600 
    239 H239       -3.3009  -20.6703  -55.5252 H         1 UNK         0.0600 
    240 H240       -5.2017  -19.9052  -51.7821 H         1 UNK         0.3000 
    241 H241       -4.3446  -17.2222  -50.8108 H         1 UNK         0.0600 
    242 H242       -5.8375  -15.8857  -49.6458 H         1 UNK         0.3800 
    243 H243       -7.5380  -16.2518  -49.6137 H         1 UNK         0.3800 
    244 H244       -4.4977  -18.3458  -48.5196 H         1 UNK         0.0800 
    245 H245       -4.7365  -19.8702  -49.3347 H         1 UNK         0.0800 
    246 H246       -2.2530  -16.9409  -48.5274 H         1 UNK         0.0800 
    247 H247       -2.2448  -18.2630  -47.3809 H         1 UNK         0.0800 
@<TRIPOS>BOND
     1    1    2 1    
     2    1  127 1    
     3    1  128 1    
     4    1  129 1    
     5    2    3 2    
     6    2    4 am   BACKBONE|DICT|INTERRES
     7    4    5 1    
     8    4  130 1    
     9    5    6 1    
    10    5   65 1    
    11    5  131 1    
    12    6    7 1    
    13    6  132 1    
    14    6  133 1    
    15    7    8 1    
    16    8    9 1    
    17    8  134 1    
    18    8  135 1    
    19    9   10 ar   
    20    9   14 ar   
    21   10   11 ar   
    22   10  136 1    
    23   11   12 ar   
    24   11  126 1    
    25   12   13 ar   
    26   12  137 1    
    27   13   14 ar   
    28   13   15 1    
    29   14  138 1    
    30   15   16 1    
    31   15  139 1    
    32   15  140 1    
    33   16   17 1    
    34   17   18 1    
    35   17  141 1    
    36   17  142 1    
    37   18   19 1    
    38   18   67 1    
    39   18  143 1    
    40   19   20 am   BACKBONE|DICT|INTERRES
    41   19  144 1    
    42   20   21 2    
    43   20   22 1    
    44   22   23 1    
    45   22   24 1    
    46   22  145 1    
    47   23  146 1    
    48   23  147 1    
    49   23  148 1    
    50   24   25 am   BACKBONE|DICT|INTERRES
    51   24  149 1    
    52   25   26 2    
    53   25   27 1    
    54   27   28 1    
    55   27   29 1    
    56   27  150 1    
    57   28  151 1    
    58   28  152 1    
    59   28  153 1    
    60   29   30 am   BACKBONE|DICT|INTERRES
    61   29  154 1    
    62   30   31 2    
    63   30   32 1    
    64   32   33 1    
    65   32   34 1    
    66   32  155 1    
    67   33  156 1    
    68   33  157 1    
    69   33  158 1    
    70   34   35 am   BACKBONE|DICT|INTERRES
    71   34  159 1    
    72   35   36 2    
    73   35   37 1    
    74   37   38 1    
    75   37   39 1    
    76   37  160 1    
    77   38  161 1    
    78   38  162 1    
    79   38  163 1    
    80   39   40 am   BACKBONE|DICT|INTERRES
    81   39  164 1    
    82   40   41 2    
    83   40   42 1    
    84   42   43 1    
    85   42   44 1    
    86   42  165 1    
    87   43  166 1    
    88   43  167 1    
    89   43  168 1    
    90   44   45 am   BACKBONE|DICT|INTERRES
    91   44  169 1    
    92   45   46 2    
    93   45   47 1    
    94   47   48 1    
    95   47   49 1    
    96   47  170 1    
    97   48  171 1    
    98   48  172 1    
    99   48  173 1    
   100   49   50 am   BACKBONE|DICT|INTERRES
   101   49  174 1    
   102   50   51 2    
   103   50   52 1    
   104   52   53 1    
   105   52   54 1    
   106   52  175 1    
   107   53  176 1    
   108   53  177 1    
   109   53  178 1    
   110   54   55 am   BACKBONE|DICT|INTERRES
   111   54  179 1    
   112   55   56 2    
   113   55   57 1    
   114   57   58 1    
   115   57   59 1    
   116   57  180 1    
   117   58  181 1    
   118   58  182 1    
   119   58  183 1    
   120   59   60 am   BACKBONE|DICT|INTERRES
   121   59  184 1    
   122   60   61 2    
   123   60   62 1    
   124   62   63 1    
   125   62   64 1    
   126   62  185 1    
   127   63  186 1    
   128   63  187 1    
   129   63  188 1    
   130   64   65 am   BACKBONE|DICT|INTERRES
   131   64  189 1    
   132   65   66 2    
   133   67   68 2    
   134   67   69 am   BACKBONE|DICT|INTERRES
   135   69   70 1    
   136   69  190 1    
   137   70   71 1    
   138   70   72 1    
   139   70  191 1    
   140   71  192 1    
   141   71  193 1    
   142   71  194 1    
   143   72   73 2    
   144   72   74 am   BACKBONE|DICT|INTERRES
   145   74   75 1    
   146   74  195 1    
   147   75   76 1    
   148   75   77 1    
   149   75  196 1    
   150   76  197 1    
   151   76  198 1    
   152   76  199 1    
   153   77   78 2    
   154   77   79 am   BACKBONE|DICT|INTERRES
   155   79   80 1    
   156   79  200 1    
   157   80   81 1    
   158   80   82 1    
   159   80  201 1    
   160   81  202 1    
   161   81  203 1    
   162   81  204 1    
   163   82   83 2    
   164   82   84 am   BACKBONE|DICT|INTERRES
   165   84   85 1    
   166   84  205 1    
   167   85   86 1    
   168   85   87 1    
   169   85  206 1    
   170   86  207 1    
   171   86  208 1    
   172   86  209 1    
   173   87   88 2    
   174   87   89 am   BACKBONE|DICT|INTERRES
   175   89   90 1    
   176   89  210 1    
   177   90   91 1    
   178   90   92 1    
   179   90  211 1    
   180   91  212 1    
   181   91  213 1    
   182   91  214 1    
   183   92   93 2    
   184   92   94 am   BACKBONE|DICT|INTERRES
   185   94   95 1    
   186   94  215 1    
   187   95   96 1    
   188   95   97 1    
   189   95  216 1    
   190   96  217 1    
   191   96  218 1    
   192   96  219 1    
   193   97   98 2    
   194   97   99 am   BACKBONE|DICT|INTERRES
   195   99  100 1    
   196   99  220 1    
   197  100  101 1    
   198  100  102 1    
   199  100  221 1    
   200  101  222 1    
   201  101  223 1    
   202  101  224 1    
   203  102  103 2    
   204  102  104 am   BACKBONE|DICT|INTERRES
   205  104  105 1    
   206  104  225 1    
   207  105  106 1    
   208  105  107 1    
   209  105  226 1    
   210  106  227 1    
   211  106  228 1    
   212  106  229 1    
   213  107  108 2    
   214  107  109 am   BACKBONE|DICT|INTERRES
   215  109  110 1    
   216  109  230 1    
   217  110  111 1    
   218  110  112 1    
   219  110  231 1    
   220  111  232 1    
   221  111  233 1    
   222  111  234 1    
   223  112  113 2    
   224  112  114 am   BACKBONE|DICT|INTERRES
   225  114  115 1    
   226  114  235 1    
   227  115  116 1    
   228  115  117 1    
   229  115  236 1    
   230  116  237 1    
   231  116  238 1    
   232  116  239 1    
   233  117  118 2    
   234  117  119 am   BACKBONE|DICT|INTERRES
   235  119  120 1    
   236  119  240 1    
   237  120  121 1    
   238  120  124 1    
   239  120  241 1    
   240  121  122 am   BACKBONE|DICT|INTERRES
   241  121  123 2    
   242  122  242 1    
   243  122  243 1    
   244  124  125 1    
   245  124  244 1    
   246  124  245 1    
   247  125  126 1    
   248  126  246 1    
   249  126  247 1    
@<TRIPOS>SUBSTRUCTURE
     1 UNK         1 GROUP             0       ****    0 ROOT    
