@<TRIPOS>MOLECULE
3R540
247   249    1
SMALL
USER_CHARGES


@<TRIPOS>ATOM
      1 CA         -1.0654  -18.3783  -50.9681 C.3       0 UNK        -0.1800 
      2 C          -0.9178  -16.9546  -50.4519 C.2       0 UNK         0.5000 
      3 O          -1.2840  -16.0077  -51.1454 O.2       0 UNK        -0.5000 
      4 N          -0.3787  -16.7926  -49.2356 N.am      1 UNK        -0.5000 
      5 CA         -0.0699  -15.4871  -48.6366 C.3       1 UNK         0.1400 
      6 C6          0.9827  -15.5675  -47.5006 C.3       23 UNK        -0.0398 
      7 S7          2.4501  -16.6193  -47.7718 S.3       23 UNK        -0.2404 
      8 C8          3.0623  -16.1537  -49.4280 C.3       23 UNK        -0.0205 
      9 C9          2.7224  -17.1655  -50.5213 C.ar      23 UNK        -0.0193 
     10 C10         2.4789  -16.7210  -51.8239 C.ar      23 UNK        -0.1150 
     11 C11         2.2007  -17.6326  -52.8466 C.ar      23 UNK        -0.0193 
     12 C12         2.1727  -19.0011  -52.5629 C.ar      23 UNK        -0.1150 
     13 C13         2.4168  -19.4664  -51.2678 C.ar      23 UNK        -0.0193 
     14 C14         2.6909  -18.5403  -50.2565 C.ar      23 UNK        -0.1150 
     15 C15         2.3566  -20.9638  -50.9746 C.3       23 UNK        -0.0205 
     16 S16         3.8054  -21.5749  -50.0470 S.3       23 UNK        -0.2404 
     17 C17         3.2384  -21.4116  -48.3161 C.3       23 UNK        -0.0398 
     18 CA          3.3240  -22.7334  -47.5159 C.3       11 UNK         0.1400 
     19 N           3.0989  -22.4981  -46.0897 N.am      11 UNK        -0.5000 
     20 C           3.4168  -23.3514  -45.1064 C.2       10 UNK         0.5000 
     21 O           3.9802  -24.4309  -45.2881 O.2       10 UNK        -0.5000 
     22 CA          3.0284  -22.9290  -43.6786 C.3       10 UNK         0.1400 
     23 CB          4.0675  -21.9667  -43.0830 C.3       10 UNK        -0.1800 
     24 N           1.7020  -22.3126  -43.6539 N.am      10 UNK        -0.5000 
     25 C           0.5598  -23.0124  -43.6991 C.2       9 UNK         0.5000 
     26 O           0.5211  -24.2397  -43.6153 O.2       9 UNK        -0.5000 
     27 CA         -0.7579  -22.2254  -43.8463 C.3       9 UNK         0.1400 
     28 CB         -1.4688  -22.1187  -42.4891 C.3       9 UNK        -0.1800 
     29 N          -0.5866  -20.8828  -44.4046 N.am      9 UNK        -0.5000 
     30 C          -0.2646  -20.6152  -45.6781 C.2       8 UNK         0.5000 
     31 O          -0.0724  -21.4720  -46.5367 O.2       8 UNK        -0.5000 
     32 CA         -0.0673  -19.1352  -46.0447 C.3       8 UNK         0.1400 
     33 CB         -1.4204  -18.4294  -46.2133 C.3       8 UNK        -0.1800 
     34 N           0.7482  -18.4271  -45.0601 N.am      8 UNK        -0.5000 
     35 C           2.0165  -18.7429  -44.7588 C.2       7 UNK         0.5000 
     36 O           2.6389  -19.6605  -45.2957 O.2       7 UNK        -0.5000 
     37 CA          2.6756  -17.9342  -43.6303 C.3       7 UNK         0.1400 
     38 CB          3.2271  -16.5998  -44.1541 C.3       7 UNK        -0.1800 
     39 N           1.7330  -17.6850  -42.5402 N.am      7 UNK        -0.5000 
     40 C           1.3699  -18.6064  -41.6368 C.2       6 UNK         0.5000 
     41 O           1.8416  -19.7420  -41.5917 O.2       6 UNK        -0.5000 
     42 CA          0.2736  -18.2016  -40.6333 C.3       6 UNK         0.1400 
     43 CB          0.8866  -17.4819  -39.4229 C.3       6 UNK        -0.1800 
     44 N          -0.7605  -17.3531  -41.2280 N.am      6 UNK        -0.5000 
     45 C          -1.6118  -17.7560  -42.1810 C.2       5 UNK         0.5000 
     46 O          -1.6271  -18.8939  -42.6466 O.2       5 UNK        -0.5000 
     47 CA         -2.5768  -16.6996  -42.7453 C.3       5 UNK         0.1400 
     48 CB         -3.8683  -16.6474  -41.9173 C.3       5 UNK        -0.1800 
     49 N          -2.0091  -15.3539  -42.8440 N.am      5 UNK        -0.5000 
     50 C          -0.9165  -15.0180  -43.5419 C.2       4 UNK         0.5000 
     51 O          -0.1738  -15.8385  -44.0833 O.2       4 UNK        -0.5000 
     52 CA         -0.6548  -13.5074  -43.6917 C.3       4 UNK         0.1400 
     53 CB          0.7064  -13.1941  -44.3331 C.3       4 UNK        -0.1800 
     54 N          -1.7156  -12.9108  -44.5021 N.am      4 UNK        -0.5000 
     55 C          -2.9145  -12.5417  -44.0310 C.2       3 UNK         0.5000 
     56 O          -3.2028  -12.5417  -42.8331 O.2       3 UNK        -0.5000 
     57 CA         -3.9892  -12.1662  -45.0676 C.3       3 UNK         0.1400 
     58 CB         -3.9648  -10.6562  -45.3472 C.3       3 UNK        -0.1800 
     59 N          -3.8653  -12.8908  -46.3348 N.am      3 UNK        -0.5000 
     60 C          -3.9573  -14.2198  -46.4922 C.2       2 UNK         0.5000 
     61 O          -4.1479  -15.0094  -45.5670 O.2       2 UNK        -0.5000 
     62 CA         -3.8304  -14.7638  -47.9283 C.3       2 UNK         0.1400 
     63 CB         -4.2106  -13.7364  -49.0186 C.3       2 UNK        -0.1800 
     64 N          -2.5104  -15.3323  -48.2087 N.am      2 UNK        -0.5000 
     65 C          -1.3208  -14.7099  -48.1532 C.2       1 UNK         0.5000 
     66 O          -1.1770  -13.5572  -47.7409 O.2       1 UNK        -0.5000 
     67 C           2.3791  -23.8281  -48.0588 C.2       11 UNK         0.5000 
     68 O           2.8515  -24.8336  -48.5923 O.2       11 UNK        -0.5000 
     69 N           1.0677  -23.6258  -47.8917 N.am      12 UNK        -0.5000 
     70 CA          0.0194  -24.5683  -48.2586 C.3       12 UNK         0.1400 
     71 CB         -1.1427  -23.7959  -48.9071 C.3       12 UNK        -0.1800 
     72 C          -0.4165  -25.2974  -46.9816 C.2       12 UNK         0.5000 
     73 O          -1.1851  -24.7490  -46.1954 O.2       12 UNK        -0.5000 
     74 N           0.1053  -26.5127  -46.7768 N.am      13 UNK        -0.5000 
     75 CA         -0.0734  -27.3043  -45.5537 C.3       13 UNK         0.1400 
     76 CB          0.8162  -28.5542  -45.6436 C.3       13 UNK        -0.1800 
     77 C          -1.5304  -27.7026  -45.2309 C.2       13 UNK         0.5000 
     78 O          -1.8232  -28.0240  -44.0783 O.2       13 UNK        -0.5000 
     79 N          -2.4090  -27.6971  -46.2431 N.am      14 UNK        -0.5000 
     80 CA         -3.8252  -28.0408  -46.1200 C.3       14 UNK         0.1400 
     81 CB         -4.4196  -28.2413  -47.5230 C.3       14 UNK        -0.1800 
     82 C          -4.6426  -27.0013  -45.3286 C.2       14 UNK         0.5000 
     83 O          -5.4600  -27.3902  -44.4931 O.2       14 UNK        -0.5000 
     84 N          -4.4152  -25.7115  -45.6063 N.am      15 UNK        -0.5000 
     85 CA         -5.1256  -24.5611  -45.0475 C.3       15 UNK         0.1400 
     86 CB         -6.6181  -24.5883  -45.4428 C.3       15 UNK        -0.1800 
     87 C          -4.4759  -23.2756  -45.5793 C.2       15 UNK         0.5000 
     88 O          -3.7837  -23.3224  -46.5973 O.2       15 UNK        -0.5000 
     89 N          -4.7391  -22.1484  -44.9039 N.am      16 UNK        -0.5000 
     90 CA         -4.2917  -20.8052  -45.2797 C.3       16 UNK         0.1400 
     91 CB         -4.6541  -19.8221  -44.1531 C.3       16 UNK        -0.1800 
     92 C          -4.8748  -20.3557  -46.6354 C.2       16 UNK         0.5000 
     93 O          -5.9895  -19.8320  -46.6847 O.2       16 UNK        -0.5000 
     94 N          -4.1249  -20.6207  -47.7103 N.am      17 UNK        -0.5000 
     95 CA         -4.4971  -20.3393  -49.0930 C.3       17 UNK         0.1400 
     96 CB         -3.4929  -21.0397  -50.0209 C.3       17 UNK        -0.1800 
     97 C          -4.5692  -18.8329  -49.4045 C.2       17 UNK         0.5000 
     98 O          -3.7552  -18.0529  -48.9028 O.2       17 UNK        -0.5000 
     99 N          -5.5262  -18.4698  -50.2648 N.am      18 UNK        -0.5000 
    100 CA        -5.6855  -17.1309  -50.8261 C.3       18 UNK         0.1400 
    101 CB        -7.1519  -16.9529  -51.2522 C.3       18 UNK        -0.1800 
    102 C         -4.7487  -16.9185  -52.0284 C.2       18 UNK         0.5000 
    103 O         -4.2540  -17.8886  -52.6070 O.2       18 UNK        -0.5000 
    104 N         -4.5818  -15.6504  -52.4279 N.am      19 UNK        -0.5000 
    105 CA        -3.7110  -15.2047  -53.5238 C.3       19 UNK         0.1400 
    106 CB        -3.7133  -13.6694  -53.5660 C.3       19 UNK        -0.1800 
    107 C         -4.0571  -15.7871  -54.9096 C.2       19 UNK         0.5000 
    108 O         -3.2016  -15.7916  -55.7940 O.2       19 UNK        -0.5000 
    109 N         -5.2800  -16.3128  -55.0689 N.am      20 UNK        -0.5000 
    110 CA        -5.7268  -17.0772  -56.2354 C.3       20 UNK         0.1400 
    111 CB        -7.2145  -17.4192  -56.0655 C.3       20 UNK        -0.1800 
    112 C         -4.9034  -18.3593  -56.4853 C.2       20 UNK         0.5000 
    113 O         -4.7934  -18.7890  -57.6345 O.2       20 UNK        -0.5000 
    114 N         -4.3046  -18.9248  -55.4247 N.am      21 UNK        -0.5000 
    115 CA        -3.3976  -20.0733  -55.4932 C.3       21 UNK         0.1400 
    116 CB        -3.1546  -20.6071  -54.0728 C.3       21 UNK        -0.1800 
    117 C         -2.0541  -19.7562  -56.1818 C.2       21 UNK         0.5000 
    118 O         -1.3807  -20.6817  -56.6368 O.2       21 UNK        -0.5000 
    119 N         -1.6884  -18.4695  -56.2526 N.am      22 UNK        -0.5000 
    120 CA        -0.4614  -17.9755  -56.8970 C.3       22 UNK         0.1400 
    121 C         -0.5597  -17.8638  -58.4475 C.2       22 UNK         0.5000 
    122 N         -1.7147  -18.0857  -59.0657 N.am      22 UNK        -0.7600 
    123 O          0.4368  -17.5799  -59.1065 O.2       22 UNK        -0.5000 
    124 C124        0.0268  -16.6405  -56.2737 C.3       23 UNK        -0.0398 
    125 S125        0.1678  -16.7151  -54.4553 S.3       23 UNK        -0.2404 
    126 C126        1.9219  -17.1434  -54.2578 C.3       23 UNK        -0.0205 
    127 H127       -0.6310  -19.1062  -50.2829 H         1 UNK         0.0600 
    128 H128       -0.5703  -18.4791  -51.9329 H         1 UNK         0.0600 
    129 H129       -2.1172  -18.6183  -51.1089 H         1 UNK         0.0600 
    130 H130       -0.0670  -17.5981  -48.7159 H         1 UNK         0.3000 
    131 H131        0.3647  -14.8733  -49.4278 H         1 UNK         0.0600 
    132 H132        0.5202  -15.9148  -46.5779 H         1 UNK         0.0800 
    133 H133        1.3562  -14.5656  -47.2876 H         1 UNK         0.0800 
    134 H134        2.6997  -15.1591  -49.6894 H         1 UNK         0.0800 
    135 H135        4.1487  -16.0749  -49.3755 H         1 UNK         0.0800 
    136 H136        2.5011  -15.6632  -52.0452 H         1 UNK         0.1150 
    137 H137        1.9485  -19.7035  -53.3535 H         1 UNK         0.1150 
    138 H138        2.8898  -18.8919  -49.2568 H         1 UNK         0.1150 
    139 H139        1.4333  -21.1948  -50.4416 H         1 UNK         0.0800 
    140 H140        2.3087  -21.5232  -51.9101 H         1 UNK         0.0800 
    141 H141        3.8724  -20.6606  -47.8419 H         1 UNK         0.0800 
    142 H142        2.2261  -21.0063  -48.2774 H         1 UNK         0.0800 
    143 H143        4.3447  -23.1089  -47.6192 H         1 UNK         0.0600 
    144 H144        2.6809  -21.6080  -45.8391 H         1 UNK         0.3000 
    145 H145        3.0145  -23.8255  -43.0550 H         1 UNK         0.0600 
    146 H146        3.8102  -21.6948  -42.0593 H         1 UNK         0.0600 
    147 H147        5.0546  -22.4297  -43.0577 H         1 UNK         0.0600 
    148 H148        4.1541  -21.0475  -43.6612 H         1 UNK         0.0600 
    149 H149        1.6609  -21.3037  -43.6886 H         1 UNK         0.3000 
    150 H150       -1.4055  -22.7875  -44.5207 H         1 UNK         0.0600 
    151 H151       -1.6289  -23.1047  -42.0514 H         1 UNK         0.0600 
    152 H152       -2.4462  -21.6489  -42.5924 H         1 UNK         0.0600 
    153 H153       -0.8867  -21.5312  -41.7777 H         1 UNK         0.0600 
    154 H154       -0.7665  -20.1083  -43.7690 H         1 UNK         0.3000 
    155 H155        0.4629  -19.0921  -46.9983 H         1 UNK         0.0600 
    156 H156       -1.3037  -17.3637  -46.4004 H         1 UNK         0.0600 
    157 H157       -2.0455  -18.5394  -45.3290 H         1 UNK         0.0600 
    158 H158       -1.9691  -18.8489  -47.0558 H         1 UNK         0.0600 
    159 H159        0.3250  -17.6299  -44.5938 H         1 UNK         0.3000 
    160 H160        3.5145  -18.5168  -43.2437 H         1 UNK         0.0600 
    161 H161        2.4430  -15.9732  -44.5793 H         1 UNK         0.0600 
    162 H162        3.9684  -16.7681  -44.9362 H         1 UNK         0.0600 
    163 H163        3.7145  -16.0346  -43.3598 H         1 UNK         0.0600 
    164 H164        1.2442  -16.8006  -42.5592 H         1 UNK         0.3000 
    165 H165       -0.2047  -19.1178  -40.2799 H         1 UNK         0.0600 
    166 H166        1.3586  -16.5412  -39.7090 H         1 UNK         0.0600 
    167 H167        0.1298  -17.2630  -38.6693 H         1 UNK         0.0600 
    168 H168        1.6487  -18.1002  -38.9465 H         1 UNK         0.0600 
    169 H169       -0.8117  -16.3968  -40.9092 H         1 UNK         0.3000 
    170 H170       -2.8407  -17.0049  -43.7586 H         1 UNK         0.0600 
    171 H171       -4.3255  -17.6350  -41.8424 H         1 UNK         0.0600 
    172 H172       -3.6827  -16.2920  -40.9031 H         1 UNK         0.0600 
    173 H173       -4.6023  -15.9854  -42.3775 H         1 UNK         0.0600 
    174 H174       -2.5740  -14.5993  -42.4736 H         1 UNK         0.3000 
    175 H175       -0.6580  -13.0686  -42.6917 H         1 UNK         0.0600 
    176 H176        0.7581  -13.5557  -45.3579 H         1 UNK         0.0600 
    177 H177        0.8935  -12.1204  -44.3503 H         1 UNK         0.0600 
    178 H178        1.5209  -13.6578  -43.7752 H         1 UNK         0.0600 
    179 H179       -1.5836  -12.9341  -45.5059 H         1 UNK         0.3000 
    180 H180       -4.9602  -12.4193  -44.6372 H         1 UNK         0.0600 
    181 H181       -4.7789  -10.3639  -46.0106 H         1 UNK         0.0600 
    182 H182       -4.0789  -10.0860  -44.4242 H         1 UNK         0.0600 
    183 H183       -3.0262  -10.3480  -45.8097 H         1 UNK         0.0600 
    184 H184       -3.6716  -12.3320  -47.1531 H         1 UNK         0.3000 
    185 H185       -4.5386  -15.5901  -47.9963 H         1 UNK         0.0600 
    186 H186       -5.2174  -13.3483  -48.8593 H         1 UNK         0.0600 
    187 H187       -3.5268  -12.8877  -49.0491 H         1 UNK         0.0600 
    188 H188       -4.1928  -14.1960  -50.0054 H         1 UNK         0.0600 
    189 H189       -2.5282  -16.2954  -48.5262 H         1 UNK         0.3000 
    190 H190        0.7447  -22.8069  -47.3763 H         1 UNK         0.3000 
    191 H191        0.3840  -25.2983  -48.9842 H         1 UNK         0.0600 
    192 H192       -1.9641  -24.4667  -49.1612 H         1 UNK         0.0600 
    193 H193       -0.8240  -23.3041  -49.8261 H         1 UNK         0.0600 
    194 H194       -1.5424  -23.0291  -48.2425 H         1 UNK         0.0600 
    195 H195        0.7442  -26.8885  -47.4629 H         1 UNK         0.3000 
    196 H196        0.2812  -26.6980  -44.7182 H         1 UNK         0.0600 
    197 H197        0.7401  -29.1559  -44.7368 H         1 UNK         0.0600 
    198 H198        1.8656  -28.2843  -45.7637 H         1 UNK         0.0600 
    199 H199        0.5324  -29.1892  -46.4837 H         1 UNK         0.0600 
    200 H200       -2.0818  -27.4188  -47.1558 H         1 UNK         0.3000 
    201 H201       -3.8954  -28.9916  -45.5871 H         1 UNK         0.0600 
    202 H202       -3.9068  -29.0408  -48.0582 H         1 UNK         0.0600 
    203 H203       -4.3493  -27.3344  -48.1250 H         1 UNK         0.0600 
    204 H204       -5.4739  -28.5151  -47.4644 H         1 UNK         0.0600 
    205 H205       -3.6844  -25.4547  -46.2615 H         1 UNK         0.3000 
    206 H206       -5.0255  -24.5811  -43.9607 H         1 UNK         0.0600 
    207 H207       -7.1399  -25.4386  -45.0052 H         1 UNK         0.0600 
    208 H208       -7.1355  -23.6923  -45.0976 H         1 UNK         0.0600 
    209 H209       -6.7425  -24.6405  -46.5251 H         1 UNK         0.0600 
    210 H210       -5.3466  -22.1991  -44.0994 H         1 UNK         0.3000 
    211 H211       -3.2055  -20.8264  -45.3672 H         1 UNK         0.0600 
    212 H212       -5.7249  -19.8196  -43.9464 H         1 UNK         0.0600 
    213 H213       -4.3722  -18.8033  -44.4201 H         1 UNK         0.0600 
    214 H214       -4.1352  -20.0690  -43.2275 H         1 UNK         0.0600 
    215 H215       -3.2650  -21.1334  -47.5766 H         1 UNK         0.3000 
    216 H216       -5.4833  -20.7756  -49.2652 H         1 UNK         0.0600 
    217 H217       -3.6954  -20.8098  -51.0675 H         1 UNK         0.0600 
    218 H218       -3.5469  -22.1229  -49.9100 H         1 UNK         0.0600 
    219 H219       -2.4682  -20.7347  -49.8079 H         1 UNK         0.0600 
    220 H220       -6.1134  -19.1856  -50.6665 H         1 UNK         0.3000 
    221 H221       -5.4487  -16.3892  -50.0622 H         1 UNK         0.0600 
    222 H222       -7.4322  -17.6563  -52.0376 H         1 UNK         0.0600 
    223 H223       -7.8271  -17.1058  -50.4100 H         1 UNK         0.0600 
    224 H224       -7.3354  -15.9470  -51.6316 H         1 UNK         0.0600 
    225 H225       -5.0581  -14.9171  -51.9245 H         1 UNK         0.3000 
    226 H226       -2.6974  -15.5372  -53.2943 H         1 UNK         0.0600 
    227 H227       -4.7105  -13.2737  -53.7622 H         1 UNK         0.0600 
    228 H228       -3.3618  -13.2495  -52.6231 H         1 UNK         0.0600 
    229 H229       -3.0517  -13.2987  -54.3501 H         1 UNK         0.0600 
    230 H230       -5.9179  -16.2653  -54.2891 H         1 UNK         0.3000 
    231 H231       -5.6165  -16.4392  -57.1146 H         1 UNK         0.0600 
    232 H232       -7.5900  -17.9699  -56.9291 H         1 UNK         0.0600 
    233 H233       -7.8190  -16.5171  -55.9695 H         1 UNK         0.0600 
    234 H234       -7.3868  -18.0358  -55.1822 H         1 UNK         0.0600 
    235 H235       -4.4163  -18.5009  -54.5081 H         1 UNK         0.3000 
    236 H236       -3.8885  -20.8572  -56.0735 H         1 UNK         0.0600 
    237 H237       -4.0935  -20.8549  -53.5777 H         1 UNK         0.0600 
    238 H238       -2.5480  -21.5133  -54.0936 H         1 UNK         0.0600 
    239 H239       -2.6302  -19.8775  -53.4543 H         1 UNK         0.0600 
    240 H240       -2.3006  -17.7569  -55.8752 H         1 UNK         0.3000 
    241 H241        0.3224  -18.7120  -56.7103 H         1 UNK         0.0600 
    242 H242       -2.5432  -18.3253  -58.5407 H         1 UNK         0.3800 
    243 H243       -1.7614  -18.0149  -60.0701 H         1 UNK         0.3800 
    244 H244        0.9917  -16.3493  -56.6924 H         1 UNK         0.0800 
    245 H245       -0.6620  -15.8324  -56.5233 H         1 UNK         0.0800 
    246 H246        2.5382  -16.2724  -54.4854 H         1 UNK         0.0800 
    247 H247        2.1951  -17.9151  -54.9793 H         1 UNK         0.0800 
@<TRIPOS>BOND
     1    1    2 1    
     2    1  127 1    
     3    1  128 1    
     4    1  129 1    
     5    2    3 2    
     6    2    4 am   BACKBONE|DICT|INTERRES
     7    4    5 1    
     8    4  130 1    
     9    5    6 1    
    10    5   65 1    
    11    5  131 1    
    12    6    7 1    
    13    6  132 1    
    14    6  133 1    
    15    7    8 1    
    16    8    9 1    
    17    8  134 1    
    18    8  135 1    
    19    9   10 ar   
    20    9   14 ar   
    21   10   11 ar   
    22   10  136 1    
    23   11   12 ar   
    24   11  126 1    
    25   12   13 ar   
    26   12  137 1    
    27   13   14 ar   
    28   13   15 1    
    29   14  138 1    
    30   15   16 1    
    31   15  139 1    
    32   15  140 1    
    33   16   17 1    
    34   17   18 1    
    35   17  141 1    
    36   17  142 1    
    37   18   19 1    
    38   18   67 1    
    39   18  143 1    
    40   19   20 am   BACKBONE|DICT|INTERRES
    41   19  144 1    
    42   20   21 2    
    43   20   22 1    
    44   22   23 1    
    45   22   24 1    
    46   22  145 1    
    47   23  146 1    
    48   23  147 1    
    49   23  148 1    
    50   24   25 am   BACKBONE|DICT|INTERRES
    51   24  149 1    
    52   25   26 2    
    53   25   27 1    
    54   27   28 1    
    55   27   29 1    
    56   27  150 1    
    57   28  151 1    
    58   28  152 1    
    59   28  153 1    
    60   29   30 am   BACKBONE|DICT|INTERRES
    61   29  154 1    
    62   30   31 2    
    63   30   32 1    
    64   32   33 1    
    65   32   34 1    
    66   32  155 1    
    67   33  156 1    
    68   33  157 1    
    69   33  158 1    
    70   34   35 am   BACKBONE|DICT|INTERRES
    71   34  159 1    
    72   35   36 2    
    73   35   37 1    
    74   37   38 1    
    75   37   39 1    
    76   37  160 1    
    77   38  161 1    
    78   38  162 1    
    79   38  163 1    
    80   39   40 am   BACKBONE|DICT|INTERRES
    81   39  164 1    
    82   40   41 2    
    83   40   42 1    
    84   42   43 1    
    85   42   44 1    
    86   42  165 1    
    87   43  166 1    
    88   43  167 1    
    89   43  168 1    
    90   44   45 am   BACKBONE|DICT|INTERRES
    91   44  169 1    
    92   45   46 2    
    93   45   47 1    
    94   47   48 1    
    95   47   49 1    
    96   47  170 1    
    97   48  171 1    
    98   48  172 1    
    99   48  173 1    
   100   49   50 am   BACKBONE|DICT|INTERRES
   101   49  174 1    
   102   50   51 2    
   103   50   52 1    
   104   52   53 1    
   105   52   54 1    
   106   52  175 1    
   107   53  176 1    
   108   53  177 1    
   109   53  178 1    
   110   54   55 am   BACKBONE|DICT|INTERRES
   111   54  179 1    
   112   55   56 2    
   113   55   57 1    
   114   57   58 1    
   115   57   59 1    
   116   57  180 1    
   117   58  181 1    
   118   58  182 1    
   119   58  183 1    
   120   59   60 am   BACKBONE|DICT|INTERRES
   121   59  184 1    
   122   60   61 2    
   123   60   62 1    
   124   62   63 1    
   125   62   64 1    
   126   62  185 1    
   127   63  186 1    
   128   63  187 1    
   129   63  188 1    
   130   64   65 am   BACKBONE|DICT|INTERRES
   131   64  189 1    
   132   65   66 2    
   133   67   68 2    
   134   67   69 am   BACKBONE|DICT|INTERRES
   135   69   70 1    
   136   69  190 1    
   137   70   71 1    
   138   70   72 1    
   139   70  191 1    
   140   71  192 1    
   141   71  193 1    
   142   71  194 1    
   143   72   73 2    
   144   72   74 am   BACKBONE|DICT|INTERRES
   145   74   75 1    
   146   74  195 1    
   147   75   76 1    
   148   75   77 1    
   149   75  196 1    
   150   76  197 1    
   151   76  198 1    
   152   76  199 1    
   153   77   78 2    
   154   77   79 am   BACKBONE|DICT|INTERRES
   155   79   80 1    
   156   79  200 1    
   157   80   81 1    
   158   80   82 1    
   159   80  201 1    
   160   81  202 1    
   161   81  203 1    
   162   81  204 1    
   163   82   83 2    
   164   82   84 am   BACKBONE|DICT|INTERRES
   165   84   85 1    
   166   84  205 1    
   167   85   86 1    
   168   85   87 1    
   169   85  206 1    
   170   86  207 1    
   171   86  208 1    
   172   86  209 1    
   173   87   88 2    
   174   87   89 am   BACKBONE|DICT|INTERRES
   175   89   90 1    
   176   89  210 1    
   177   90   91 1    
   178   90   92 1    
   179   90  211 1    
   180   91  212 1    
   181   91  213 1    
   182   91  214 1    
   183   92   93 2    
   184   92   94 am   BACKBONE|DICT|INTERRES
   185   94   95 1    
   186   94  215 1    
   187   95   96 1    
   188   95   97 1    
   189   95  216 1    
   190   96  217 1    
   191   96  218 1    
   192   96  219 1    
   193   97   98 2    
   194   97   99 am   BACKBONE|DICT|INTERRES
   195   99  100 1    
   196   99  220 1    
   197  100  101 1    
   198  100  102 1    
   199  100  221 1    
   200  101  222 1    
   201  101  223 1    
   202  101  224 1    
   203  102  103 2    
   204  102  104 am   BACKBONE|DICT|INTERRES
   205  104  105 1    
   206  104  225 1    
   207  105  106 1    
   208  105  107 1    
   209  105  226 1    
   210  106  227 1    
   211  106  228 1    
   212  106  229 1    
   213  107  108 2    
   214  107  109 am   BACKBONE|DICT|INTERRES
   215  109  110 1    
   216  109  230 1    
   217  110  111 1    
   218  110  112 1    
   219  110  231 1    
   220  111  232 1    
   221  111  233 1    
   222  111  234 1    
   223  112  113 2    
   224  112  114 am   BACKBONE|DICT|INTERRES
   225  114  115 1    
   226  114  235 1    
   227  115  116 1    
   228  115  117 1    
   229  115  236 1    
   230  116  237 1    
   231  116  238 1    
   232  116  239 1    
   233  117  118 2    
   234  117  119 am   BACKBONE|DICT|INTERRES
   235  119  120 1    
   236  119  240 1    
   237  120  121 1    
   238  120  124 1    
   239  120  241 1    
   240  121  122 am   BACKBONE|DICT|INTERRES
   241  121  123 2    
   242  122  242 1    
   243  122  243 1    
   244  124  125 1    
   245  124  244 1    
   246  124  245 1    
   247  125  126 1    
   248  126  246 1    
   249  126  247 1    
@<TRIPOS>SUBSTRUCTURE
     1 UNK         1 GROUP             0       ****    0 ROOT    
