@<TRIPOS>MOLECULE
3R540
247   249    1
SMALL
USER_CHARGES


@<TRIPOS>ATOM
      1 CA          7.0656  -13.9054  -45.7482 C.3       0 UNK        -0.1800 
      2 C           5.6376  -13.3903  -45.9245 C.2       0 UNK         0.5000 
      3 O           5.3609  -12.2522  -45.5510 O.2       0 UNK        -0.5000 
      4 N           4.7085  -14.1685  -46.4962 N.am      1 UNK        -0.5000 
      5 CA          4.8465  -15.5729  -46.9025 C.3       1 UNK         0.1400 
      6 C6          3.7430  -16.0084  -47.9024 C.3       23 UNK        -0.0398 
      7 S7          2.0532  -15.4421  -47.4816 S.3       23 UNK        -0.2404 
      8 C8          1.5438  -14.5657  -48.9928 C.3       23 UNK        -0.0205 
      9 C9          0.8262  -15.4862  -49.9707 C.ar      23 UNK        -0.0193 
     10 C10        -0.4914  -15.2122  -50.3481 C.ar      23 UNK        -0.1150 
     11 C11        -1.1630  -16.0449  -51.2471 C.ar      23 UNK        -0.0193 
     12 C12        -0.5080  -17.1627  -51.7686 C.ar      23 UNK        -0.1150 
     13 C13         0.8096  -17.4485  -51.4021 C.ar      23 UNK        -0.0193 
     14 C14         1.4737  -16.6011  -50.5127 C.ar      23 UNK        -0.1150 
     15 C15         1.5253  -18.6623  -51.9754 C.3       23 UNK        -0.0205 
     16 S16         1.6696  -20.0108  -50.7601 S.3       23 UNK        -0.2404 
     17 C17        -0.0649  -20.5555  -50.6112 C.3       23 UNK        -0.0398 
     18 CA         -0.4762  -20.8518  -49.1523 C.3       11 UNK         0.1400 
     19 N          -0.2517  -19.7233  -48.2420 N.am      11 UNK        -0.5000 
     20 C          -0.2528  -19.8412  -46.9074 C.2       10 UNK         0.5000 
     21 O          -0.4385  -20.9041  -46.3204 O.2       10 UNK        -0.5000 
     22 CA         -0.0593  -18.5612  -46.0834 C.3       10 UNK         0.1400 
     23 CB          1.4284  -18.3152  -45.8218 C.3       10 UNK        -0.1800 
     24 N          -0.6700  -17.3728  -46.6782 N.am      10 UNK        -0.5000 
     25 C          -1.9890  -17.2301  -46.8641 C.2       9 UNK         0.5000 
     26 O          -2.7939  -18.1537  -46.7195 O.2       9 UNK        -0.5000 
     27 CA         -2.4789  -15.8182  -47.2222 C.3       9 UNK         0.1400 
     28 CB         -4.0142  -15.6827  -47.1503 C.3       9 UNK        -0.1800 
     29 N          -1.8458  -14.8334  -46.3427 N.am      9 UNK        -0.5000 
     30 C          -1.7190  -13.5273  -46.6188 C.2       8 UNK         0.5000 
     31 O          -2.0311  -13.0314  -47.7019 O.2       8 UNK        -0.5000 
     32 CA         -1.1861  -12.6014  -45.5053 C.3       8 UNK         0.1400 
     33 CB         -2.3551  -11.8897  -44.8062 C.3       8 UNK        -0.1800 
     34 N          -0.4135  -13.3246  -44.4976 N.am      8 UNK        -0.5000 
     35 C           0.9084  -13.5214  -44.5436 C.2       7 UNK         0.5000 
     36 O           1.6397  -12.9646  -45.3633 O.2       7 UNK        -0.5000 
     37 CA          1.5328  -14.4962  -43.5163 C.3       7 UNK         0.1400 
     38 CB          2.6975  -13.8340  -42.7615 C.3       7 UNK        -0.1800 
     39 N           0.6256  -15.0966  -42.5277 N.am      7 UNK        -0.5000 
     40 C          -0.4134  -15.9044  -42.7702 C.2       6 UNK         0.5000 
     41 O          -0.8377  -16.1409  -43.9003 O.2       6 UNK        -0.5000 
     42 CA         -1.0825  -16.5510  -41.5410 C.3       6 UNK         0.1400 
     43 CB         -2.4059  -17.2494  -41.8985 C.3       6 UNK        -0.1800 
     44 N          -0.1956  -17.5301  -40.9141 N.am      6 UNK        -0.5000 
     45 C           0.8402  -17.2467  -40.1132 C.2       5 UNK         0.5000 
     46 O           1.1428  -16.1012  -39.7747 O.2       5 UNK        -0.5000 
     47 CA          1.6837  -18.4374  -39.6117 C.3       5 UNK         0.1400 
     48 CB          1.2354  -18.8546  -38.2026 C.3       5 UNK        -0.1800 
     49 N           1.6395  -19.6101  -40.4935 N.am      5 UNK        -0.5000 
     50 C           2.1822  -19.6550  -41.7168 C.2       4 UNK         0.5000 
     51 O           2.7755  -18.7045  -42.2352 O.2       4 UNK        -0.5000 
     52 CA          2.0236  -20.9715  -42.4953 C.3       4 UNK         0.1400 
     53 CB          0.5573  -21.2033  -42.9073 C.3       4 UNK        -0.1800 
     54 N           2.8626  -20.8743  -43.6801 N.am      4 UNK        -0.5000 
     55 C           3.2971  -21.8610  -44.4677 C.2       3 UNK         0.5000 
     56 O           3.0405  -23.0503  -44.2796 O.2       3 UNK        -0.5000 
     57 CA          4.1777  -21.4481  -45.6695 C.3       3 UNK         0.1400 
     58 CB          3.3728  -21.5118  -46.9788 C.3       3 UNK        -0.1800 
     59 N           4.7842  -20.1136  -45.5428 N.am      3 UNK        -0.5000 
     60 C           5.7280  -19.7910  -44.6459 C.2       2 UNK         0.5000 
     61 O           6.1865  -20.5981  -43.8361 O.2       2 UNK        -0.5000 
     62 CA          6.2551  -18.3423  -44.6385 C.3       2 UNK         0.1400 
     63 CB          7.7944  -18.3154  -44.6328 C.3       2 UNK        -0.1800 
     64 N           5.7910  -17.5357  -45.7738 N.am      2 UNK        -0.5000 
     65 C           4.9431  -16.5034  -45.6720 C.2       1 UNK         0.5000 
     66 O           4.2986  -16.2477  -44.6549 O.2       1 UNK        -0.5000 
     67 C          -1.9319  -21.3593  -49.1038 C.2       11 UNK         0.5000 
     68 O          -2.1623  -22.5389  -49.3706 O.2       11 UNK        -0.5000 
     69 N          -2.8870  -20.4862  -48.7543 N.am      12 UNK        -0.5000 
     70 CA         -4.2795  -20.8667  -48.5311 C.3       12 UNK         0.1400 
     71 CB         -5.1916  -19.6423  -48.6708 C.3       12 UNK        -0.1800 
     72 C          -4.4510  -21.5389  -47.1614 C.2       12 UNK         0.5000 
     73 O          -5.1141  -22.5711  -47.0748 O.2       12 UNK        -0.5000 
     74 N          -3.8039  -20.9799  -46.1287 N.am      13 UNK        -0.5000 
     75 CA         -3.7790  -21.5271  -44.7693 C.3       13 UNK         0.1400 
     76 CB         -3.1168  -20.5128  -43.8284 C.3       13 UNK        -0.1800 
     77 C          -3.0881  -22.9033  -44.6809 C.2       13 UNK         0.5000 
     78 O          -3.5607  -23.7761  -43.9524 O.2       13 UNK        -0.5000 
     79 N          -2.0131  -23.0866  -45.4591 N.am      14 UNK        -0.5000 
     80 CA         -1.2951  -24.3517  -45.6300 C.3       14 UNK         0.1400 
     81 CB          0.0835  -24.0543  -46.2423 C.3       14 UNK        -0.1800 
     82 C          -2.0445  -25.3774  -46.5064 C.2       14 UNK         0.5000 
     83 O          -1.6289  -26.5357  -46.5527 O.2       14 UNK        -0.5000 
     84 N          -3.1038  -24.9359  -47.2035 N.am      15 UNK        -0.5000 
     85 CA         -3.9075  -25.6822  -48.1788 C.3       15 UNK         0.1400 
     86 CB         -4.6653  -26.8443  -47.5048 C.3       15 UNK        -0.1800 
     87 C          -3.1043  -26.1185  -49.4239 C.2       15 UNK         0.5000 
     88 O          -3.4185  -27.1381  -50.0399 O.2       15 UNK        -0.5000 
     89 N          -2.0865  -25.3252  -49.7781 N.am      16 UNK        -0.5000 
     90 CA         -1.2216  -25.5233  -50.9377 C.3       16 UNK         0.1400 
     91 CB          0.1709  -24.9556  -50.6191 C.3       16 UNK        -0.1800 
     92 C          -1.7985  -24.8570  -52.1986 C.2       16 UNK         0.5000 
     93 O          -1.6140  -25.3847  -53.2958 O.2       16 UNK        -0.5000 
     94 N          -2.4851  -23.7193  -52.0236 N.am      17 UNK        -0.5000 
     95 CA         -3.0821  -22.9289  -53.1026 C.3       17 UNK         0.1400 
     96 CB         -2.0805  -21.8674  -53.5907 C.3       17 UNK        -0.1800 
     97 C          -4.4302  -22.3183  -52.6801 C.2       17 UNK         0.5000 
     98 O          -4.8099  -21.2582  -53.1879 O.2       17 UNK        -0.5000 
     99 N          -5.1372  -23.0018  -51.7687 N.am      18 UNK        -0.5000 
    100 CA        -6.4704  -22.6373  -51.2888 C.3       18 UNK         0.1400 
    101 CB        -6.9006  -23.6064  -50.1778 C.3       18 UNK        -0.1800 
    102 C         -7.4986  -22.6205  -52.4328 C.2       18 UNK         0.5000 
    103 O         -7.7043  -23.6474  -53.0822 O.2       18 UNK        -0.5000 
    104 N         -8.0782  -21.4384  -52.6709 N.am      19 UNK        -0.5000 
    105 CA        -9.0082  -21.0756  -53.7455 C.3       19 UNK         0.1400 
    106 CB       -10.2818  -21.9456  -53.7093 C.3       19 UNK        -0.1800 
    107 C         -8.3681  -21.0302  -55.1504 C.2       19 UNK         0.5000 
    108 O         -9.0828  -20.7811  -56.1227 O.2       19 UNK        -0.5000 
    109 N         -7.0474  -21.2364  -55.2424 N.am      20 UNK        -0.5000 
    110 CA        -6.2698  -21.1305  -56.4743 C.3       20 UNK         0.1400 
    111 CB        -5.2721  -22.2971  -56.5621 C.3       20 UNK        -0.1800 
    112 C         -5.5476  -19.7770  -56.5197 C.2       20 UNK         0.5000 
    113 O         -5.6753  -19.0568  -57.5106 O.2       20 UNK        -0.5000 
    114 N         -4.8245  -19.4481  -55.4406 N.am      21 UNK        -0.5000 
    115 CA        -4.1179  -18.1780  -55.2793 C.3       21 UNK         0.1400 
    116 CB        -2.7268  -18.4421  -54.6851 C.3       21 UNK        -0.1800 
    117 C         -4.9063  -17.2121  -54.3824 C.2       21 UNK         0.5000 
    118 O         -4.9703  -16.0203  -54.6857 O.2       21 UNK        -0.5000 
    119 N         -5.4899  -17.7362  -53.2997 N.am      22 UNK        -0.5000 
    120 CA        -6.2401  -16.9844  -52.2861 C.3       22 UNK         0.1400 
    121 C         -7.0988  -17.9280  -51.4026 C.2       22 UNK         0.5000 
    122 N         -7.9485  -17.3893  -50.5393 N.am      22 UNK        -0.7600 
    123 O         -7.0224  -19.1502  -51.5003 O.2       22 UNK        -0.5000 
    124 C124       -5.3576  -15.9993  -51.4607 C.3       23 UNK        -0.0398 
    125 S125       -3.8136  -16.7109  -50.7803 S.3       23 UNK        -0.2404 
    126 C126       -2.5825  -15.7189  -51.6793 C.3       23 UNK        -0.0205 
    127 H127        7.4657  -14.2984  -46.6823 H         1 UNK         0.0600 
    128 H128        7.1062  -14.6854  -44.9881 H         1 UNK         0.0600 
    129 H129        7.7232  -13.0974  -45.4268 H         1 UNK         0.0600 
    130 H130        3.7609  -13.8171  -46.5480 H         1 UNK         0.3000 
    131 H131        5.7919  -15.6612  -47.4403 H         1 UNK         0.0600 
    132 H132        4.0070  -15.6144  -48.8839 H         1 UNK         0.0800 
    133 H133        3.7303  -17.0921  -48.0290 H         1 UNK         0.0800 
    134 H134        2.4003  -14.0992  -49.4802 H         1 UNK         0.0800 
    135 H135        0.8870  -13.7470  -48.6942 H         1 UNK         0.0800 
    136 H136       -0.9958  -14.3446  -49.9456 H         1 UNK         0.1150 
    137 H137       -1.0246  -17.8085  -52.4624 H         1 UNK         0.1150 
    138 H138        2.4942  -16.8220  -50.2394 H         1 UNK         0.1150 
    139 H139        1.0154  -19.0299  -52.8674 H         1 UNK         0.0800 
    140 H140        2.5261  -18.3698  -52.2965 H         1 UNK         0.0800 
    141 H141       -0.1728  -21.4529  -51.2227 H         1 UNK         0.0800 
    142 H142       -0.7306  -19.8100  -51.0454 H         1 UNK         0.0800 
    143 H143        0.1510  -21.6756  -48.8042 H         1 UNK         0.0600 
    144 H144       -0.0823  -18.8195  -48.6596 H         1 UNK         0.3000 
    145 H145       -0.5438  -18.7148  -45.1176 H         1 UNK         0.0600 
    146 H146        1.9907  -18.2259  -46.7502 H         1 UNK         0.0600 
    147 H147        1.5877  -17.4166  -45.2265 H         1 UNK         0.0600 
    148 H148        1.8564  -19.1427  -45.2666 H         1 UNK         0.0600 
    149 H149       -0.0654  -16.5746  -46.8186 H         1 UNK         0.3000 
    150 H150       -2.1687  -15.6355  -48.2501 H         1 UNK         0.0600 
    151 H151       -4.5049  -16.4118  -47.7957 H         1 UNK         0.0600 
    152 H152       -4.3432  -14.6965  -47.4773 H         1 UNK         0.0600 
    153 H153       -4.3810  -15.8411  -46.1357 H         1 UNK         0.0600 
    154 H154       -1.5185  -15.1971  -45.4504 H         1 UNK         0.3000 
    155 H155       -0.5612  -11.8405  -45.9776 H         1 UNK         0.0600 
    156 H156       -2.9471  -11.3163  -45.5208 H         1 UNK         0.0600 
    157 H157       -1.9957  -11.1920  -44.0495 H         1 UNK         0.0600 
    158 H158       -3.0254  -12.5989  -44.3187 H         1 UNK         0.0600 
    159 H159       -0.9375  -13.8377  -43.8041 H         1 UNK         0.3000 
    160 H160        1.9400  -15.3193  -44.1036 H         1 UNK         0.0600 
    161 H161        2.3536  -13.0076  -42.1388 H         1 UNK         0.0600 
    162 H162        3.4436  -13.4402  -43.4532 H         1 UNK         0.0600 
    163 H163        3.2082  -14.5527  -42.1200 H         1 UNK         0.0600 
    164 H164        0.9068  -14.9993  -41.5587 H         1 UNK         0.3000 
    165 H165       -1.3048  -15.7570  -40.8251 H         1 UNK         0.0600 
    166 H166       -2.8881  -17.6628  -41.0127 H         1 UNK         0.0600 
    167 H167       -3.1078  -16.5502  -42.3549 H         1 UNK         0.0600 
    168 H168       -2.2468  -18.0630  -42.6057 H         1 UNK         0.0600 
    169 H169       -0.3521  -18.4963  -41.1575 H         1 UNK         0.3000 
    170 H170        2.7200  -18.0981  -39.5520 H         1 UNK         0.0600 
    171 H171        1.2825  -18.0116  -37.5118 H         1 UNK         0.0600 
    172 H172        0.2092  -19.2244  -38.1994 H         1 UNK         0.0600 
    173 H173        1.8772  -19.6383  -37.7997 H         1 UNK         0.0600 
    174 H174        1.1731  -20.4290  -40.1300 H         1 UNK         0.3000 
    175 H175        2.3751  -21.7948  -41.8706 H         1 UNK         0.0600 
    176 H176        0.1843  -20.3790  -43.5140 H         1 UNK         0.0600 
    177 H177        0.4437  -22.1186  -43.4879 H         1 UNK         0.0600 
    178 H178       -0.0928  -21.2937  -42.0368 H         1 UNK         0.0600 
    179 H179        3.1827  -19.9297  -43.8569 H         1 UNK         0.3000 
    180 H180        4.9867  -22.1785  -45.7370 H         1 UNK         0.0600 
    181 H181        2.5684  -20.7781  -46.9968 H         1 UNK         0.0600 
    182 H182        2.9181  -22.4944  -47.1125 H         1 UNK         0.0600 
    183 H183        4.0099  -21.3302  -47.8444 H         1 UNK         0.0600 
    184 H184        4.4602  -19.3986  -46.1761 H         1 UNK         0.3000 
    185 H185        5.9166  -17.9024  -43.6979 H         1 UNK         0.0600 
    186 H186        8.2085  -18.7847  -45.5261 H         1 UNK         0.0600 
    187 H187        8.1696  -17.2927  -44.5866 H         1 UNK         0.0600 
    188 H188        8.1974  -18.8428  -43.7672 H         1 UNK         0.0600 
    189 H189        6.2693  -17.6992  -46.6491 H         1 UNK         0.3000 
    190 H190       -2.6278  -19.5442  -48.4922 H         1 UNK         0.3000 
    191 H191       -4.5690  -21.5862  -49.2978 H         1 UNK         0.0600 
    192 H192       -5.0427  -19.1615  -49.6358 H         1 UNK         0.0600 
    193 H193       -6.2417  -19.9301  -48.6099 H         1 UNK         0.0600 
    194 H194       -5.0094  -18.8997  -47.8949 H         1 UNK         0.0600 
    195 H195       -3.3020  -20.1117  -46.2841 H         1 UNK         0.3000 
    196 H196       -4.8138  -21.6601  -44.4470 H         1 UNK         0.0600 
    197 H197       -3.0789  -20.8888  -42.8053 H         1 UNK         0.0600 
    198 H198       -3.6744  -19.5764  -43.8134 H         1 UNK         0.0600 
    199 H199       -2.0968  -20.2893  -44.1369 H         1 UNK         0.0600 
    200 H200       -1.6251  -22.2833  -45.9487 H         1 UNK         0.3000 
    201 H201       -1.1458  -24.8012  -44.6463 H         1 UNK         0.0600 
    202 H202        0.6477  -23.3560  -45.6251 H         1 UNK         0.0600 
    203 H203       -0.0054  -23.6217  -47.2394 H         1 UNK         0.0600 
    204 H204        0.6809  -24.9625  -46.3300 H         1 UNK         0.0600 
    205 H205       -3.3810  -23.9716  -47.0722 H         1 UNK         0.3000 
    206 H206       -4.6544  -24.9787  -48.5431 H         1 UNK         0.0600 
    207 H207       -3.9900  -27.6351  -47.1774 H         1 UNK         0.0600 
    208 H208       -5.2239  -26.4974  -46.6355 H         1 UNK         0.0600 
    209 H209       -5.3834  -27.2930  -48.1921 H         1 UNK         0.0600 
    210 H210       -1.9549  -24.4593  -49.2656 H         1 UNK         0.3000 
    211 H211       -1.1168  -26.5922  -51.1359 H         1 UNK         0.0600 
    212 H212        0.8538  -25.1031  -51.4567 H         1 UNK         0.0600 
    213 H213        0.6078  -25.4509  -49.7517 H         1 UNK         0.0600 
    214 H214        0.1347  -23.8863  -50.4091 H         1 UNK         0.0600 
    215 H215       -2.5610  -23.3372  -51.0849 H         1 UNK         0.3000 
    216 H216       -3.3114  -23.5873  -53.9429 H         1 UNK         0.0600 
    217 H217       -2.4384  -21.3903  -54.5030 H         1 UNK         0.0600 
    218 H218       -1.1097  -22.3072  -53.8190 H         1 UNK         0.0600 
    219 H219       -1.9320  -21.0861  -52.8463 H         1 UNK         0.0600 
    220 H220       -4.7744  -23.8900  -51.4580 H         1 UNK         0.3000 
    221 H221       -6.4073  -21.6378  -50.8555 H         1 UNK         0.0600 
    222 H222       -6.8800  -24.6440  -50.5135 H         1 UNK         0.0600 
    223 H223       -6.2528  -23.5177  -49.3083 H         1 UNK         0.0600 
    224 H224       -7.9155  -23.3893  -49.8424 H         1 UNK         0.0600 
    225 H225       -7.7571  -20.6432  -52.1166 H         1 UNK         0.3000 
    226 H226       -9.3105  -20.0501  -53.5285 H         1 UNK         0.0600 
    227 H227      -10.7206  -21.9623  -52.7117 H         1 UNK         0.0600 
    228 H228      -11.0400  -21.5550  -54.3890 H         1 UNK         0.0600 
    229 H229      -10.0815  -22.9749  -54.0071 H         1 UNK         0.0600 
    230 H230       -6.5256  -21.3946  -54.3890 H         1 UNK         0.3000 
    231 H231       -6.9263  -21.1928  -57.3449 H         1 UNK         0.0600 
    232 H232       -4.5477  -22.2812  -55.7492 H         1 UNK         0.0600 
    233 H233       -4.7125  -22.2583  -57.4974 H         1 UNK         0.0600 
    234 H234       -5.7876  -23.2572  -56.5310 H         1 UNK         0.0600 
    235 H235       -4.7828  -20.0955  -54.6583 H         1 UNK         0.3000 
    236 H236       -3.9769  -17.6950  -56.2485 H         1 UNK         0.0600 
    237 H237       -2.1438  -19.1032  -55.3259 H         1 UNK         0.0600 
    238 H238       -2.1654  -17.5126  -54.5863 H         1 UNK         0.0600 
    239 H239       -2.7922  -18.8981  -53.6966 H         1 UNK         0.0600 
    240 H240       -5.4189  -18.7276  -53.1100 H         1 UNK         0.3000 
    241 H241       -6.9718  -16.3882  -52.8345 H         1 UNK         0.0600 
    242 H242       -8.5107  -18.0005  -49.9689 H         1 UNK         0.3800 
    243 H243       -8.0579  -16.3919  -50.4468 H         1 UNK         0.3800 
    244 H244       -5.1043  -15.1480  -52.0930 H         1 UNK         0.0800 
    245 H245       -5.9199  -15.5658  -50.6330 H         1 UNK         0.0800 
    246 H246       -2.6881  -15.8901  -52.7508 H         1 UNK         0.0800 
    247 H247       -2.7870  -14.6594  -51.5165 H         1 UNK         0.0800 
@<TRIPOS>BOND
     1    1    2 1    
     2    1  127 1    
     3    1  128 1    
     4    1  129 1    
     5    2    3 2    
     6    2    4 am   BACKBONE|DICT|INTERRES
     7    4    5 1    
     8    4  130 1    
     9    5    6 1    
    10    5   65 1    
    11    5  131 1    
    12    6    7 1    
    13    6  132 1    
    14    6  133 1    
    15    7    8 1    
    16    8    9 1    
    17    8  134 1    
    18    8  135 1    
    19    9   10 ar   
    20    9   14 ar   
    21   10   11 ar   
    22   10  136 1    
    23   11   12 ar   
    24   11  126 1    
    25   12   13 ar   
    26   12  137 1    
    27   13   14 ar   
    28   13   15 1    
    29   14  138 1    
    30   15   16 1    
    31   15  139 1    
    32   15  140 1    
    33   16   17 1    
    34   17   18 1    
    35   17  141 1    
    36   17  142 1    
    37   18   19 1    
    38   18   67 1    
    39   18  143 1    
    40   19   20 am   BACKBONE|DICT|INTERRES
    41   19  144 1    
    42   20   21 2    
    43   20   22 1    
    44   22   23 1    
    45   22   24 1    
    46   22  145 1    
    47   23  146 1    
    48   23  147 1    
    49   23  148 1    
    50   24   25 am   BACKBONE|DICT|INTERRES
    51   24  149 1    
    52   25   26 2    
    53   25   27 1    
    54   27   28 1    
    55   27   29 1    
    56   27  150 1    
    57   28  151 1    
    58   28  152 1    
    59   28  153 1    
    60   29   30 am   BACKBONE|DICT|INTERRES
    61   29  154 1    
    62   30   31 2    
    63   30   32 1    
    64   32   33 1    
    65   32   34 1    
    66   32  155 1    
    67   33  156 1    
    68   33  157 1    
    69   33  158 1    
    70   34   35 am   BACKBONE|DICT|INTERRES
    71   34  159 1    
    72   35   36 2    
    73   35   37 1    
    74   37   38 1    
    75   37   39 1    
    76   37  160 1    
    77   38  161 1    
    78   38  162 1    
    79   38  163 1    
    80   39   40 am   BACKBONE|DICT|INTERRES
    81   39  164 1    
    82   40   41 2    
    83   40   42 1    
    84   42   43 1    
    85   42   44 1    
    86   42  165 1    
    87   43  166 1    
    88   43  167 1    
    89   43  168 1    
    90   44   45 am   BACKBONE|DICT|INTERRES
    91   44  169 1    
    92   45   46 2    
    93   45   47 1    
    94   47   48 1    
    95   47   49 1    
    96   47  170 1    
    97   48  171 1    
    98   48  172 1    
    99   48  173 1    
   100   49   50 am   BACKBONE|DICT|INTERRES
   101   49  174 1    
   102   50   51 2    
   103   50   52 1    
   104   52   53 1    
   105   52   54 1    
   106   52  175 1    
   107   53  176 1    
   108   53  177 1    
   109   53  178 1    
   110   54   55 am   BACKBONE|DICT|INTERRES
   111   54  179 1    
   112   55   56 2    
   113   55   57 1    
   114   57   58 1    
   115   57   59 1    
   116   57  180 1    
   117   58  181 1    
   118   58  182 1    
   119   58  183 1    
   120   59   60 am   BACKBONE|DICT|INTERRES
   121   59  184 1    
   122   60   61 2    
   123   60   62 1    
   124   62   63 1    
   125   62   64 1    
   126   62  185 1    
   127   63  186 1    
   128   63  187 1    
   129   63  188 1    
   130   64   65 am   BACKBONE|DICT|INTERRES
   131   64  189 1    
   132   65   66 2    
   133   67   68 2    
   134   67   69 am   BACKBONE|DICT|INTERRES
   135   69   70 1    
   136   69  190 1    
   137   70   71 1    
   138   70   72 1    
   139   70  191 1    
   140   71  192 1    
   141   71  193 1    
   142   71  194 1    
   143   72   73 2    
   144   72   74 am   BACKBONE|DICT|INTERRES
   145   74   75 1    
   146   74  195 1    
   147   75   76 1    
   148   75   77 1    
   149   75  196 1    
   150   76  197 1    
   151   76  198 1    
   152   76  199 1    
   153   77   78 2    
   154   77   79 am   BACKBONE|DICT|INTERRES
   155   79   80 1    
   156   79  200 1    
   157   80   81 1    
   158   80   82 1    
   159   80  201 1    
   160   81  202 1    
   161   81  203 1    
   162   81  204 1    
   163   82   83 2    
   164   82   84 am   BACKBONE|DICT|INTERRES
   165   84   85 1    
   166   84  205 1    
   167   85   86 1    
   168   85   87 1    
   169   85  206 1    
   170   86  207 1    
   171   86  208 1    
   172   86  209 1    
   173   87   88 2    
   174   87   89 am   BACKBONE|DICT|INTERRES
   175   89   90 1    
   176   89  210 1    
   177   90   91 1    
   178   90   92 1    
   179   90  211 1    
   180   91  212 1    
   181   91  213 1    
   182   91  214 1    
   183   92   93 2    
   184   92   94 am   BACKBONE|DICT|INTERRES
   185   94   95 1    
   186   94  215 1    
   187   95   96 1    
   188   95   97 1    
   189   95  216 1    
   190   96  217 1    
   191   96  218 1    
   192   96  219 1    
   193   97   98 2    
   194   97   99 am   BACKBONE|DICT|INTERRES
   195   99  100 1    
   196   99  220 1    
   197  100  101 1    
   198  100  102 1    
   199  100  221 1    
   200  101  222 1    
   201  101  223 1    
   202  101  224 1    
   203  102  103 2    
   204  102  104 am   BACKBONE|DICT|INTERRES
   205  104  105 1    
   206  104  225 1    
   207  105  106 1    
   208  105  107 1    
   209  105  226 1    
   210  106  227 1    
   211  106  228 1    
   212  106  229 1    
   213  107  108 2    
   214  107  109 am   BACKBONE|DICT|INTERRES
   215  109  110 1    
   216  109  230 1    
   217  110  111 1    
   218  110  112 1    
   219  110  231 1    
   220  111  232 1    
   221  111  233 1    
   222  111  234 1    
   223  112  113 2    
   224  112  114 am   BACKBONE|DICT|INTERRES
   225  114  115 1    
   226  114  235 1    
   227  115  116 1    
   228  115  117 1    
   229  115  236 1    
   230  116  237 1    
   231  116  238 1    
   232  116  239 1    
   233  117  118 2    
   234  117  119 am   BACKBONE|DICT|INTERRES
   235  119  120 1    
   236  119  240 1    
   237  120  121 1    
   238  120  124 1    
   239  120  241 1    
   240  121  122 am   BACKBONE|DICT|INTERRES
   241  121  123 2    
   242  122  242 1    
   243  122  243 1    
   244  124  125 1    
   245  124  244 1    
   246  124  245 1    
   247  125  126 1    
   248  126  246 1    
   249  126  247 1    
@<TRIPOS>SUBSTRUCTURE
     1 UNK         1 GROUP             0       ****    0 ROOT    
