@<TRIPOS>MOLECULE
3R540
247   249    1
SMALL
USER_CHARGES


@<TRIPOS>ATOM
      1 CA         -4.3469  -15.3612  -49.6445 C.3       0 UNK        -0.1800 
      2 C          -3.0421  -14.5781  -49.7008 C.2       0 UNK         0.5000 
      3 O          -2.8327  -13.7980  -50.6298 O.2       0 UNK        -0.5000 
      4 N          -2.1600  -14.7928  -48.7183 N.am      1 UNK        -0.5000 
      5 CA         -0.8421  -14.1582  -48.6203 C.3       1 UNK         0.1400 
      6 C6          0.0730  -14.8607  -47.5845 C.3       23 UNK        -0.0398 
      7 S7          0.2591  -16.6377  -47.9225 S.3       23 UNK        -0.2404 
      8 C8          1.7464  -16.6547  -48.9634 C.3       23 UNK        -0.0205 
      9 C9          1.8076  -17.9489  -49.7536 C.ar      23 UNK        -0.0193 
     10 C10         1.2844  -18.0030  -51.0476 C.ar      23 UNK        -0.1150 
     11 C11         1.3008  -19.1989  -51.7766 C.ar      23 UNK        -0.0193 
     12 C12         1.8281  -20.3467  -51.1755 C.ar      23 UNK        -0.1150 
     13 C13         2.3500  -20.3106  -49.8786 C.ar      23 UNK        -0.0193 
     14 C14         2.3544  -19.0985  -49.1806 C.ar      23 UNK        -0.1150 
     15 C15         2.8939  -21.5923  -49.2491 C.3       23 UNK        -0.0205 
     16 S16         2.4441  -21.8153  -47.4915 S.3       23 UNK        -0.2404 
     17 C17         0.6241  -21.6790  -47.5397 C.3       23 UNK        -0.0398 
     18 CA         -0.1001  -23.0010  -47.2034 C.3       11 UNK         0.1400 
     19 N           0.2707  -23.5300  -45.8884 N.am      11 UNK        -0.5000 
     20 C          -0.0411  -24.7588  -45.4514 C.2       10 UNK         0.5000 
     21 O          -0.6642  -25.5809  -46.1208 O.2       10 UNK        -0.5000 
     22 CA          0.3606  -25.1125  -44.0069 C.3       10 UNK         0.1400 
     23 CB          1.7813  -25.6945  -43.9739 C.3       10 UNK        -0.1800 
     24 N           0.2880  -23.9728  -43.0926 N.am      10 UNK        -0.5000 
     25 C          -0.8088  -23.2422  -42.8437 C.2       9 UNK         0.5000 
     26 O          -1.9173  -23.4961  -43.3150 O.2       9 UNK        -0.5000 
     27 CA         -0.6246  -21.9885  -41.9665 C.3       9 UNK         0.1400 
     28 CB         -1.0592  -22.2760  -40.5221 C.3       9 UNK        -0.1800 
     29 N           0.7510  -21.4777  -41.9647 N.am      9 UNK        -0.5000 
     30 C           1.3784  -20.9640  -43.0318 C.2       8 UNK         0.5000 
     31 O           0.8607  -20.8561  -44.1459 O.2       8 UNK        -0.5000 
     32 CA          2.8583  -20.5917  -42.8329 C.3       8 UNK         0.1400 
     33 CB          3.7602  -21.7129  -43.3736 C.3       8 UNK        -0.1800 
     34 N           3.2184  -19.3355  -43.4881 N.am      8 UNK        -0.5000 
     35 C           2.7729  -18.1288  -43.1187 C.2       7 UNK         0.5000 
     36 O           1.9710  -17.9448  -42.1988 O.2       7 UNK        -0.5000 
     37 CA          3.3199  -16.9302  -43.9191 C.3       7 UNK         0.1400 
     38 CB          2.4434  -16.6576  -45.1489 C.3       7 UNK        -0.1800 
     39 N           3.3850  -15.7172  -43.1050 N.am      7 UNK        -0.5000 
     40 C           4.2195  -15.5300  -42.0727 C.2       6 UNK         0.5000 
     41 O           5.1208  -16.3136  -41.7696 O.2       6 UNK        -0.5000 
     42 CA          3.9944  -14.2674  -41.2208 C.3       6 UNK         0.1400 
     43 CB          4.6715  -13.0426  -41.8532 C.3       6 UNK        -0.1800 
     44 N           2.5719  -13.9892  -41.0281 N.am      6 UNK        -0.5000 
     45 C           1.7644  -14.6589  -40.1957 C.2       5 UNK         0.5000 
     46 O           2.1671  -15.5283  -39.4216 O.2       5 UNK        -0.5000 
     47 CA          0.2540  -14.3329  -40.2272 C.3       5 UNK         0.1400 
     48 CB         -0.1533  -13.4536  -39.0284 C.3       5 UNK        -0.1800 
     49 N          -0.2398  -13.7769  -41.4974 N.am      5 UNK        -0.5000 
     50 C           0.0180  -12.5823  -42.0456 C.2       4 UNK         0.5000 
     51 O           0.7152  -11.7128  -41.5190 O.2       4 UNK        -0.5000 
     52 CA         -0.5619  -12.3412  -43.4512 C.3       4 UNK         0.1400 
     53 CB         -1.7701  -11.3954  -43.3914 C.3       4 UNK        -0.1800 
     54 N           0.4378  -11.7845  -44.3621 N.am      4 UNK        -0.5000 
     55 C           1.5978  -12.3649  -44.6939 C.2       3 UNK         0.5000 
     56 O           1.9440  -13.4720  -44.2767 O.2       3 UNK        -0.5000 
     57 CA          2.4909  -11.5901  -45.6867 C.3       3 UNK         0.1400 
     58 CB          3.7927  -12.3420  -46.0208 C.3       3 UNK        -0.1800 
     59 N           1.7765  -11.3317  -46.9361 N.am      3 UNK        -0.5000 
     60 C           0.8708  -10.3663  -47.1492 C.2       2 UNK         0.5000 
     61 O           0.5925   -9.4954  -46.3243 O.2       2 UNK        -0.5000 
     62 CA          0.1025  -10.4405  -48.4838 C.3       2 UNK         0.1400 
     63 CB          0.8629   -9.6980  -49.5927 C.3       2 UNK        -0.1800 
     64 N          -0.1244  -11.8308  -48.8920 N.am      2 UNK        -0.5000 
     65 C          -0.9629  -12.6656  -48.2615 C.2       1 UNK         0.5000 
     66 O          -1.7490  -12.3118  -47.3793 O.2       1 UNK        -0.5000 
     67 C          -1.6226  -22.7992  -47.3260 C.2       11 UNK         0.5000 
     68 O          -2.1802  -23.0306  -48.3988 O.2       11 UNK        -0.5000 
     69 N          -2.2685  -22.3704  -46.2331 N.am      12 UNK        -0.5000 
     70 CA         -3.7175  -22.1968  -46.1555 C.3       12 UNK         0.1400 
     71 CB         -4.0687  -21.2754  -44.9784 C.3       12 UNK        -0.1800 
     72 C          -4.4372  -23.5504  -46.0415 C.2       12 UNK         0.5000 
     73 O          -5.4576  -23.7466  -46.6998 O.2       12 UNK        -0.5000 
     74 N          -3.8673  -24.4773  -45.2567 N.am      13 UNK        -0.5000 
     75 CA         -4.3497  -25.8523  -45.0951 C.3       13 UNK         0.1400 
     76 CB         -3.5457  -26.5492  -43.9879 C.3       13 UNK        -0.1800 
     77 C          -4.2969  -26.6668  -46.4030 C.2       13 UNK         0.5000 
     78 O          -5.2183  -27.4348  -46.6802 O.2       13 UNK        -0.5000 
     79 N          -3.2439  -26.4490  -47.2032 N.am      14 UNK        -0.5000 
     80 CA         -3.0741  -27.0068  -48.5476 C.3       14 UNK         0.1400 
     81 CB         -1.5908  -26.8989  -48.9377 C.3       14 UNK        -0.1800 
     82 C          -3.9529  -26.3234  -49.6175 C.2       14 UNK         0.5000 
     83 O          -3.9983  -26.8049  -50.7494 O.2       14 UNK        -0.5000 
     84 N          -4.5976  -25.2033  -49.2564 N.am      15 UNK        -0.5000 
     85 CA         -5.4162  -24.3120  -50.0859 C.3       15 UNK         0.1400 
     86 CB         -6.6233  -25.0505  -50.6980 C.3       15 UNK        -0.1800 
     87 C          -4.6197  -23.5247  -51.1452 C.2       15 UNK         0.5000 
     88 O          -5.2304  -22.8613  -51.9874 O.2       15 UNK        -0.5000 
     89 N          -3.2814  -23.5687  -51.0732 N.am      16 UNK        -0.5000 
     90 CA         -2.3615  -22.8025  -51.9112 C.3       16 UNK         0.1400 
     91 CB         -0.9150  -23.2536  -51.6556 C.3       16 UNK        -0.1800 
     92 C          -2.5289  -21.3001  -51.6644 C.2       16 UNK         0.5000 
     93 O          -2.7660  -20.5530  -52.6115 O.2       16 UNK        -0.5000 
     94 N          -2.5142  -20.9076  -50.3863 N.am      17 UNK        -0.5000 
     95 CA         -2.8255  -19.5588  -49.9184 C.3       17 UNK         0.1400 
     96 CB         -2.0035  -19.2623  -48.6547 C.3       17 UNK        -0.1800 
     97 C          -4.3413  -19.3879  -49.6958 C.2       17 UNK         0.5000 
     98 O          -4.7619  -18.9137  -48.6394 O.2       17 UNK        -0.5000 
     99 N          -5.1389  -19.7938  -50.6897 N.am      18 UNK        -0.5000 
    100 CA        -6.5911  -19.6657  -50.6918 C.3       18 UNK         0.1400 
    101 CB        -7.2553  -20.7998  -49.8885 C.3       18 UNK        -0.1800 
    102 C         -7.1100  -19.6084  -52.1315 C.2       18 UNK         0.5000 
    103 O         -7.7501  -18.6209  -52.4954 O.2       18 UNK        -0.5000 
    104 N         -6.8201  -20.6450  -52.9323 N.am      19 UNK        -0.5000 
    105 CA        -7.3609  -20.7749  -54.2892 C.3       19 UNK         0.1400 
    106 CB        -8.7830  -21.3625  -54.2237 C.3       19 UNK        -0.1800 
    107 C         -6.4879  -21.6050  -55.2435 C.2       19 UNK         0.5000 
    108 O         -6.5695  -21.3880  -56.4530 O.2       19 UNK        -0.5000 
    109 N         -5.6869  -22.5448  -54.7223 N.am      20 UNK        -0.5000 
    110 CA        -4.9454  -23.5131  -55.5367 C.3       20 UNK         0.1400 
    111 CB        -4.6345  -24.7615  -54.6948 C.3       20 UNK        -0.1800 
    112 C         -3.6676  -22.9467  -56.1867 C.2       20 UNK         0.5000 
    113 O         -3.1449  -23.5770  -57.1074 O.2       20 UNK        -0.5000 
    114 N         -3.1868  -21.7858  -55.7211 N.am      21 UNK        -0.5000 
    115 CA        -2.0155  -21.1075  -56.2775 C.3       21 UNK         0.1400 
    116 CB        -0.7279  -21.6661  -55.6453 C.3       21 UNK        -0.1800 
    117 C         -2.1105  -19.5819  -56.1277 C.2       21 UNK         0.5000 
    118 O         -1.9487  -18.8665  -57.1170 O.2       21 UNK        -0.5000 
    119 N         -2.3736  -19.1156  -54.9027 N.am      22 UNK        -0.5000 
    120 CA        -2.3970  -17.6971  -54.5040 C.3       22 UNK         0.1400 
    121 C         -3.7997  -17.2333  -54.0122 C.2       22 UNK         0.5000 
    122 N         -4.8628  -17.9959  -54.2325 N.am      22 UNK        -0.7600 
    123 O         -3.9355  -16.1585  -53.4358 O.2       22 UNK        -0.5000 
    124 C124       -1.2919  -17.3863  -53.4561 C.3       23 UNK        -0.0398 
    125 S125        0.3921  -17.7482  -54.0659 S.3       23 UNK        -0.2404 
    126 C126        0.7576  -19.3171  -53.2020 C.3       23 UNK        -0.0205 
    127 H127       -4.4501  -15.9821  -50.5349 H         1 UNK         0.0600 
    128 H128       -5.1948  -14.6776  -49.6041 H         1 UNK         0.0600 
    129 H129       -4.3923  -16.0124  -48.7710 H         1 UNK         0.0600 
    130 H130       -2.3896  -15.4320  -47.9716 H         1 UNK         0.3000 
    131 H131       -0.3669  -14.2395  -49.6005 H         1 UNK         0.0600 
    132 H132        1.0628  -14.4017  -47.5562 H         1 UNK         0.0800 
    133 H133       -0.3347  -14.7568  -46.5768 H         1 UNK         0.0800 
    134 H134        1.7357  -15.8024  -49.6443 H         1 UNK         0.0800 
    135 H135        2.6342  -16.5458  -48.3389 H         1 UNK         0.0800 
    136 H136        0.8610  -17.1052  -51.4719 H         1 UNK         0.1150 
    137 H137        1.8318  -21.2779  -51.7246 H         1 UNK         0.1150 
    138 H138        2.7524  -19.0538  -48.1768 H         1 UNK         0.1150 
    139 H139        2.5436  -22.4656  -49.8016 H         1 UNK         0.0800 
    140 H140        3.9810  -21.5880  -49.3346 H         1 UNK         0.0800 
    141 H141        0.3140  -21.3355  -48.5270 H         1 UNK         0.0800 
    142 H142        0.3339  -20.8898  -46.8433 H         1 UNK         0.0800 
    143 H143        0.1882  -23.7420  -47.9524 H         1 UNK         0.0600 
    144 H144        0.7613  -22.8930  -45.2742 H         1 UNK         0.3000 
    145 H145       -0.3314  -25.8741  -43.6438 H         1 UNK         0.0600 
    146 H146        2.0506  -26.0231  -42.9700 H         1 UNK         0.0600 
    147 H147        1.8629  -26.5615  -44.6310 H         1 UNK         0.0600 
    148 H148        2.5236  -24.9645  -44.2998 H         1 UNK         0.0600 
    149 H149        1.1509  -23.6932  -42.6517 H         1 UNK         0.3000 
    150 H150       -1.2735  -21.2094  -42.3721 H         1 UNK         0.0600 
    151 H151       -0.4320  -23.0371  -40.0562 H         1 UNK         0.0600 
    152 H152       -2.0893  -22.6338  -40.4883 H         1 UNK         0.0600 
    153 H153       -1.0095  -21.3764  -39.9084 H         1 UNK         0.0600 
    154 H154        1.2476  -21.5383  -41.0872 H         1 UNK         0.3000 
    155 H155        3.0535  -20.4782  -41.7643 H         1 UNK         0.0600 
    156 H156        3.6209  -21.8598  -44.4457 H         1 UNK         0.0600 
    157 H157        3.5445  -22.6625  -42.8823 H         1 UNK         0.0600 
    158 H158        4.8134  -21.4917  -43.1995 H         1 UNK         0.0600 
    159 H159        3.8373  -19.4087  -44.2819 H         1 UNK         0.3000 
    160 H160        4.3308  -17.1663  -44.2578 H         1 UNK         0.0600 
    161 H161        1.4246  -16.3912  -44.8645 H         1 UNK         0.0600 
    162 H162        2.3855  -17.5367  -45.7921 H         1 UNK         0.0600 
    163 H163        2.8457  -15.8409  -45.7485 H         1 UNK         0.0600 
    164 H164        2.7021  -14.9964  -43.3180 H         1 UNK         0.3000 
    165 H165        4.4523  -14.4380  -40.2441 H         1 UNK         0.0600 
    166 H166        4.5962  -12.1723  -41.2012 H         1 UNK         0.0600 
    167 H167        5.7319  -13.2280  -42.0289 H         1 UNK         0.0600 
    168 H168        4.2188  -12.7825  -42.8089 H         1 UNK         0.0600 
    169 H169        2.1628  -13.2617  -41.6008 H         1 UNK         0.3000 
    170 H170       -0.2596  -15.2891  -40.1146 H         1 UNK         0.0600 
    171 H171        0.0897  -13.9470  -38.0866 H         1 UNK         0.0600 
    172 H172        0.3624  -12.4931  -39.0307 H         1 UNK         0.0600 
    173 H173       -1.2260  -13.2604  -39.0262 H         1 UNK         0.0600 
    174 H174       -0.7977  -14.4226  -42.0389 H         1 UNK         0.3000 
    175 H175       -0.8908  -13.2946  -43.8699 H         1 UNK         0.0600 
    176 H176       -2.5464  -11.7935  -42.7369 H         1 UNK         0.0600 
    177 H177       -1.4916  -10.4114  -43.0117 H         1 UNK         0.0600 
    178 H178       -2.2137  -11.2614  -44.3785 H         1 UNK         0.0600 
    179 H179        0.2365  -10.8742  -44.7582 H         1 UNK         0.3000 
    180 H180        2.7576  -10.6398  -45.2199 H         1 UNK         0.0600 
    181 H181        3.5934  -13.3131  -46.4761 H         1 UNK         0.0600 
    182 H182        4.3887  -12.5166  -45.1254 H         1 UNK         0.0600 
    183 H183        4.4119  -11.7692  -46.7113 H         1 UNK         0.0600 
    184 H184        1.9256  -12.0038  -47.6726 H         1 UNK         0.3000 
    185 H185       -0.8652   -9.9536  -48.3446 H         1 UNK         0.0600 
    186 H186        1.0279   -8.6548  -49.3199 H         1 UNK         0.0600 
    187 H187        1.8390  -10.1452  -49.7847 H         1 UNK         0.0600 
    188 H188        0.3011   -9.7033  -50.5270 H         1 UNK         0.0600 
    189 H189        0.4642  -12.1840  -49.6329 H         1 UNK         0.3000 
    190 H190       -1.7479  -22.2386  -45.3774 H         1 UNK         0.3000 
    191 H191       -4.0599  -21.7118  -47.0728 H         1 UNK         0.0600 
    192 H192       -3.5884  -20.3026  -45.0850 H         1 UNK         0.0600 
    193 H193       -5.1444  -21.1024  -44.9296 H         1 UNK         0.0600 
    194 H194       -3.7617  -21.6987  -44.0219 H         1 UNK         0.0600 
    195 H195       -3.0572  -24.2107  -44.7043 H         1 UNK         0.3000 
    196 H196       -5.3931  -25.8007  -44.7773 H         1 UNK         0.0600 
    197 H197       -3.9373  -27.5482  -43.7927 H         1 UNK         0.0600 
    198 H198       -3.5931  -25.9912  -43.0525 H         1 UNK         0.0600 
    199 H199       -2.4966  -26.6572  -44.2618 H         1 UNK         0.0600 
    200 H200       -2.4841  -25.8692  -46.8596 H         1 UNK         0.3000 
    201 H201       -3.3479  -28.0635  -48.5245 H         1 UNK         0.0600 
    202 H202       -1.4083  -27.3309  -49.9224 H         1 UNK         0.0600 
    203 H203       -0.9575  -27.4329  -48.2289 H         1 UNK         0.0600 
    204 H204       -1.2582  -25.8604  -48.9671 H         1 UNK         0.0600 
    205 H205       -4.5019  -24.9039  -48.2941 H         1 UNK         0.3000 
    206 H206       -5.8087  -23.5618  -49.3994 H         1 UNK         0.0600 
    207 H207       -7.1777  -25.5987  -49.9363 H         1 UNK         0.0600 
    208 H208       -7.3178  -24.3479  -51.1601 H         1 UNK         0.0600 
    209 H209       -6.3196  -25.7581  -51.4698 H         1 UNK         0.0600 
    210 H210       -2.8729  -24.0600  -50.2899 H         1 UNK         0.3000 
    211 H211       -2.5977  -22.9949  -52.9579 H         1 UNK         0.0600 
    212 H212       -0.6081  -23.0849  -50.6230 H         1 UNK         0.0600 
    213 H213       -0.2193  -22.7104  -52.2959 H         1 UNK         0.0600 
    214 H214       -0.7920  -24.3152  -51.8706 H         1 UNK         0.0600 
    215 H215       -2.4035  -21.6228  -49.6732 H         1 UNK         0.3000 
    216 H216       -2.5321  -18.8311  -50.6761 H         1 UNK         0.0600 
    217 H217       -2.1980  -18.2516  -48.2954 H         1 UNK         0.0600 
    218 H218       -0.9352  -19.3314  -48.8577 H         1 UNK         0.0600 
    219 H219       -2.2437  -19.9466  -47.8422 H         1 UNK         0.0600 
    220 H220       -4.7126  -20.1393  -51.5407 H         1 UNK         0.3000 
    221 H221       -6.8545  -18.7165  -50.2194 H         1 UNK         0.0600 
    222 H222       -7.0837  -21.7747  -50.3413 H         1 UNK         0.0600 
    223 H223       -6.8843  -20.8356  -48.8642 H         1 UNK         0.0600 
    224 H224       -8.3347  -20.6536  -49.8371 H         1 UNK         0.0600 
    225 H225       -6.2856  -21.4281  -52.5656 H         1 UNK         0.3000 
    226 H226       -7.4247  -19.7822  -54.7405 H         1 UNK         0.0600 
    227 H227       -9.2044  -21.4882  -55.2219 H         1 UNK         0.0600 
    228 H228       -8.7884  -22.3390  -53.7380 H         1 UNK         0.0600 
    229 H229       -9.4581  -20.7096  -53.6703 H         1 UNK         0.0600 
    230 H230       -5.6322  -22.6764  -53.7151 H         1 UNK         0.3000 
    231 H231       -5.5955  -23.8339  -56.3537 H         1 UNK         0.0600 
    232 H232       -3.9381  -24.5493  -53.8866 H         1 UNK         0.0600 
    233 H233       -4.1864  -25.5430  -55.3095 H         1 UNK         0.0600 
    234 H234       -5.5408  -25.1769  -54.2536 H         1 UNK         0.0600 
    235 H235       -3.6794  -21.3202  -54.9733 H         1 UNK         0.3000 
    236 H236       -1.9708  -21.3002  -57.3519 H         1 UNK         0.0600 
    237 H237        0.1447  -21.0821  -55.9408 H         1 UNK         0.0600 
    238 H238       -0.7810  -21.6610  -54.5577 H         1 UNK         0.0600 
    239 H239       -0.5521  -22.6946  -55.9604 H         1 UNK         0.0600 
    240 H240       -2.4933  -19.7644  -54.1259 H         1 UNK         0.3000 
    241 H241       -2.1954  -17.0736  -55.3764 H         1 UNK         0.0600 
    242 H242       -5.7689  -17.6846  -53.9181 H         1 UNK         0.3800 
    243 H243       -4.7697  -18.8488  -54.7556 H         1 UNK         0.3800 
    244 H244       -1.3118  -16.3303  -53.1817 H         1 UNK         0.0800 
    245 H245       -1.4728  -17.9395  -52.5347 H         1 UNK         0.0800 
    246 H246        1.4840  -19.8615  -53.8069 H         1 UNK         0.0800 
    247 H247       -0.1423  -19.9292  -53.1782 H         1 UNK         0.0800 
@<TRIPOS>BOND
     1    1    2 1    
     2    1  127 1    
     3    1  128 1    
     4    1  129 1    
     5    2    3 2    
     6    2    4 am   BACKBONE|DICT|INTERRES
     7    4    5 1    
     8    4  130 1    
     9    5    6 1    
    10    5   65 1    
    11    5  131 1    
    12    6    7 1    
    13    6  132 1    
    14    6  133 1    
    15    7    8 1    
    16    8    9 1    
    17    8  134 1    
    18    8  135 1    
    19    9   10 ar   
    20    9   14 ar   
    21   10   11 ar   
    22   10  136 1    
    23   11   12 ar   
    24   11  126 1    
    25   12   13 ar   
    26   12  137 1    
    27   13   14 ar   
    28   13   15 1    
    29   14  138 1    
    30   15   16 1    
    31   15  139 1    
    32   15  140 1    
    33   16   17 1    
    34   17   18 1    
    35   17  141 1    
    36   17  142 1    
    37   18   19 1    
    38   18   67 1    
    39   18  143 1    
    40   19   20 am   BACKBONE|DICT|INTERRES
    41   19  144 1    
    42   20   21 2    
    43   20   22 1    
    44   22   23 1    
    45   22   24 1    
    46   22  145 1    
    47   23  146 1    
    48   23  147 1    
    49   23  148 1    
    50   24   25 am   BACKBONE|DICT|INTERRES
    51   24  149 1    
    52   25   26 2    
    53   25   27 1    
    54   27   28 1    
    55   27   29 1    
    56   27  150 1    
    57   28  151 1    
    58   28  152 1    
    59   28  153 1    
    60   29   30 am   BACKBONE|DICT|INTERRES
    61   29  154 1    
    62   30   31 2    
    63   30   32 1    
    64   32   33 1    
    65   32   34 1    
    66   32  155 1    
    67   33  156 1    
    68   33  157 1    
    69   33  158 1    
    70   34   35 am   BACKBONE|DICT|INTERRES
    71   34  159 1    
    72   35   36 2    
    73   35   37 1    
    74   37   38 1    
    75   37   39 1    
    76   37  160 1    
    77   38  161 1    
    78   38  162 1    
    79   38  163 1    
    80   39   40 am   BACKBONE|DICT|INTERRES
    81   39  164 1    
    82   40   41 2    
    83   40   42 1    
    84   42   43 1    
    85   42   44 1    
    86   42  165 1    
    87   43  166 1    
    88   43  167 1    
    89   43  168 1    
    90   44   45 am   BACKBONE|DICT|INTERRES
    91   44  169 1    
    92   45   46 2    
    93   45   47 1    
    94   47   48 1    
    95   47   49 1    
    96   47  170 1    
    97   48  171 1    
    98   48  172 1    
    99   48  173 1    
   100   49   50 am   BACKBONE|DICT|INTERRES
   101   49  174 1    
   102   50   51 2    
   103   50   52 1    
   104   52   53 1    
   105   52   54 1    
   106   52  175 1    
   107   53  176 1    
   108   53  177 1    
   109   53  178 1    
   110   54   55 am   BACKBONE|DICT|INTERRES
   111   54  179 1    
   112   55   56 2    
   113   55   57 1    
   114   57   58 1    
   115   57   59 1    
   116   57  180 1    
   117   58  181 1    
   118   58  182 1    
   119   58  183 1    
   120   59   60 am   BACKBONE|DICT|INTERRES
   121   59  184 1    
   122   60   61 2    
   123   60   62 1    
   124   62   63 1    
   125   62   64 1    
   126   62  185 1    
   127   63  186 1    
   128   63  187 1    
   129   63  188 1    
   130   64   65 am   BACKBONE|DICT|INTERRES
   131   64  189 1    
   132   65   66 2    
   133   67   68 2    
   134   67   69 am   BACKBONE|DICT|INTERRES
   135   69   70 1    
   136   69  190 1    
   137   70   71 1    
   138   70   72 1    
   139   70  191 1    
   140   71  192 1    
   141   71  193 1    
   142   71  194 1    
   143   72   73 2    
   144   72   74 am   BACKBONE|DICT|INTERRES
   145   74   75 1    
   146   74  195 1    
   147   75   76 1    
   148   75   77 1    
   149   75  196 1    
   150   76  197 1    
   151   76  198 1    
   152   76  199 1    
   153   77   78 2    
   154   77   79 am   BACKBONE|DICT|INTERRES
   155   79   80 1    
   156   79  200 1    
   157   80   81 1    
   158   80   82 1    
   159   80  201 1    
   160   81  202 1    
   161   81  203 1    
   162   81  204 1    
   163   82   83 2    
   164   82   84 am   BACKBONE|DICT|INTERRES
   165   84   85 1    
   166   84  205 1    
   167   85   86 1    
   168   85   87 1    
   169   85  206 1    
   170   86  207 1    
   171   86  208 1    
   172   86  209 1    
   173   87   88 2    
   174   87   89 am   BACKBONE|DICT|INTERRES
   175   89   90 1    
   176   89  210 1    
   177   90   91 1    
   178   90   92 1    
   179   90  211 1    
   180   91  212 1    
   181   91  213 1    
   182   91  214 1    
   183   92   93 2    
   184   92   94 am   BACKBONE|DICT|INTERRES
   185   94   95 1    
   186   94  215 1    
   187   95   96 1    
   188   95   97 1    
   189   95  216 1    
   190   96  217 1    
   191   96  218 1    
   192   96  219 1    
   193   97   98 2    
   194   97   99 am   BACKBONE|DICT|INTERRES
   195   99  100 1    
   196   99  220 1    
   197  100  101 1    
   198  100  102 1    
   199  100  221 1    
   200  101  222 1    
   201  101  223 1    
   202  101  224 1    
   203  102  103 2    
   204  102  104 am   BACKBONE|DICT|INTERRES
   205  104  105 1    
   206  104  225 1    
   207  105  106 1    
   208  105  107 1    
   209  105  226 1    
   210  106  227 1    
   211  106  228 1    
   212  106  229 1    
   213  107  108 2    
   214  107  109 am   BACKBONE|DICT|INTERRES
   215  109  110 1    
   216  109  230 1    
   217  110  111 1    
   218  110  112 1    
   219  110  231 1    
   220  111  232 1    
   221  111  233 1    
   222  111  234 1    
   223  112  113 2    
   224  112  114 am   BACKBONE|DICT|INTERRES
   225  114  115 1    
   226  114  235 1    
   227  115  116 1    
   228  115  117 1    
   229  115  236 1    
   230  116  237 1    
   231  116  238 1    
   232  116  239 1    
   233  117  118 2    
   234  117  119 am   BACKBONE|DICT|INTERRES
   235  119  120 1    
   236  119  240 1    
   237  120  121 1    
   238  120  124 1    
   239  120  241 1    
   240  121  122 am   BACKBONE|DICT|INTERRES
   241  121  123 2    
   242  122  242 1    
   243  122  243 1    
   244  124  125 1    
   245  124  244 1    
   246  124  245 1    
   247  125  126 1    
   248  126  246 1    
   249  126  247 1    
@<TRIPOS>SUBSTRUCTURE
     1 UNK         1 GROUP             0       ****    0 ROOT    
