@<TRIPOS>MOLECULE
3R540
247   249    1
SMALL
USER_CHARGES


@<TRIPOS>ATOM
      1 CA         -0.6931  -14.5044  -48.1170 C.3       0 UNK        -0.1800 
      2 C           0.4893  -13.5947  -48.4093 C.2       0 UNK         0.5000 
      3 O           0.5684  -12.4913  -47.8693 O.2       0 UNK        -0.5000 
      4 N           1.4023  -14.0550  -49.2730 N.am      1 UNK        -0.5000 
      5 CA          2.5864  -13.3119  -49.7237 C.3       1 UNK         0.1400 
      6 C6          3.2669  -13.9758  -50.9470 C.3       23 UNK        -0.0398 
      7 S7          2.1635  -14.1212  -52.3952 S.3       23 UNK        -0.2404 
      8 C8          2.0237  -15.9271  -52.5952 C.3       23 UNK        -0.0205 
      9 C9          1.0992  -16.5426  -51.5568 C.ar      23 UNK        -0.0193 
     10 C10        -0.2859  -16.5072  -51.7471 C.ar      23 UNK        -0.1150 
     11 C11        -1.1476  -17.0593  -50.7956 C.ar      23 UNK        -0.0193 
     12 C12        -0.6137  -17.6579  -49.6524 C.ar      23 UNK        -0.1150 
     13 C13         0.7677  -17.6871  -49.4445 C.ar      23 UNK        -0.0193 
     14 C14         1.6218  -17.1375  -50.4040 C.ar      23 UNK        -0.1150 
     15 C15         1.3232  -18.2627  -48.1547 C.3       23 UNK        -0.0205 
     16 S16         1.9303  -19.9634  -48.3632 S.3       23 UNK        -0.2404 
     17 C17         1.8874  -20.5384  -46.6224 C.3       23 UNK        -0.0398 
     18 CA          0.8944  -21.6831  -46.2501 C.3       11 UNK         0.1400 
     19 N           0.4639  -21.5980  -44.8507 N.am      11 UNK        -0.5000 
     20 C          -0.1960  -22.5565  -44.1844 C.2       10 UNK         0.5000 
     21 O          -0.4802  -23.6534  -44.6648 O.2       10 UNK        -0.5000 
     22 CA         -0.6590  -22.2168  -42.7558 C.3       10 UNK         0.1400 
     23 CB          0.4998  -22.3403  -41.7554 C.3       10 UNK        -0.1800 
     24 N          -1.2574  -20.8846  -42.6595 N.am      10 UNK        -0.5000 
     25 C          -2.3822  -20.5143  -43.2893 C.2       9 UNK         0.5000 
     26 O          -3.0567  -21.2714  -43.9872 O.2       9 UNK        -0.5000 
     27 CA         -2.7984  -19.0381  -43.1599 C.3       9 UNK         0.1400 
     28 CB         -3.4909  -18.7774  -41.8142 C.3       9 UNK        -0.1800 
     29 N          -1.6712  -18.1200  -43.3251 N.am      9 UNK        -0.5000 
     30 C          -0.9457  -18.0118  -44.4480 C.2       8 UNK         0.5000 
     31 O          -1.1766  -18.6429  -45.4778 O.2       8 UNK        -0.5000 
     32 CA          0.2754  -17.0823  -44.3993 C.3       8 UNK         0.1400 
     33 CB         -0.1537  -15.6151  -44.5429 C.3       8 UNK        -0.1800 
     34 N           1.0501  -17.2513  -43.1741 N.am      8 UNK        -0.5000 
     35 C           1.6744  -18.3745  -42.7975 C.2       7 UNK         0.5000 
     36 O           1.7030  -19.4045  -43.4688 O.2       7 UNK        -0.5000 
     37 CA          2.3317  -18.3582  -41.4080 C.3       7 UNK         0.1400 
     38 CB          3.6954  -17.6515  -41.4482 C.3       7 UNK        -0.1800 
     39 N           1.4771  -17.7237  -40.4042 N.am      7 UNK        -0.5000 
     40 C           0.3110  -18.2262  -39.9748 C.2       6 UNK         0.5000 
     41 O          -0.1629  -19.2919  -40.3697 O.2       6 UNK        -0.5000 
     42 CA         -0.4672  -17.3775  -38.9534 C.3       6 UNK         0.1400 
     43 CB          0.0621  -17.6200  -37.5320 C.3       6 UNK        -0.1800 
     44 N          -0.4133  -15.9454  -39.2546 N.am      6 UNK        -0.5000 
     45 C          -1.0330  -15.3742  -40.2965 C.2       5 UNK         0.5000 
     46 O          -1.7164  -15.9958  -41.1111 O.2       5 UNK        -0.5000 
     47 CA         -0.8079  -13.8599  -40.4851 C.3       5 UNK         0.1400 
     48 CB         -1.6808  -13.0545  -39.5105 C.3       5 UNK        -0.1800 
     49 N           0.5938  -13.4395  -40.3511 N.am      5 UNK        -0.5000 
     50 C           1.5975  -13.9261  -41.0911 C.2       4 UNK         0.5000 
     51 O           1.4541  -14.8414  -41.9045 O.2       4 UNK        -0.5000 
     52 CA          2.9969  -13.3247  -40.8968 C.3       4 UNK         0.1400 
     53 CB          3.6190  -13.8042  -39.5717 C.3       4 UNK        -0.1800 
     54 N           3.7901  -13.7874  -42.0298 N.am      4 UNK        -0.5000 
     55 C           5.0080  -13.4023  -42.4169 C.2       3 UNK         0.5000 
     56 O           5.6544  -12.5172  -41.8559 O.2       3 UNK        -0.5000 
     57 CA          5.6103  -14.1351  -43.6354 C.3       3 UNK         0.1400 
     58 CB          6.8529  -14.9349  -43.2088 C.3       3 UNK        -0.1800 
     59 N           4.6516  -15.0695  -44.2481 N.am      3 UNK        -0.5000 
     60 C           4.1511  -15.0708  -45.4919 C.2       2 UNK         0.5000 
     61 O           3.3098  -15.9041  -45.8343 O.2       2 UNK        -0.5000 
     62 CA          4.6466  -14.0499  -46.5354 C.3       2 UNK         0.1400 
     63 CB          6.0503  -14.4274  -47.0537 C.3       2 UNK        -0.1800 
     64 N           3.7063  -14.0340  -47.6522 N.am      2 UNK        -0.5000 
     65 C           3.6264  -13.0951  -48.6025 C.2       1 UNK         0.5000 
     66 O           4.3393  -12.0906  -48.6284 O.2       1 UNK        -0.5000 
     67 C          -0.3164  -21.8474  -47.1959 C.2       11 UNK         0.5000 
     68 O          -0.3092  -22.7605  -48.0212 O.2       11 UNK        -0.5000 
     69 N          -1.3502  -21.0088  -47.0275 N.am      12 UNK        -0.5000 
     70 CA         -2.5934  -21.0671  -47.7979 C.3       12 UNK         0.1400 
     71 CB         -3.5017  -19.8868  -47.4226 C.3       12 UNK        -0.1800 
     72 C          -3.3405  -22.4011  -47.6265 C.2       12 UNK         0.5000 
     73 O          -3.8210  -22.9507  -48.6170 O.2       12 UNK        -0.5000 
     74 N          -3.3936  -22.9173  -46.3907 N.am      13 UNK        -0.5000 
     75 CA         -3.9693  -24.2220  -46.0666 C.3       13 UNK         0.1400 
     76 CB         -4.0554  -24.3905  -44.5421 C.3       13 UNK        -0.1800 
     77 C          -3.1918  -25.3851  -46.7086 C.2       13 UNK         0.5000 
     78 O          -3.8076  -26.2505  -47.3315 O.2       13 UNK        -0.5000 
     79 N          -1.8568  -25.3661  -46.5822 N.am      14 UNK        -0.5000 
     80 CA         -0.9495  -26.3653  -47.1536 C.3       14 UNK         0.1400 
     81 CB          0.4748  -26.1205  -46.6332 C.3       14 UNK        -0.1800 
     82 C          -0.9665  -26.3919  -48.6935 C.2       14 UNK         0.5000 
     83 O          -0.9213  -27.4708  -49.2852 O.2       14 UNK        -0.5000 
     84 N          -1.0612  -25.2079  -49.3113 N.am      15 UNK        -0.5000 
     85 CA         -1.1586  -25.0191  -50.7589 C.3       15 UNK         0.1400 
     86 CB         -0.6927  -23.5931  -51.0957 C.3       15 UNK        -0.1800 
     87 C          -2.5733  -25.2708  -51.3213 C.2       15 UNK         0.5000 
     88 O          -2.7453  -25.2122  -52.5399 O.2       15 UNK        -0.5000 
     89 N          -3.5632  -25.4985  -50.4433 N.am      16 UNK        -0.5000 
     90 CA         -4.9897  -25.6784  -50.7369 C.3       16 UNK         0.1400 
     91 CB         -5.2281  -27.0128  -51.4736 C.3       16 UNK        -0.1800 
     92 C          -5.5814  -24.4612  -51.4776 C.2       16 UNK         0.5000 
     93 O          -6.1916  -24.6112  -52.5367 O.2       16 UNK        -0.5000 
     94 N          -5.3225  -23.2691  -50.9203 N.am      17 UNK        -0.5000 
     95 CA         -5.6236  -21.9395  -51.4619 C.3       17 UNK         0.1400 
     96 CB         -7.1463  -21.7173  -51.5808 C.3       17 UNK        -0.1800 
     97 C          -4.8710  -21.6452  -52.7761 C.2       17 UNK         0.5000 
     98 O          -5.3793  -20.9020  -53.6170 O.2       17 UNK        -0.5000 
     99 N          -3.6781  -22.2450  -52.9275 N.am      18 UNK        -0.5000 
    100 CA        -2.8342  -22.2509  -54.1285 C.3       18 UNK         0.1400 
    101 CB        -2.2016  -20.8652  -54.3558 C.3       18 UNK        -0.1800 
    102 C         -3.6140  -22.7875  -55.3434 C.2       18 UNK         0.5000 
    103 O         -3.7109  -22.1178  -56.3753 O.2       18 UNK        -0.5000 
    104 N         -4.2569  -23.9464  -55.1334 N.am      19 UNK        -0.5000 
    105 CA        -5.2870  -24.6021  -55.9511 C.3       19 UNK         0.1400 
    106 CB        -4.7522  -24.9781  -57.3460 C.3       19 UNK        -0.1800 
    107 C         -6.6032  -23.8002  -56.0475 C.2       19 UNK         0.5000 
    108 O         -7.6778  -24.3660  -55.8427 O.2       19 UNK        -0.5000 
    109 N         -6.4873  -22.5025  -56.3407 N.am      20 UNK        -0.5000 
    110 CA        -7.5531  -21.5050  -56.3793 C.3       20 UNK         0.1400 
    111 CB        -8.4611  -21.7402  -57.6031 C.3       20 UNK        -0.1800 
    112 C         -7.0087  -20.0616  -56.3875 C.2       20 UNK         0.5000 
    113 O         -7.8002  -19.1342  -56.2077 O.2       20 UNK        -0.5000 
    114 N         -5.6975  -19.8652  -56.6130 N.am      21 UNK        -0.5000 
    115 CA        -5.0791  -18.5532  -56.8273 C.3       21 UNK         0.1400 
    116 CB        -3.6407  -18.7419  -57.3327 C.3       21 UNK        -0.1800 
    117 C         -5.1265  -17.5933  -55.6207 C.2       21 UNK         0.5000 
    118 O         -5.0564  -16.3811  -55.8313 O.2       21 UNK        -0.5000 
    119 N         -5.2764  -18.1201  -54.3977 N.am      22 UNK        -0.5000 
    120 CA        -5.5449  -17.3158  -53.1915 C.3       22 UNK         0.1400 
    121 C         -7.0245  -16.8388  -53.0679 C.2       22 UNK         0.5000 
    122 N         -7.9523  -17.2719  -53.9146 N.am      22 UNK        -0.7600 
    123 O         -7.3384  -16.0447  -52.1854 O.2       22 UNK        -0.5000 
    124 C124       -5.0874  -18.0163  -51.8855 C.3       23 UNK        -0.0398 
    125 S125       -3.3075  -18.4188  -51.8583 S.3       23 UNK        -0.2404 
    126 C126       -2.6540  -16.9715  -50.9768 C.3       23 UNK        -0.0205 
    127 H127       -1.3421  -14.0656  -47.3592 H         1 UNK         0.0600 
    128 H128       -0.3492  -15.4723  -47.7538 H         1 UNK         0.0600 
    129 H129       -1.2839  -14.6605  -49.0194 H         1 UNK         0.0600 
    130 H130        1.2586  -14.9551  -49.7111 H         1 UNK         0.3000 
    131 H131        2.2464  -12.3208  -50.0320 H         1 UNK         0.0600 
    132 H132        4.1280  -13.3843  -51.2639 H         1 UNK         0.0800 
    133 H133        3.6635  -14.9567  -50.6815 H         1 UNK         0.0800 
    134 H134        3.0135  -16.3846  -52.5552 H         1 UNK         0.0800 
    135 H135        1.6353  -16.1387  -53.5926 H         1 UNK         0.0800 
    136 H136       -0.6938  -16.0387  -52.6320 H         1 UNK         0.1150 
    137 H137       -1.2759  -18.0775  -48.9091 H         1 UNK         0.1150 
    138 H138        2.6907  -17.1652  -50.2448 H         1 UNK         0.1150 
    139 H139        2.1291  -17.6319  -47.7760 H         1 UNK         0.0800 
    140 H140        0.5397  -18.2480  -47.3984 H         1 UNK         0.0800 
    141 H141        1.6856  -19.6674  -46.0008 H         1 UNK         0.0800 
    142 H142        2.8983  -20.8414  -46.3475 H         1 UNK         0.0800 
    143 H143        1.4571  -22.6151  -46.3388 H         1 UNK         0.0600 
    144 H144        0.6969  -20.7396  -44.3579 H         1 UNK         0.3000 
    145 H145       -1.4240  -22.9439  -42.4757 H         1 UNK         0.0600 
    146 H146        0.1562  -22.1773  -40.7338 H         1 UNK         0.0600 
    147 H147        0.9448  -23.3352  -41.7948 H         1 UNK         0.0600 
    148 H148        1.2904  -21.6183  -41.9597 H         1 UNK         0.0600 
    149 H149       -0.7790  -20.2103  -42.0707 H         1 UNK         0.3000 
    150 H150       -3.5160  -18.8269  -43.9554 H         1 UNK         0.0600 
    151 H151       -4.3429  -19.4445  -41.6777 H         1 UNK         0.0600 
    152 H152       -3.8657  -17.7553  -41.7565 H         1 UNK         0.0600 
    153 H153       -2.8139  -18.9323  -40.9740 H         1 UNK         0.0600 
    154 H154       -1.4373  -17.5360  -42.5297 H         1 UNK         0.3000 
    155 H155        0.9244  -17.3319  -45.2397 H         1 UNK         0.0600 
    156 H156       -0.6998  -15.2672  -43.6657 H         1 UNK         0.0600 
    157 H157       -0.8064  -15.4803  -45.4042 H         1 UNK         0.0600 
    158 H158        0.7107  -14.9649  -44.6800 H         1 UNK         0.0600 
    159 H159        1.1058  -16.4330  -42.5701 H         1 UNK         0.3000 
    160 H160        2.4960  -19.3950  -41.1069 H         1 UNK         0.0600 
    161 H161        3.5958  -16.5952  -41.6924 H         1 UNK         0.0600 
    162 H162        4.3483  -18.1037  -42.1960 H         1 UNK         0.0600 
    163 H163        4.2041  -17.7243  -40.4869 H         1 UNK         0.0600 
    164 H164        1.7680  -16.8215  -40.0605 H         1 UNK         0.3000 
    165 H165       -1.5117  -17.6951  -38.9853 H         1 UNK         0.0600 
    166 H166       -0.5334  -17.0834  -36.7932 H         1 UNK         0.0600 
    167 H167        0.0185  -18.6794  -37.2755 H         1 UNK         0.0600 
    168 H168        1.0989  -17.2987  -37.4257 H         1 UNK         0.0600 
    169 H169        0.1366  -15.3643  -38.6392 H         1 UNK         0.3000 
    170 H170       -1.1239  -13.6130  -41.5009 H         1 UNK         0.0600 
    171 H171       -2.7300  -13.3401  -39.5983 H         1 UNK         0.0600 
    172 H172       -1.3824  -13.2144  -38.4738 H         1 UNK         0.0600 
    173 H173       -1.6188  -11.9859  -39.7167 H         1 UNK         0.0600 
    174 H174        0.7822  -12.6975  -39.6925 H         1 UNK         0.3000 
    175 H175        2.9282  -12.2356  -40.9183 H         1 UNK         0.0600 
    176 H176        3.7048  -14.8911  -39.5381 H         1 UNK         0.0600 
    177 H177        4.6155  -13.3875  -39.4257 H         1 UNK         0.0600 
    178 H178        3.0152  -13.4947  -38.7180 H         1 UNK         0.0600 
    179 H179        3.2841  -14.4620  -42.5909 H         1 UNK         0.3000 
    180 H180        5.9295  -13.3615  -44.3320 H         1 UNK         0.0600 
    181 H181        6.6069  -15.6907  -42.4616 H         1 UNK         0.0600 
    182 H182        7.6124  -14.2816  -42.7772 H         1 UNK         0.0600 
    183 H183        7.3093  -15.4432  -44.0580 H         1 UNK         0.0600 
    184 H184        4.3353  -15.8044  -43.6351 H         1 UNK         0.3000 
    185 H185        4.6548  -13.0545  -46.0892 H         1 UNK         0.0600 
    186 H186        6.7814  -14.4740  -46.2478 H         1 UNK         0.0600 
    187 H187        6.0439  -15.4025  -47.5424 H         1 UNK         0.0600 
    188 H188        6.4210  -13.6979  -47.7735 H         1 UNK         0.0600 
    189 H189        3.0562  -14.8105  -47.6518 H         1 UNK         0.3000 
    190 H190       -1.2781  -20.2612  -46.3402 H         1 UNK         0.3000 
    191 H191       -2.3296  -20.9687  -48.8531 H         1 UNK         0.0600 
    192 H192       -3.7815  -19.9146  -46.3691 H         1 UNK         0.0600 
    193 H193       -4.4212  -19.8998  -48.0093 H         1 UNK         0.0600 
    194 H194       -3.0117  -18.9322  -47.6101 H         1 UNK         0.0600 
    195 H195       -3.0182  -22.3786  -45.6154 H         1 UNK         0.3000 
    196 H196       -4.9859  -24.2443  -46.4645 H         1 UNK         0.0600 
    197 H197       -4.4901  -25.3556  -44.2792 H         1 UNK         0.0600 
    198 H198       -4.6833  -23.6187  -44.0967 H         1 UNK         0.0600 
    199 H199       -3.0735  -24.3327  -44.0721 H         1 UNK         0.0600 
    200 H200       -1.4256  -24.6266  -46.0332 H         1 UNK         0.3000 
    201 H201       -1.2746  -27.3471  -46.8033 H         1 UNK         0.0600 
    202 H202        0.5142  -26.1906  -45.5460 H         1 UNK         0.0600 
    203 H203        0.8421  -25.1338  -46.9176 H         1 UNK         0.0600 
    204 H204        1.1708  -26.8593  -47.0324 H         1 UNK         0.0600 
    205 H205       -1.0220  -24.3601  -48.7494 H         1 UNK         0.3000 
    206 H206       -0.4826  -25.7222  -51.2496 H         1 UNK         0.0600 
    207 H207        0.3019  -23.3984  -50.6938 H         1 UNK         0.0600 
    208 H208       -0.6338  -23.4416  -52.1728 H         1 UNK         0.0600 
    209 H209       -1.3693  -22.8406  -50.6879 H         1 UNK         0.0600 
    210 H210       -3.3236  -25.5015  -49.4600 H         1 UNK         0.3000 
    211 H211       -5.4997  -25.7344  -49.7741 H         1 UNK         0.0600 
    212 H212       -4.7713  -27.0195  -52.4637 H         1 UNK         0.0600 
    213 H213       -6.2944  -27.1999  -51.6048 H         1 UNK         0.0600 
    214 H214       -4.8183  -27.8509  -50.9099 H         1 UNK         0.0600 
    215 H215       -4.7859  -23.2600  -50.0515 H         1 UNK         0.3000 
    216 H216       -5.2417  -21.2256  -50.7308 H         1 UNK         0.0600 
    217 H217       -7.6517  -21.9378  -50.6407 H         1 UNK         0.0600 
    218 H218       -7.5879  -22.3442  -52.3560 H         1 UNK         0.0600 
    219 H219       -7.3746  -20.6819  -51.8356 H         1 UNK         0.0600 
    220 H220       -3.3821  -22.8674  -52.1905 H         1 UNK         0.3000 
    221 H221       -2.0241  -22.9585  -53.9556 H         1 UNK         0.0600 
    222 H222       -2.9581  -20.0917  -54.4809 H         1 UNK         0.0600 
    223 H223       -1.5759  -20.5793  -53.5102 H         1 UNK         0.0600 
    224 H224       -1.5692  -20.8608  -55.2441 H         1 UNK         0.0600 
    225 H225       -4.1208  -24.3734  -54.2243 H         1 UNK         0.3000 
    226 H226       -5.5243  -25.5306  -55.4291 H         1 UNK         0.0600 
    227 H227       -3.8521  -25.5882  -57.2708 H         1 UNK         0.0600 
    228 H228       -5.4923  -25.5566  -57.9001 H         1 UNK         0.0600 
    229 H229       -4.5132  -24.0998  -57.9458 H         1 UNK         0.0600 
    230 H230       -5.5384  -22.1632  -56.4560 H         1 UNK         0.3000 
    231 H231       -8.1478  -21.6115  -55.4699 H         1 UNK         0.0600 
    232 H232       -8.9566  -22.7095  -57.5572 H         1 UNK         0.0600 
    233 H233       -7.8935  -21.6977  -58.5333 H         1 UNK         0.0600 
    234 H234       -9.2459  -20.9849  -57.6620 H         1 UNK         0.0600 
    235 H235       -5.0667  -20.6523  -56.6895 H         1 UNK         0.3000 
    236 H236       -5.6415  -18.0671  -57.6273 H         1 UNK         0.0600 
    237 H237       -3.1705  -17.7807  -57.5441 H         1 UNK         0.0600 
    238 H238       -3.0179  -19.2561  -56.6034 H         1 UNK         0.0600 
    239 H239       -3.6204  -19.3221  -58.2554 H         1 UNK         0.0600 
    240 H240       -5.3227  -19.1304  -54.2856 H         1 UNK         0.3000 
    241 H241       -4.9565  -16.3998  -53.2701 H         1 UNK         0.0600 
    242 H242       -8.8991  -16.9423  -53.8151 H         1 UNK         0.3800 
    243 H243       -7.7285  -17.9174  -54.6656 H         1 UNK         0.3800 
    244 H244       -5.3122  -17.3956  -51.0164 H         1 UNK         0.0800 
    245 H245       -5.6514  -18.9359  -51.7389 H         1 UNK         0.0800 
    246 H246       -3.1384  -16.8892  -50.0024 H         1 UNK         0.0800 
    247 H247       -2.9113  -16.0654  -51.5275 H         1 UNK         0.0800 
@<TRIPOS>BOND
     1    1    2 1    
     2    1  127 1    
     3    1  128 1    
     4    1  129 1    
     5    2    3 2    
     6    2    4 am   BACKBONE|DICT|INTERRES
     7    4    5 1    
     8    4  130 1    
     9    5    6 1    
    10    5   65 1    
    11    5  131 1    
    12    6    7 1    
    13    6  132 1    
    14    6  133 1    
    15    7    8 1    
    16    8    9 1    
    17    8  134 1    
    18    8  135 1    
    19    9   10 ar   
    20    9   14 ar   
    21   10   11 ar   
    22   10  136 1    
    23   11   12 ar   
    24   11  126 1    
    25   12   13 ar   
    26   12  137 1    
    27   13   14 ar   
    28   13   15 1    
    29   14  138 1    
    30   15   16 1    
    31   15  139 1    
    32   15  140 1    
    33   16   17 1    
    34   17   18 1    
    35   17  141 1    
    36   17  142 1    
    37   18   19 1    
    38   18   67 1    
    39   18  143 1    
    40   19   20 am   BACKBONE|DICT|INTERRES
    41   19  144 1    
    42   20   21 2    
    43   20   22 1    
    44   22   23 1    
    45   22   24 1    
    46   22  145 1    
    47   23  146 1    
    48   23  147 1    
    49   23  148 1    
    50   24   25 am   BACKBONE|DICT|INTERRES
    51   24  149 1    
    52   25   26 2    
    53   25   27 1    
    54   27   28 1    
    55   27   29 1    
    56   27  150 1    
    57   28  151 1    
    58   28  152 1    
    59   28  153 1    
    60   29   30 am   BACKBONE|DICT|INTERRES
    61   29  154 1    
    62   30   31 2    
    63   30   32 1    
    64   32   33 1    
    65   32   34 1    
    66   32  155 1    
    67   33  156 1    
    68   33  157 1    
    69   33  158 1    
    70   34   35 am   BACKBONE|DICT|INTERRES
    71   34  159 1    
    72   35   36 2    
    73   35   37 1    
    74   37   38 1    
    75   37   39 1    
    76   37  160 1    
    77   38  161 1    
    78   38  162 1    
    79   38  163 1    
    80   39   40 am   BACKBONE|DICT|INTERRES
    81   39  164 1    
    82   40   41 2    
    83   40   42 1    
    84   42   43 1    
    85   42   44 1    
    86   42  165 1    
    87   43  166 1    
    88   43  167 1    
    89   43  168 1    
    90   44   45 am   BACKBONE|DICT|INTERRES
    91   44  169 1    
    92   45   46 2    
    93   45   47 1    
    94   47   48 1    
    95   47   49 1    
    96   47  170 1    
    97   48  171 1    
    98   48  172 1    
    99   48  173 1    
   100   49   50 am   BACKBONE|DICT|INTERRES
   101   49  174 1    
   102   50   51 2    
   103   50   52 1    
   104   52   53 1    
   105   52   54 1    
   106   52  175 1    
   107   53  176 1    
   108   53  177 1    
   109   53  178 1    
   110   54   55 am   BACKBONE|DICT|INTERRES
   111   54  179 1    
   112   55   56 2    
   113   55   57 1    
   114   57   58 1    
   115   57   59 1    
   116   57  180 1    
   117   58  181 1    
   118   58  182 1    
   119   58  183 1    
   120   59   60 am   BACKBONE|DICT|INTERRES
   121   59  184 1    
   122   60   61 2    
   123   60   62 1    
   124   62   63 1    
   125   62   64 1    
   126   62  185 1    
   127   63  186 1    
   128   63  187 1    
   129   63  188 1    
   130   64   65 am   BACKBONE|DICT|INTERRES
   131   64  189 1    
   132   65   66 2    
   133   67   68 2    
   134   67   69 am   BACKBONE|DICT|INTERRES
   135   69   70 1    
   136   69  190 1    
   137   70   71 1    
   138   70   72 1    
   139   70  191 1    
   140   71  192 1    
   141   71  193 1    
   142   71  194 1    
   143   72   73 2    
   144   72   74 am   BACKBONE|DICT|INTERRES
   145   74   75 1    
   146   74  195 1    
   147   75   76 1    
   148   75   77 1    
   149   75  196 1    
   150   76  197 1    
   151   76  198 1    
   152   76  199 1    
   153   77   78 2    
   154   77   79 am   BACKBONE|DICT|INTERRES
   155   79   80 1    
   156   79  200 1    
   157   80   81 1    
   158   80   82 1    
   159   80  201 1    
   160   81  202 1    
   161   81  203 1    
   162   81  204 1    
   163   82   83 2    
   164   82   84 am   BACKBONE|DICT|INTERRES
   165   84   85 1    
   166   84  205 1    
   167   85   86 1    
   168   85   87 1    
   169   85  206 1    
   170   86  207 1    
   171   86  208 1    
   172   86  209 1    
   173   87   88 2    
   174   87   89 am   BACKBONE|DICT|INTERRES
   175   89   90 1    
   176   89  210 1    
   177   90   91 1    
   178   90   92 1    
   179   90  211 1    
   180   91  212 1    
   181   91  213 1    
   182   91  214 1    
   183   92   93 2    
   184   92   94 am   BACKBONE|DICT|INTERRES
   185   94   95 1    
   186   94  215 1    
   187   95   96 1    
   188   95   97 1    
   189   95  216 1    
   190   96  217 1    
   191   96  218 1    
   192   96  219 1    
   193   97   98 2    
   194   97   99 am   BACKBONE|DICT|INTERRES
   195   99  100 1    
   196   99  220 1    
   197  100  101 1    
   198  100  102 1    
   199  100  221 1    
   200  101  222 1    
   201  101  223 1    
   202  101  224 1    
   203  102  103 2    
   204  102  104 am   BACKBONE|DICT|INTERRES
   205  104  105 1    
   206  104  225 1    
   207  105  106 1    
   208  105  107 1    
   209  105  226 1    
   210  106  227 1    
   211  106  228 1    
   212  106  229 1    
   213  107  108 2    
   214  107  109 am   BACKBONE|DICT|INTERRES
   215  109  110 1    
   216  109  230 1    
   217  110  111 1    
   218  110  112 1    
   219  110  231 1    
   220  111  232 1    
   221  111  233 1    
   222  111  234 1    
   223  112  113 2    
   224  112  114 am   BACKBONE|DICT|INTERRES
   225  114  115 1    
   226  114  235 1    
   227  115  116 1    
   228  115  117 1    
   229  115  236 1    
   230  116  237 1    
   231  116  238 1    
   232  116  239 1    
   233  117  118 2    
   234  117  119 am   BACKBONE|DICT|INTERRES
   235  119  120 1    
   236  119  240 1    
   237  120  121 1    
   238  120  124 1    
   239  120  241 1    
   240  121  122 am   BACKBONE|DICT|INTERRES
   241  121  123 2    
   242  122  242 1    
   243  122  243 1    
   244  124  125 1    
   245  124  244 1    
   246  124  245 1    
   247  125  126 1    
   248  126  246 1    
   249  126  247 1    
@<TRIPOS>SUBSTRUCTURE
     1 UNK         1 GROUP             0       ****    0 ROOT    
