@<TRIPOS>MOLECULE
3R540
247   249    1
SMALL
USER_CHARGES


@<TRIPOS>ATOM
      1 CA         -2.4387  -14.3128  -48.5846 C.3       0 UNK        -0.1800 
      2 C          -1.0643  -13.6611  -48.5269 C.2       0 UNK         0.5000 
      3 O          -0.9524  -12.5016  -48.1274 O.2       0 UNK        -0.5000 
      4 N          -0.0266  -14.3975  -48.9395 N.am      1 UNK        -0.5000 
      5 CA          1.3755  -13.9638  -48.9329 C.3       1 UNK         0.1400 
      6 C6          2.2760  -14.9661  -49.6940 C.3       23 UNK        -0.0398 
      7 S7          2.0447  -14.8363  -51.4968 S.3       23 UNK        -0.2404 
      8 C8          3.3962  -15.8996  -52.0900 C.3       23 UNK        -0.0205 
      9 C9          3.0353  -17.3686  -51.9528 C.ar      23 UNK        -0.0193 
     10 C10         2.2730  -17.9893  -52.9439 C.ar      23 UNK        -0.1150 
     11 C11         1.9052  -19.3310  -52.8228 C.ar      23 UNK        -0.0193 
     12 C12         2.3178  -20.0576  -51.7009 C.ar      23 UNK        -0.1150 
     13 C13         3.0635  -19.4409  -50.6911 C.ar      23 UNK        -0.0193 
     14 C14         3.4365  -18.1008  -50.8325 C.ar      23 UNK        -0.1150 
     15 C15         3.4428  -20.2144  -49.4361 C.3       23 UNK        -0.0205 
     16 S16         2.6749  -19.5238  -47.9313 S.3       23 UNK        -0.2404 
     17 C17         0.8920  -19.7553  -48.2537 C.3       23 UNK        -0.0398 
     18 CA          0.3502  -21.0758  -47.6610 C.3       11 UNK         0.1400 
     19 N           0.3718  -21.0950  -46.1968 N.am      11 UNK        -0.5000 
     20 C           0.1545  -22.1857  -45.4496 C.2       10 UNK         0.5000 
     21 O          -0.0480  -23.3062  -45.9193 O.2       10 UNK        -0.5000 
     22 CA          0.1012  -21.9820  -43.9244 C.3       10 UNK         0.1400 
     23 CB          1.5128  -21.8606  -43.3314 C.3       10 UNK        -0.1800 
     24 N          -0.7025  -20.8188  -43.5433 N.am      10 UNK        -0.5000 
     25 C          -2.0212  -20.7130  -43.7628 C.2       9 UNK         0.5000 
     26 O          -2.7006  -21.6036  -44.2719 O.2       9 UNK        -0.5000 
     27 CA         -2.6927  -19.3803  -43.3883 C.3       9 UNK         0.1400 
     28 CB         -2.9924  -19.3268  -41.8831 C.3       9 UNK        -0.1800 
     29 N          -1.9007  -18.2137  -43.7750 N.am      9 UNK        -0.5000 
     30 C          -1.5784  -17.8884  -45.0356 C.2       8 UNK         0.5000 
     31 O          -1.9446  -18.5220  -46.0233 O.2       8 UNK        -0.5000 
     32 CA         -0.6407  -16.6829  -45.2193 C.3       8 UNK         0.1400 
     33 CB         -1.4183  -15.3701  -45.0405 C.3       8 UNK        -0.1800 
     34 N           0.5002  -16.7233  -44.3028 N.am      8 UNK        -0.5000 
     35 C           1.3920  -17.7235  -44.2388 C.2       7 UNK         0.5000 
     36 O           1.3664  -18.7133  -44.9670 O.2       7 UNK        -0.5000 
     37 CA          2.4444  -17.6445  -43.1222 C.3       7 UNK         0.1400 
     38 CB          3.6084  -16.7236  -43.5187 C.3       7 UNK        -0.1800 
     39 N           1.8477  -17.1934  -41.8656 N.am      7 UNK        -0.5000 
     40 C           1.0208  -17.9380  -41.1171 C.2       6 UNK         0.5000 
     41 O           0.7257  -19.1046  -41.3785 O.2       6 UNK        -0.5000 
     42 CA          0.3863  -17.2475  -39.8948 C.3       6 UNK         0.1400 
     43 CB          1.3431  -17.2839  -38.6938 C.3       6 UNK        -0.1800 
     44 N           0.0034  -15.8608  -40.1682 N.am      6 UNK        -0.5000 
     45 C          -0.9676  -15.5007  -41.0195 C.2       5 UNK         0.5000 
     46 O          -1.6808  -16.3061  -41.6156 O.2       5 UNK        -0.5000 
     47 CA         -1.1468  -13.9925  -41.2851 C.3       5 UNK         0.1400 
     48 CB         -2.1630  -13.3940  -40.3014 C.3       5 UNK        -0.1800 
     49 N           0.0964  -13.2167  -41.2260 N.am      5 UNK        -0.5000 
     50 C           1.1890  -13.4390  -41.9693 C.2       4 UNK         0.5000 
     51 O           1.2869  -14.3582  -42.7849 O.2       4 UNK        -0.5000 
     52 CA          2.3802  -12.5038  -41.7237 C.3       4 UNK         0.1400 
     53 CB          2.8715  -12.5996  -40.2640 C.3       4 UNK        -0.1800 
     54 N           3.4773  -12.8449  -42.6277 N.am      4 UNK        -0.5000 
     55 C           4.4753  -12.0183  -42.9538 C.2       3 UNK         0.5000 
     56 O           4.5160  -10.8343  -42.6189 O.2       3 UNK        -0.5000 
     57 CA          5.6453  -12.6024  -43.7635 C.3       3 UNK         0.1400 
     58 CB          6.7437  -13.0716  -42.7961 C.3       3 UNK        -0.1800 
     59 N           5.3162  -13.7224  -44.6497 N.am      3 UNK        -0.5000 
     60 C           4.6068  -13.7515  -45.7893 C.2       2 UNK         0.5000 
     61 O           4.6494  -14.7600  -46.4954 O.2       2 UNK        -0.5000 
     62 CA          3.7499  -12.5376  -46.2508 C.3       2 UNK         0.1400 
     63 CB          4.6063  -11.3078  -46.6158 C.3       2 UNK        -0.1800 
     64 N           2.9526  -12.8573  -47.4397 N.am      2 UNK        -0.5000 
     65 C           1.9276  -13.7176  -47.5101 C.2       1 UNK         0.5000 
     66 O           1.4601  -14.3133  -46.5389 O.2       1 UNK        -0.5000 
     67 C          -1.0500  -21.4029  -48.2182 C.2       11 UNK         0.5000 
     68 O          -1.1430  -22.1710  -49.1729 O.2       11 UNK        -0.5000 
     69 N          -2.1131  -20.8667  -47.6000 N.am      12 UNK        -0.5000 
     70 CA         -3.5046  -21.1694  -47.9406 C.3       12 UNK         0.1400 
     71 CB         -4.4550  -20.2366  -47.1775 C.3       12 UNK        -0.1800 
     72 C          -3.8728  -22.6423  -47.6910 C.2       12 UNK         0.5000 
     73 O          -4.5444  -23.2427  -48.5297 O.2       12 UNK        -0.5000 
     74 N          -3.4056  -23.2108  -46.5707 N.am      13 UNK        -0.5000 
     75 CA         -3.5677  -24.6251  -46.2305 C.3       13 UNK         0.1400 
     76 CB         -3.0930  -24.8767  -44.7917 C.3       13 UNK        -0.1800 
     77 C          -2.8444  -25.5518  -47.2238 C.2       13 UNK         0.5000 
     78 O          -3.4446  -26.5193  -47.6939 O.2       13 UNK        -0.5000 
     79 N          -1.5965  -25.2056  -47.5755 N.am      14 UNK        -0.5000 
     80 CA         -0.7984  -25.8846  -48.6026 C.3       14 UNK         0.1400 
     81 CB          0.6225  -25.3010  -48.6127 C.3       14 UNK        -0.1800 
     82 C          -1.4306  -25.8048  -50.0075 C.2       14 UNK         0.5000 
     83 O          -1.3223  -26.7539  -50.7837 O.2       14 UNK        -0.5000 
     84 N          -2.1246  -24.6942  -50.2810 N.am      15 UNK        -0.5000 
     85 CA         -2.9126  -24.4312  -51.4834 C.3       15 UNK         0.1400 
     86 CB         -3.0236  -22.9105  -51.6595 C.3       15 UNK        -0.1800 
     87 C          -4.3111  -25.0819  -51.4730 C.2       15 UNK         0.5000 
     88 O          -5.1298  -24.7203  -52.3180 O.2       15 UNK        -0.5000 
     89 N          -4.5761  -26.0003  -50.5309 N.am      16 UNK        -0.5000 
     90 CA         -5.8167  -26.7635  -50.3590 C.3       16 UNK         0.1400 
     91 CB         -6.0560  -27.7010  -51.5617 C.3       16 UNK        -0.1800 
     92 C          -7.0226  -25.8569  -50.0438 C.2       16 UNK         0.5000 
     93 O          -8.0539  -25.9346  -50.7132 O.2       16 UNK        -0.5000 
     94 N          -6.8435  -24.9998  -49.0288 N.am      17 UNK        -0.5000 
     95 CA         -7.7632  -23.9512  -48.5749 C.3       17 UNK         0.1400 
     96 CB         -9.1037  -24.5384  -48.0841 C.3       17 UNK        -0.1800 
     97 C          -7.9200  -22.8405  -49.6324 C.2       17 UNK         0.5000 
     98 O          -9.0362  -22.4102  -49.9279 O.2       17 UNK        -0.5000 
     99 N          -6.7720  -22.4065  -50.1731 N.am      18 UNK        -0.5000 
    100 CA        -6.6001  -21.3682  -51.1923 C.3       18 UNK         0.1400 
    101 CB        -6.9268  -19.9776  -50.6104 C.3       18 UNK        -0.1800 
    102 C         -7.3477  -21.6730  -52.5075 C.2       18 UNK         0.5000 
    103 O         -8.0071  -20.7933  -53.0659 O.2       18 UNK        -0.5000 
    104 N         -7.2189  -22.9170  -52.9914 N.am      19 UNK        -0.5000 
    105 CA        -7.6525  -23.3200  -54.3300 C.3       19 UNK         0.1400 
    106 CB        -7.7396  -24.8518  -54.4123 C.3       19 UNK        -0.1800 
    107 C         -6.7002  -22.7577  -55.4024 C.2       19 UNK         0.5000 
    108 O         -7.1608  -22.3139  -56.4551 O.2       19 UNK        -0.5000 
    109 N         -5.3971  -22.7377  -55.0878 N.am      20 UNK        -0.5000 
    110 CA        -4.3906  -21.9474  -55.7939 C.3       20 UNK         0.1400 
    111 CB        -3.0219  -22.6358  -55.6749 C.3       20 UNK        -0.1800 
    112 C         -4.3471  -20.5285  -55.1977 C.2       20 UNK         0.5000 
    113 O         -4.6187  -20.3534  -54.0060 O.2       20 UNK        -0.5000 
    114 N         -3.9924  -19.5405  -56.0283 N.am      21 UNK        -0.5000 
    115 CA        -3.9712  -18.1096  -55.7040 C.3       21 UNK         0.1400 
    116 CB        -4.0460  -17.3103  -57.0179 C.3       21 UNK        -0.1800 
    117 C         -2.7702  -17.6945  -54.8226 C.2       21 UNK         0.5000 
    118 O         -2.0054  -16.8012  -55.1913 O.2       21 UNK        -0.5000 
    119 N         -2.6271  -18.3591  -53.6737 N.am      22 UNK        -0.5000 
    120 CA        -1.5673  -18.1391  -52.6769 C.3       22 UNK         0.1400 
    121 C         -1.9347  -17.1023  -51.5727 C.2       22 UNK         0.5000 
    122 N         -3.1326  -16.5295  -51.5730 N.am      22 UNK        -0.7600 
    123 O         -1.1204  -16.8065  -50.7015 O.2       22 UNK        -0.5000 
    124 C124       -1.1129  -19.4775  -52.0467 C.3       23 UNK        -0.0398 
    125 S125       -0.5055  -20.7068  -53.2599 S.3       23 UNK        -0.2404 
    126 C126        1.0388  -19.9734  -53.8981 C.3       23 UNK        -0.0205 
    127 H127       -3.0370  -14.0148  -47.7237 H         1 UNK         0.0600 
    128 H128       -2.3651  -15.4008  -48.5840 H         1 UNK         0.0600 
    129 H129       -2.9625  -14.0002  -49.4876 H         1 UNK         0.0600 
    130 H130       -0.1994  -15.3249  -49.3104 H         1 UNK         0.3000 
    131 H131        1.4124  -13.0035  -49.4524 H         1 UNK         0.0600 
    132 H132        3.3330  -14.7849  -49.4881 H         1 UNK         0.0800 
    133 H133        2.0729  -15.9888  -49.3707 H         1 UNK         0.0800 
    134 H134        4.3182  -15.6744  -51.5520 H         1 UNK         0.0800 
    135 H135        3.5923  -15.6679  -53.1380 H         1 UNK         0.0800 
    136 H136        1.9509  -17.4167  -53.8025 H         1 UNK         0.1150 
    137 H137        2.0226  -21.0927  -51.5995 H         1 UNK         0.1150 
    138 H138        4.0125  -17.6215  -50.0533 H         1 UNK         0.1150 
    139 H139        3.1657  -21.2659  -49.5263 H         1 UNK         0.0800 
    140 H140        4.5271  -20.1915  -49.3205 H         1 UNK         0.0800 
    141 H141        0.7227  -19.7153  -49.3285 H         1 UNK         0.0800 
    142 H142        0.3545  -18.9026  -47.8350 H         1 UNK         0.0800 
    143 H143        1.0086  -21.8790  -47.9990 H         1 UNK         0.0600 
    144 H144        0.5845  -20.2128  -45.7348 H         1 UNK         0.3000 
    145 H145       -0.3697  -22.8663  -43.4901 H         1 UNK         0.0600 
    146 H146        1.4778  -21.7791  -42.2449 H         1 UNK         0.0600 
    147 H147        2.1132  -22.7383  -43.5735 H         1 UNK         0.0600 
    148 H148        2.0404  -20.9874  -43.7145 H         1 UNK         0.0600 
    149 H149       -0.2142  -20.0511  -43.0971 H         1 UNK         0.3000 
    150 H150       -3.6424  -19.3261  -43.9238 H         1 UNK         0.0600 
    151 H151       -3.5880  -20.1859  -41.5718 H         1 UNK         0.0600 
    152 H152       -3.5564  -18.4301  -41.6260 H         1 UNK         0.0600 
    153 H153       -2.0776  -19.3273  -41.2897 H         1 UNK         0.0600 
    154 H154       -1.5986  -17.6028  -43.0208 H         1 UNK         0.3000 
    155 H155       -0.2437  -16.7106  -46.2362 H         1 UNK         0.0600 
    156 H156       -1.9129  -15.3213  -44.0724 H         1 UNK         0.0600 
    157 H157       -2.1938  -15.2780  -45.8001 H         1 UNK         0.0600 
    158 H158       -0.7676  -14.5006  -45.1291 H         1 UNK         0.0600 
    159 H159        0.6343  -15.9174  -43.6992 H         1 UNK         0.3000 
    160 H160        2.8486  -18.6471  -42.9672 H         1 UNK         0.0600 
    161 H161        3.2656  -15.7192  -43.7620 H         1 UNK         0.0600 
    162 H162        4.1200  -17.1093  -44.4015 H         1 UNK         0.0600 
    163 H163        4.3464  -16.6473  -42.7202 H         1 UNK         0.0600 
    164 H164        1.9681  -16.2183  -41.6330 H         1 UNK         0.3000 
    165 H165       -0.5156  -17.8037  -39.6299 H         1 UNK         0.0600 
    166 H166        0.8732  -16.8669  -37.8029 H         1 UNK         0.0600 
    167 H167        1.6332  -18.3086  -38.4577 H         1 UNK         0.0600 
    168 H168        2.2565  -16.7200  -38.8873 H         1 UNK         0.0600 
    169 H169        0.5384  -15.1369  -39.7123 H         1 UNK         0.3000 
    170 H170       -1.5484  -13.8814  -42.2931 H         1 UNK         0.0600 
    171 H171       -3.1094  -13.9355  -40.3397 H         1 UNK         0.0600 
    172 H172       -1.8017  -13.4368  -39.2732 H         1 UNK         0.0600 
    173 H173       -2.3776  -12.3521  -40.5399 H         1 UNK         0.0600 
    174 H174        0.1035  -12.4444  -40.5755 H         1 UNK         0.3000 
    175 H175        2.0435  -11.4860  -41.9314 H         1 UNK         0.0600 
    176 H176        3.1946  -13.6117  -40.0166 H         1 UNK         0.0600 
    177 H177        3.7124  -11.9302  -40.0826 H         1 UNK         0.0600 
    178 H178        2.0902  -12.3205  -39.5565 H         1 UNK         0.0600 
    179 H179        3.4538  -13.7874  -42.9936 H         1 UNK         0.3000 
    180 H180        6.0847  -11.8042  -44.3597 H         1 UNK         0.0600 
    181 H181        6.4047  -13.8997  -42.1720 H         1 UNK         0.0600 
    182 H182        7.0521  -12.2645  -42.1297 H         1 UNK         0.0600 
    183 H183        7.6328  -13.3994  -43.3353 H         1 UNK         0.0600 
    184 H184        5.8070  -14.5732  -44.4203 H         1 UNK         0.3000 
    185 H185        3.0509  -12.2722  -45.4563 H         1 UNK         0.0600 
    186 H186        4.8369  -10.7044  -45.7401 H         1 UNK         0.0600 
    187 H187        5.5467  -11.5915  -47.0906 H         1 UNK         0.0600 
    188 H188        4.0832  -10.6383  -47.2995 H         1 UNK         0.0600 
    189 H189        3.2824  -12.4432  -48.2990 H         1 UNK         0.3000 
    190 H190       -1.9665  -20.1867  -46.8573 H         1 UNK         0.3000 
    191 H191       -3.6337  -20.9710  -49.0059 H         1 UNK         0.0600 
    192 H192       -4.3429  -20.3419  -46.0986 H         1 UNK         0.0600 
    193 H193       -5.4957  -20.4530  -47.4218 H         1 UNK         0.0600 
    194 H194       -4.2712  -19.1930  -47.4334 H         1 UNK         0.0600 
    195 H195       -2.9148  -22.6330  -45.8939 H         1 UNK         0.3000 
    196 H196       -4.6337  -24.8573  -46.2773 H         1 UNK         0.0600 
    197 H197       -3.2200  -25.9242  -44.5159 H         1 UNK         0.0600 
    198 H198       -3.6649  -24.2812  -44.0799 H         1 UNK         0.0600 
    199 H199       -2.0396  -24.6281  -44.6628 H         1 UNK         0.0600 
    200 H200       -1.1616  -24.4122  -47.1125 H         1 UNK         0.3000 
    201 H201       -0.7330  -26.9394  -48.3288 H         1 UNK         0.0600 
    202 H202        1.0988  -25.4053  -47.6377 H         1 UNK         0.0600 
    203 H203        0.6208  -24.2421  -48.8718 H         1 UNK         0.0600 
    204 H204        1.2513  -25.8161  -49.3398 H         1 UNK         0.0600 
    205 H205       -2.0921  -23.9383  -49.6054 H         1 UNK         0.3000 
    206 H206       -2.3795  -24.8342  -52.3465 H         1 UNK         0.0600 
    207 H207       -2.0345  -22.4650  -51.7231 H         1 UNK         0.0600 
    208 H208       -3.5665  -22.6391  -52.5633 H         1 UNK         0.0600 
    209 H209       -3.5376  -22.4465  -50.8214 H         1 UNK         0.0600 
    210 H210       -3.8601  -26.1845  -49.8392 H         1 UNK         0.3000 
    211 H211       -5.6685  -27.3924  -49.4799 H         1 UNK         0.0600 
    212 H212       -6.2570  -27.1464  -52.4787 H         1 UNK         0.0600 
    213 H213       -6.9116  -28.3528  -51.3820 H         1 UNK         0.0600 
    214 H214       -5.1921  -28.3412  -51.7398 H         1 UNK         0.0600 
    215 H215       -5.9200  -24.9579  -48.6155 H         1 UNK         0.3000 
    216 H216       -7.2837  -23.4820  -47.7144 H         1 UNK         0.0600 
    217 H217       -9.7148  -23.7670  -47.6144 H         1 UNK         0.0600 
    218 H218       -8.9433  -25.3211  -47.3428 H         1 UNK         0.0600 
    219 H219       -9.6895  -24.9624  -48.8997 H         1 UNK         0.0600 
    220 H220       -5.9166  -22.8285  -49.8229 H         1 UNK         0.3000 
    221 H221       -5.5416  -21.3635  -51.4512 H         1 UNK         0.0600 
    222 H222       -7.9816  -19.8844  -50.3505 H         1 UNK         0.0600 
    223 H223       -6.3401  -19.7777  -49.7142 H         1 UNK         0.0600 
    224 H224       -6.6947  -19.1908  -51.3291 H         1 UNK         0.0600 
    225 H225       -6.6379  -23.5864  -52.4931 H         1 UNK         0.3000 
    226 H226       -8.6501  -22.9142  -54.5109 H         1 UNK         0.0600 
    227 H227       -8.3865  -25.2531  -53.6317 H         1 UNK         0.0600 
    228 H228       -8.1514  -25.1651  -55.3722 H         1 UNK         0.0600 
    229 H229       -6.7613  -25.3215  -54.3089 H         1 UNK         0.0600 
    230 H230       -5.1284  -23.1009  -54.1838 H         1 UNK         0.3000 
    231 H231       -4.6517  -21.8811  -56.8523 H         1 UNK         0.0600 
    232 H232       -3.0562  -23.6516  -56.0689 H         1 UNK         0.0600 
    233 H233       -2.6755  -22.6889  -54.6438 H         1 UNK         0.0600 
    234 H234       -2.2638  -22.0932  -56.2410 H         1 UNK         0.0600 
    235 H235       -3.7389  -19.7764  -56.9768 H         1 UNK         0.3000 
    236 H236       -4.8722  -17.8785  -55.1316 H         1 UNK         0.0600 
    237 H237       -4.0903  -16.2378  -56.8234 H         1 UNK         0.0600 
    238 H238       -3.1775  -17.4948  -57.6513 H         1 UNK         0.0600 
    239 H239       -4.9385  -17.5700  -57.5876 H         1 UNK         0.0600 
    240 H240       -3.2926  -19.1014  -53.4763 H         1 UNK         0.3000 
    241 H241       -0.7018  -17.7114  -53.1847 H         1 UNK         0.0600 
    242 H242       -3.3632  -15.8610  -50.8574 H         1 UNK         0.3800 
    243 H243       -3.8086  -16.7596  -52.2826 H         1 UNK         0.3800 
    244 H244       -0.3354  -19.3067  -51.3043 H         1 UNK         0.0800 
    245 H245       -1.9414  -19.9323  -51.5011 H         1 UNK         0.0800 
    246 H246        0.7751  -19.2445  -54.6661 H         1 UNK         0.0800 
    247 H247        1.6158  -20.7504  -54.4008 H         1 UNK         0.0800 
@<TRIPOS>BOND
     1    1    2 1    
     2    1  127 1    
     3    1  128 1    
     4    1  129 1    
     5    2    3 2    
     6    2    4 am   BACKBONE|DICT|INTERRES
     7    4    5 1    
     8    4  130 1    
     9    5    6 1    
    10    5   65 1    
    11    5  131 1    
    12    6    7 1    
    13    6  132 1    
    14    6  133 1    
    15    7    8 1    
    16    8    9 1    
    17    8  134 1    
    18    8  135 1    
    19    9   10 ar   
    20    9   14 ar   
    21   10   11 ar   
    22   10  136 1    
    23   11   12 ar   
    24   11  126 1    
    25   12   13 ar   
    26   12  137 1    
    27   13   14 ar   
    28   13   15 1    
    29   14  138 1    
    30   15   16 1    
    31   15  139 1    
    32   15  140 1    
    33   16   17 1    
    34   17   18 1    
    35   17  141 1    
    36   17  142 1    
    37   18   19 1    
    38   18   67 1    
    39   18  143 1    
    40   19   20 am   BACKBONE|DICT|INTERRES
    41   19  144 1    
    42   20   21 2    
    43   20   22 1    
    44   22   23 1    
    45   22   24 1    
    46   22  145 1    
    47   23  146 1    
    48   23  147 1    
    49   23  148 1    
    50   24   25 am   BACKBONE|DICT|INTERRES
    51   24  149 1    
    52   25   26 2    
    53   25   27 1    
    54   27   28 1    
    55   27   29 1    
    56   27  150 1    
    57   28  151 1    
    58   28  152 1    
    59   28  153 1    
    60   29   30 am   BACKBONE|DICT|INTERRES
    61   29  154 1    
    62   30   31 2    
    63   30   32 1    
    64   32   33 1    
    65   32   34 1    
    66   32  155 1    
    67   33  156 1    
    68   33  157 1    
    69   33  158 1    
    70   34   35 am   BACKBONE|DICT|INTERRES
    71   34  159 1    
    72   35   36 2    
    73   35   37 1    
    74   37   38 1    
    75   37   39 1    
    76   37  160 1    
    77   38  161 1    
    78   38  162 1    
    79   38  163 1    
    80   39   40 am   BACKBONE|DICT|INTERRES
    81   39  164 1    
    82   40   41 2    
    83   40   42 1    
    84   42   43 1    
    85   42   44 1    
    86   42  165 1    
    87   43  166 1    
    88   43  167 1    
    89   43  168 1    
    90   44   45 am   BACKBONE|DICT|INTERRES
    91   44  169 1    
    92   45   46 2    
    93   45   47 1    
    94   47   48 1    
    95   47   49 1    
    96   47  170 1    
    97   48  171 1    
    98   48  172 1    
    99   48  173 1    
   100   49   50 am   BACKBONE|DICT|INTERRES
   101   49  174 1    
   102   50   51 2    
   103   50   52 1    
   104   52   53 1    
   105   52   54 1    
   106   52  175 1    
   107   53  176 1    
   108   53  177 1    
   109   53  178 1    
   110   54   55 am   BACKBONE|DICT|INTERRES
   111   54  179 1    
   112   55   56 2    
   113   55   57 1    
   114   57   58 1    
   115   57   59 1    
   116   57  180 1    
   117   58  181 1    
   118   58  182 1    
   119   58  183 1    
   120   59   60 am   BACKBONE|DICT|INTERRES
   121   59  184 1    
   122   60   61 2    
   123   60   62 1    
   124   62   63 1    
   125   62   64 1    
   126   62  185 1    
   127   63  186 1    
   128   63  187 1    
   129   63  188 1    
   130   64   65 am   BACKBONE|DICT|INTERRES
   131   64  189 1    
   132   65   66 2    
   133   67   68 2    
   134   67   69 am   BACKBONE|DICT|INTERRES
   135   69   70 1    
   136   69  190 1    
   137   70   71 1    
   138   70   72 1    
   139   70  191 1    
   140   71  192 1    
   141   71  193 1    
   142   71  194 1    
   143   72   73 2    
   144   72   74 am   BACKBONE|DICT|INTERRES
   145   74   75 1    
   146   74  195 1    
   147   75   76 1    
   148   75   77 1    
   149   75  196 1    
   150   76  197 1    
   151   76  198 1    
   152   76  199 1    
   153   77   78 2    
   154   77   79 am   BACKBONE|DICT|INTERRES
   155   79   80 1    
   156   79  200 1    
   157   80   81 1    
   158   80   82 1    
   159   80  201 1    
   160   81  202 1    
   161   81  203 1    
   162   81  204 1    
   163   82   83 2    
   164   82   84 am   BACKBONE|DICT|INTERRES
   165   84   85 1    
   166   84  205 1    
   167   85   86 1    
   168   85   87 1    
   169   85  206 1    
   170   86  207 1    
   171   86  208 1    
   172   86  209 1    
   173   87   88 2    
   174   87   89 am   BACKBONE|DICT|INTERRES
   175   89   90 1    
   176   89  210 1    
   177   90   91 1    
   178   90   92 1    
   179   90  211 1    
   180   91  212 1    
   181   91  213 1    
   182   91  214 1    
   183   92   93 2    
   184   92   94 am   BACKBONE|DICT|INTERRES
   185   94   95 1    
   186   94  215 1    
   187   95   96 1    
   188   95   97 1    
   189   95  216 1    
   190   96  217 1    
   191   96  218 1    
   192   96  219 1    
   193   97   98 2    
   194   97   99 am   BACKBONE|DICT|INTERRES
   195   99  100 1    
   196   99  220 1    
   197  100  101 1    
   198  100  102 1    
   199  100  221 1    
   200  101  222 1    
   201  101  223 1    
   202  101  224 1    
   203  102  103 2    
   204  102  104 am   BACKBONE|DICT|INTERRES
   205  104  105 1    
   206  104  225 1    
   207  105  106 1    
   208  105  107 1    
   209  105  226 1    
   210  106  227 1    
   211  106  228 1    
   212  106  229 1    
   213  107  108 2    
   214  107  109 am   BACKBONE|DICT|INTERRES
   215  109  110 1    
   216  109  230 1    
   217  110  111 1    
   218  110  112 1    
   219  110  231 1    
   220  111  232 1    
   221  111  233 1    
   222  111  234 1    
   223  112  113 2    
   224  112  114 am   BACKBONE|DICT|INTERRES
   225  114  115 1    
   226  114  235 1    
   227  115  116 1    
   228  115  117 1    
   229  115  236 1    
   230  116  237 1    
   231  116  238 1    
   232  116  239 1    
   233  117  118 2    
   234  117  119 am   BACKBONE|DICT|INTERRES
   235  119  120 1    
   236  119  240 1    
   237  120  121 1    
   238  120  124 1    
   239  120  241 1    
   240  121  122 am   BACKBONE|DICT|INTERRES
   241  121  123 2    
   242  122  242 1    
   243  122  243 1    
   244  124  125 1    
   245  124  244 1    
   246  124  245 1    
   247  125  126 1    
   248  126  246 1    
   249  126  247 1    
@<TRIPOS>SUBSTRUCTURE
     1 UNK         1 GROUP             0       ****    0 ROOT    
