@<TRIPOS>MOLECULE
3R540
247   249    1
SMALL
USER_CHARGES


@<TRIPOS>ATOM
      1 CA         -2.7072  -12.5339  -43.8441 C.3       0 UNK        -0.1800 
      2 C          -1.9946  -12.3127  -45.1705 C.2       0 UNK         0.5000 
      3 O          -2.1822  -11.2728  -45.8033 O.2       0 UNK        -0.5000 
      4 N          -1.1714  -13.2779  -45.5942 N.am      1 UNK        -0.5000 
      5 CA         -0.4358  -13.2646  -46.8638 C.3       1 UNK         0.1400 
      6 C6         -0.2287  -14.6921  -47.4278 C.3       23 UNK        -0.0398 
      7 S7         -1.8148  -15.4417  -47.9299 S.3       23 UNK        -0.2404 
      8 C8         -1.8458  -15.0541  -49.7089 C.3       23 UNK        -0.0205 
      9 C9         -1.4436  -16.2518  -50.5562 C.ar      23 UNK        -0.0193 
     10 C10        -2.4166  -16.9624  -51.2632 C.ar      23 UNK        -0.1150 
     11 C11        -2.0667  -18.0648  -52.0484 C.ar      23 UNK        -0.0193 
     12 C12        -0.7260  -18.4506  -52.1283 C.ar      23 UNK        -0.1150 
     13 C13         0.2583  -17.7537  -51.4193 C.ar      23 UNK        -0.0193 
     14 C14        -0.1068  -16.6513  -50.6407 C.ar      23 UNK        -0.1150 
     15 C15         1.7190  -18.1776  -51.5021 C.3       23 UNK        -0.0205 
     16 S16         1.9850  -19.9164  -51.0290 S.3       23 UNK        -0.2404 
     17 C17         1.4939  -19.9152  -49.2717 C.3       23 UNK        -0.0398 
     18 CA          1.5899  -21.3312  -48.6434 C.3       11 UNK         0.1400 
     19 N           1.9532  -21.2626  -47.2213 N.am      11 UNK        -0.5000 
     20 C           2.5865  -22.2377  -46.5541 C.2       10 UNK         0.5000 
     21 O           2.9790  -23.2805  -47.0779 O.2       10 UNK        -0.5000 
     22 CA          2.7908  -22.0291  -45.0429 C.3       10 UNK         0.1400 
     23 CB          3.9969  -21.1140  -44.7842 C.3       10 UNK        -0.1800 
     24 N           1.6083  -21.4982  -44.3578 N.am      10 UNK        -0.5000 
     25 C           0.4386  -22.1444  -44.2370 C.2       9 UNK         0.5000 
     26 O           0.2118  -23.2456  -44.7367 O.2       9 UNK        -0.5000 
     27 CA         -0.6780  -21.4334  -43.4515 C.3       9 UNK         0.1400 
     28 CB         -0.4372  -21.5274  -41.9375 C.3       9 UNK        -0.1800 
     29 N          -0.8126  -20.0328  -43.8396 N.am      9 UNK        -0.5000 
     30 C          -1.2970  -19.6163  -45.0156 C.2       8 UNK         0.5000 
     31 O          -1.7823  -20.3704  -45.8582 O.2       8 UNK        -0.5000 
     32 CA         -1.1942  -18.1113  -45.3179 C.3       8 UNK         0.1400 
     33 CB         -2.4099  -17.3572  -44.7592 C.3       8 UNK        -0.1800 
     34 N           0.0435  -17.5210  -44.8052 N.am      8 UNK        -0.5000 
     35 C           1.2654  -17.8331  -45.2615 C.2       7 UNK         0.5000 
     36 O           1.4718  -18.6246  -46.1819 O.2       7 UNK        -0.5000 
     37 CA          2.4591  -17.1836  -44.5433 C.3       7 UNK         0.1400 
     38 CB          2.7542  -15.7995  -45.1262 C.3       7 UNK        -0.1800 
     39 N           2.2570  -17.0704  -43.0995 N.am      7 UNK        -0.5000 
     40 C           2.2032  -18.1201  -42.2677 C.2       6 UNK         0.5000 
     41 O           2.3557  -19.2863  -42.6288 O.2       6 UNK        -0.5000 
     42 CA          1.8507  -17.8215  -40.8002 C.3       6 UNK         0.1400 
     43 CB          3.0725  -17.2811  -40.0425 C.3       6 UNK        -0.1800 
     44 N           0.7441  -16.8727  -40.6796 N.am      6 UNK        -0.5000 
     45 C          -0.4945  -17.0737  -41.1535 C.2       5 UNK         0.5000 
     46 O          -0.8561  -18.1228  -41.6833 O.2       5 UNK        -0.5000 
     47 CA         -1.4881  -15.9006  -41.0560 C.3       5 UNK         0.1400 
     48 CB         -2.4609  -16.1146  -39.8875 C.3       5 UNK        -0.1800 
     49 N          -0.8321  -14.6017  -40.9017 N.am      5 UNK        -0.5000 
     50 C          -0.0955  -13.9924  -41.8400 C.2       4 UNK         0.5000 
     51 O           0.0473  -14.4377  -42.9833 O.2       4 UNK        -0.5000 
     52 CA          0.5559  -12.6569  -41.4157 C.3       4 UNK         0.1400 
     53 CB          1.0359  -12.6656  -39.9464 C.3       4 UNK        -0.1800 
     54 N           1.6492  -12.2166  -42.2841 N.am      4 UNK        -0.5000 
     55 C           2.7971  -12.8518  -42.5602 C.2       3 UNK         0.5000 
     56 O           3.0729  -13.9877  -42.1669 O.2       3 UNK        -0.5000 
     57 CA          3.7972  -12.0479  -43.4186 C.3       3 UNK         0.1400 
     58 CB          5.0842  -12.8157  -43.7665 C.3       3 UNK        -0.1800 
     59 N           3.1697  -11.5731  -44.6520 N.am      3 UNK        -0.5000 
     60 C           2.4786  -10.4358  -44.7859 C.2       2 UNK         0.5000 
     61 O           2.3179   -9.6286  -43.8701 O.2       2 UNK        -0.5000 
     62 CA          1.7973  -10.1879  -46.1430 C.3       2 UNK         0.1400 
     63 CB          2.8164  -10.0576  -47.2927 C.3       2 UNK        -0.1800 
     64 N           0.7551  -11.1780  -46.4359 N.am      2 UNK        -0.5000 
     65 C           0.8842  -12.4871  -46.6940 C.2       1 UNK         0.5000 
     66 O           1.9664  -13.0712  -46.7676 O.2       1 UNK        -0.5000 
     67 C           0.3043  -22.1630  -48.8792 C.2       11 UNK         0.5000 
     68 O          -0.0287  -22.4637  -50.0256 O.2       11 UNK        -0.5000 
     69 N          -0.3936  -22.5204  -47.7896 N.am      12 UNK        -0.5000 
     70 CA         -1.6491  -23.2722  -47.7312 C.3       12 UNK         0.1400 
     71 CB         -1.4495  -24.7158  -48.2185 C.3       12 UNK        -0.1800 
     72 C          -2.8172  -22.5471  -48.4287 C.2       12 UNK         0.5000 
     73 O          -3.7297  -23.1854  -48.9583 O.2       12 UNK        -0.5000 
     74 N          -2.7926  -21.2113  -48.3525 N.am      13 UNK        -0.5000 
     75 CA         -3.8863  -20.3087  -48.7002 C.3       13 UNK         0.1400 
     76 CB         -3.3702  -18.8660  -48.6525 C.3       13 UNK        -0.1800 
     77 C          -5.0661  -20.4846  -47.7304 C.2       13 UNK         0.5000 
     78 O          -6.2194  -20.4628  -48.1577 O.2       13 UNK        -0.5000 
     79 N          -4.7410  -20.7439  -46.4544 N.am      14 UNK        -0.5000 
     80 CA         -5.6775  -21.0933  -45.3841 C.3       14 UNK         0.1400 
     81 CB         -4.9042  -21.1371  -44.0569 C.3       14 UNK        -0.1800 
     82 C          -6.4225  -22.4254  -45.6228 C.2       14 UNK         0.5000 
     83 O          -7.5006  -22.6233  -45.0631 O.2       14 UNK        -0.5000 
     84 N          -5.8521  -23.2959  -46.4678 N.am      15 UNK        -0.5000 
     85 CA         -6.4372  -24.5571  -46.9257 C.3       15 UNK         0.1400 
     86 CB         -5.3377  -25.6321  -46.9359 C.3       15 UNK        -0.1800 
     87 C          -7.1050  -24.4143  -48.3118 C.2       15 UNK         0.5000 
     88 O          -7.3399  -25.4255  -48.9734 O.2       15 UNK        -0.5000 
     89 N          -7.3992  -23.1715  -48.7248 N.am      16 UNK        -0.5000 
     90 CA         -8.0210  -22.7718  -49.9900 C.3       16 UNK         0.1400 
     91 CB         -9.4343  -23.3749  -50.1437 C.3       16 UNK        -0.1800 
     92 C          -7.1062  -23.0180  -51.2064 C.2       16 UNK         0.5000 
     93 O          -7.5555  -23.5559  -52.2199 O.2       16 UNK        -0.5000 
     94 N          -5.8423  -22.5846  -51.0782 N.am      17 UNK        -0.5000 
     95 CA         -4.7873  -22.6004  -52.1005 C.3       17 UNK         0.1400 
     96 CB         -5.1965  -21.7291  -53.3092 C.3       17 UNK        -0.1800 
     97 C          -4.3837  -24.0372  -52.4891 C.2       17 UNK         0.5000 
     98 O          -4.3456  -24.3804  -53.6724 O.2       17 UNK        -0.5000 
     99 N          -4.1363  -24.8686  -51.4680 N.am      18 UNK        -0.5000 
    100 CA        -3.9012  -26.3040  -51.6254 C.3       18 UNK         0.1400 
    101 CB        -4.1359  -27.0113  -50.2824 C.3       18 UNK        -0.1800 
    102 C         -2.5056  -26.6416  -52.1802 C.2       18 UNK         0.5000 
    103 O         -2.3957  -27.4921  -53.0643 O.2       18 UNK        -0.5000 
    104 N         -1.4665  -25.9935  -51.6374 N.am      19 UNK        -0.5000 
    105 CA        -0.0645  -26.2768  -51.9609 C.3       19 UNK         0.1400 
    106 CB         0.8069  -26.0396  -50.7175 C.3       19 UNK        -0.1800 
    107 C          0.4540  -25.4427  -53.1434 C.2       19 UNK         0.5000 
    108 O          1.3685  -25.8875  -53.8388 O.2       19 UNK        -0.5000 
    109 N         -0.1308  -24.2602  -53.3558 N.am      20 UNK        -0.5000 
    110 CA         0.1913  -23.3448  -54.4411 C.3       20 UNK         0.1400 
    111 CB         1.3211  -22.3962  -54.0085 C.3       20 UNK        -0.1800 
    112 C         -1.0763  -22.5639  -54.7965 C.2       20 UNK         0.5000 
    113 O         -1.8132  -22.1627  -53.8933 O.2       20 UNK        -0.5000 
    114 N         -1.2992  -22.3642  -56.0994 N.am      21 UNK        -0.5000 
    115 CA        -2.4132  -21.5917  -56.6440 C.3       21 UNK         0.1400 
    116 CB        -2.6004  -21.9772  -58.1204 C.3       21 UNK        -0.1800 
    117 C         -2.1765  -20.0764  -56.5079 C.2       21 UNK         0.5000 
    118 O         -1.0309  -19.6321  -56.3949 O.2       21 UNK        -0.5000 
    119 N         -3.2667  -19.3101  -56.5683 N.am      22 UNK        -0.5000 
    120 CA        -3.2805  -17.8439  -56.5338 C.3       22 UNK         0.1400 
    121 C         -4.5722  -17.2788  -57.1867 C.2       22 UNK         0.5000 
    122 N         -4.6238  -15.9811  -57.4562 N.am      22 UNK        -0.7600 
    123 O         -5.5297  -18.0021  -57.4579 O.2       22 UNK        -0.5000 
    124 C124       -3.0080  -17.2714  -55.1152 C.3       23 UNK        -0.0398 
    125 S125       -4.1968  -17.8280  -53.8415 S.3       23 UNK        -0.2404 
    126 C126       -3.1378  -18.8629  -52.7792 C.3       23 UNK        -0.0205 
    127 H127       -2.6211  -13.5675  -43.5082 H         1 UNK         0.0600 
    128 H128       -3.7675  -12.3025  -43.9450 H         1 UNK         0.0600 
    129 H129       -2.2870  -11.8834  -43.0777 H         1 UNK         0.0600 
    130 H130       -0.9747  -14.0577  -44.9797 H         1 UNK         0.3000 
    131 H131       -1.0177  -12.7128  -47.6057 H         1 UNK         0.0600 
    132 H132        0.4488  -14.6805  -48.2822 H         1 UNK         0.0800 
    133 H133        0.2383  -15.3354  -46.6829 H         1 UNK         0.0800 
    134 H134       -2.8553  -14.7326  -49.9691 H         1 UNK         0.0800 
    135 H135       -1.1978  -14.2058  -49.9328 H         1 UNK         0.0800 
    136 H136       -3.4539  -16.6664  -51.1940 H         1 UNK         0.1150 
    137 H137       -0.4471  -19.3057  -52.7291 H         1 UNK         0.1150 
    138 H138        0.6500  -16.1057  -50.0968 H         1 UNK         0.1150 
    139 H139        2.0648  -18.0372  -52.5270 H         1 UNK         0.0800 
    140 H140        2.3473  -17.5424  -50.8757 H         1 UNK         0.0800 
    141 H141        0.4944  -19.4905  -49.1574 H         1 UNK         0.0800 
    142 H142        2.1704  -19.2280  -48.7615 H         1 UNK         0.0800 
    143 H143        2.3951  -21.8675  -49.1505 H         1 UNK         0.0600 
    144 H144        1.7000  -20.4071  -46.7307 H         1 UNK         0.3000 
    145 H145        3.0116  -23.0046  -44.6046 H         1 UNK         0.0600 
    146 H146        4.2103  -21.0339  -43.7182 H         1 UNK         0.0600 
    147 H147        4.8944  -21.5039  -45.2659 H         1 UNK         0.0600 
    148 H148        3.8277  -20.1089  -45.1699 H         1 UNK         0.0600 
    149 H149        1.7294  -20.6124  -43.8743 H         1 UNK         0.3000 
    150 H150       -1.6186  -21.9414  -43.6741 H         1 UNK         0.0600 
    151 H151       -0.3514  -22.5669  -41.6191 H         1 UNK         0.0600 
    152 H152       -1.2626  -21.0826  -41.3812 H         1 UNK         0.0600 
    153 H153        0.4779  -21.0149  -41.6397 H         1 UNK         0.0600 
    154 H154       -0.5160  -19.3386  -43.1602 H         1 UNK         0.3000 
    155 H155       -1.1877  -17.9938  -46.4031 H         1 UNK         0.0600 
    156 H156       -2.5225  -17.5071  -43.6862 H         1 UNK         0.0600 
    157 H157       -2.3342  -16.2857  -44.9450 H         1 UNK         0.0600 
    158 H158       -3.3297  -17.7044  -45.2313 H         1 UNK         0.0600 
    159 H159       -0.0343  -16.8745  -44.0332 H         1 UNK         0.3000 
    160 H160        3.3328  -17.8140  -44.7176 H         1 UNK         0.0600 
    161 H161        1.9745  -15.0795  -44.8762 H         1 UNK         0.0600 
    162 H162        2.8421  -15.8337  -46.2130 H         1 UNK         0.0600 
    163 H163        3.6964  -15.4231  -44.7364 H         1 UNK         0.0600 
    164 H164        2.1256  -16.1370  -42.7291 H         1 UNK         0.3000 
    165 H165        1.5423  -18.7593  -40.3332 H         1 UNK         0.0600 
    166 H166        2.8508  -17.1431  -38.9842 H         1 UNK         0.0600 
    167 H167        3.9116  -17.9749  -40.1105 H         1 UNK         0.0600 
    168 H168        3.4052  -16.3226  -40.4436 H         1 UNK         0.0600 
    169 H169        0.9577  -15.9782  -40.2652 H         1 UNK         0.3000 
    170 H170       -2.0656  -15.8788  -41.9818 H         1 UNK         0.0600 
    171 H171       -1.9419  -16.1288  -38.9282 H         1 UNK         0.0600 
    172 H172       -3.2140  -15.3271  -39.8516 H         1 UNK         0.0600 
    173 H173       -2.9898  -17.0633  -39.9888 H         1 UNK         0.0600 
    174 H174       -0.9197  -14.1635  -39.9962 H         1 UNK         0.3000 
    175 H175       -0.2221  -11.8983  -41.5084 H         1 UNK         0.0600 
    176 H176        1.5413  -11.7330  -39.6947 H         1 UNK         0.0600 
    177 H177        1.7342  -13.4811  -39.7535 H         1 UNK         0.0600 
    178 H178        0.2044  -12.7670  -39.2485 H         1 UNK         0.0600 
    179 H179        1.5370  -11.2952  -42.6885 H         1 UNK         0.3000 
    180 H180        4.0971  -11.1901  -42.8130 H         1 UNK         0.0600 
    181 H181        4.9026  -13.6147  -44.4816 H         1 UNK         0.0600 
    182 H182        5.5379  -13.2569  -42.8782 H         1 UNK         0.0600 
    183 H183        5.8245  -12.1476  -44.2069 H         1 UNK         0.0600 
    184 H184        3.1355  -12.2277  -45.4281 H         1 UNK         0.3000 
    185 H185        1.2799   -9.2304  -46.0638 H         1 UNK         0.0600 
    186 H186        3.5243   -9.2528  -47.0911 H         1 UNK         0.0600 
    187 H187        3.3972  -10.9680  -47.4413 H         1 UNK         0.0600 
    188 H188        2.3181   -9.8230  -48.2332 H         1 UNK         0.0600 
    189 H189       -0.1959  -10.8364  -46.3412 H         1 UNK         0.3000 
    190 H190       -0.0246  -22.2407  -46.8909 H         1 UNK         0.3000 
    191 H191       -1.9153  -23.3196  -46.6744 H         1 UNK         0.0600 
    192 H192       -0.5591  -25.1645  -47.7778 H         1 UNK         0.0600 
    193 H193       -2.2955  -25.3424  -47.9424 H         1 UNK         0.0600 
    194 H194       -1.3471  -24.7510  -49.2990 H         1 UNK         0.0600 
    195 H195       -2.0407  -20.8028  -47.8092 H         1 UNK         0.3000 
    196 H196       -4.2168  -20.5338  -49.7151 H         1 UNK         0.0600 
    197 H197       -4.0909  -18.1792  -49.0972 H         1 UNK         0.0600 
    198 H198       -2.4331  -18.7669  -49.1988 H         1 UNK         0.0600 
    199 H199       -3.1890  -18.5308  -47.6317 H         1 UNK         0.0600 
    200 H200       -3.7572  -20.7304  -46.2059 H         1 UNK         0.3000 
    201 H201       -6.4278  -20.3026  -45.3231 H         1 UNK         0.0600 
    202 H202       -4.4252  -20.1806  -43.8459 H         1 UNK         0.0600 
    203 H203       -4.1287  -21.9039  -44.0700 H         1 UNK         0.0600 
    204 H204       -5.5708  -21.3574  -43.2221 H         1 UNK         0.0600 
    205 H205       -4.9843  -23.0328  -46.9115 H         1 UNK         0.3000 
    206 H206       -7.2136  -24.8801  -46.2296 H         1 UNK         0.0600 
    207 H207       -4.8426  -25.7039  -45.9675 H         1 UNK         0.0600 
    208 H208       -5.7506  -26.6159  -47.1622 H         1 UNK         0.0600 
    209 H209       -4.5805  -25.4157  -47.6872 H         1 UNK         0.0600 
    210 H210       -7.1339  -22.3996  -48.1250 H         1 UNK         0.3000 
    211 H211       -8.1446  -21.6895  -49.9288 H         1 UNK         0.0600 
    212 H212       -9.4063  -24.4555  -50.2847 H         1 UNK         0.0600 
    213 H213       -9.9452  -22.9494  -51.0081 H         1 UNK         0.0600 
    214 H214      -10.0497  -23.1656  -49.2689 H         1 UNK         0.0600 
    215 H215       -5.5562  -22.2528  -50.1680 H         1 UNK         0.3000 
    216 H216       -3.9051  -22.1436  -51.6493 H         1 UNK         0.0600 
    217 H217       -5.9961  -22.1864  -53.8922 H         1 UNK         0.0600 
    218 H218       -4.3552  -21.5753  -53.9824 H         1 UNK         0.0600 
    219 H219       -5.5399  -20.7450  -52.9917 H         1 UNK         0.0600 
    220 H220       -4.1769  -24.4989  -50.5243 H         1 UNK         0.3000 
    221 H221       -4.6384  -26.6910  -52.3325 H         1 UNK         0.0600 
    222 H222       -3.4390  -26.6709  -49.5177 H         1 UNK         0.0600 
    223 H223       -5.1480  -26.8375  -49.9172 H         1 UNK         0.0600 
    224 H224       -4.0092  -28.0900  -50.3827 H         1 UNK         0.0600 
    225 H225       -1.6430  -25.2916  -50.9349 H         1 UNK         0.3000 
    226 H226        0.0355  -27.3298  -52.2337 H         1 UNK         0.0600 
    227 H227        0.4649  -26.6386  -49.8734 H         1 UNK         0.0600 
    228 H228        1.8438  -26.3166  -50.9119 H         1 UNK         0.0600 
    229 H229        0.8036  -24.9930  -50.4138 H         1 UNK         0.0600 
    230 H230       -0.8956  -23.9620  -52.7651 H         1 UNK         0.3000 
    231 H231        0.5117  -23.9127  -55.3174 H         1 UNK         0.0600 
    232 H232        1.0385  -21.8247  -53.1240 H         1 UNK         0.0600 
    233 H233        1.5591  -21.6836  -54.7990 H         1 UNK         0.0600 
    234 H234        2.2335  -22.9448  -53.7752 H         1 UNK         0.0600 
    235 H235       -0.6177  -22.6908  -56.7685 H         1 UNK         0.3000 
    236 H236       -3.3220  -21.8553  -56.0994 H         1 UNK         0.0600 
    237 H237       -3.4493  -21.4517  -58.5596 H         1 UNK         0.0600 
    238 H238       -1.7197  -21.7319  -58.7156 H         1 UNK         0.0600 
    239 H239       -2.7919  -23.0451  -58.2280 H         1 UNK         0.0600 
    240 H240       -4.1786  -19.7252  -56.7075 H         1 UNK         0.3000 
    241 H241       -2.4697  -17.5105  -57.1846 H         1 UNK         0.0600 
    242 H242       -3.8519  -15.3640  -57.2564 H         1 UNK         0.3800 
    243 H243       -5.4578  -15.6044  -57.8801 H         1 UNK         0.3800 
    244 H244       -1.9965  -17.5391  -54.8086 H         1 UNK         0.0800 
    245 H245       -3.0176  -16.1809  -55.1329 H         1 UNK         0.0800 
    246 H246       -3.7613  -19.3593  -52.0355 H         1 UNK         0.0800 
    247 H247       -2.6914  -19.6519  -53.3858 H         1 UNK         0.0800 
@<TRIPOS>BOND
     1    1    2 1    
     2    1  127 1    
     3    1  128 1    
     4    1  129 1    
     5    2    3 2    
     6    2    4 am   BACKBONE|DICT|INTERRES
     7    4    5 1    
     8    4  130 1    
     9    5    6 1    
    10    5   65 1    
    11    5  131 1    
    12    6    7 1    
    13    6  132 1    
    14    6  133 1    
    15    7    8 1    
    16    8    9 1    
    17    8  134 1    
    18    8  135 1    
    19    9   10 ar   
    20    9   14 ar   
    21   10   11 ar   
    22   10  136 1    
    23   11   12 ar   
    24   11  126 1    
    25   12   13 ar   
    26   12  137 1    
    27   13   14 ar   
    28   13   15 1    
    29   14  138 1    
    30   15   16 1    
    31   15  139 1    
    32   15  140 1    
    33   16   17 1    
    34   17   18 1    
    35   17  141 1    
    36   17  142 1    
    37   18   19 1    
    38   18   67 1    
    39   18  143 1    
    40   19   20 am   BACKBONE|DICT|INTERRES
    41   19  144 1    
    42   20   21 2    
    43   20   22 1    
    44   22   23 1    
    45   22   24 1    
    46   22  145 1    
    47   23  146 1    
    48   23  147 1    
    49   23  148 1    
    50   24   25 am   BACKBONE|DICT|INTERRES
    51   24  149 1    
    52   25   26 2    
    53   25   27 1    
    54   27   28 1    
    55   27   29 1    
    56   27  150 1    
    57   28  151 1    
    58   28  152 1    
    59   28  153 1    
    60   29   30 am   BACKBONE|DICT|INTERRES
    61   29  154 1    
    62   30   31 2    
    63   30   32 1    
    64   32   33 1    
    65   32   34 1    
    66   32  155 1    
    67   33  156 1    
    68   33  157 1    
    69   33  158 1    
    70   34   35 am   BACKBONE|DICT|INTERRES
    71   34  159 1    
    72   35   36 2    
    73   35   37 1    
    74   37   38 1    
    75   37   39 1    
    76   37  160 1    
    77   38  161 1    
    78   38  162 1    
    79   38  163 1    
    80   39   40 am   BACKBONE|DICT|INTERRES
    81   39  164 1    
    82   40   41 2    
    83   40   42 1    
    84   42   43 1    
    85   42   44 1    
    86   42  165 1    
    87   43  166 1    
    88   43  167 1    
    89   43  168 1    
    90   44   45 am   BACKBONE|DICT|INTERRES
    91   44  169 1    
    92   45   46 2    
    93   45   47 1    
    94   47   48 1    
    95   47   49 1    
    96   47  170 1    
    97   48  171 1    
    98   48  172 1    
    99   48  173 1    
   100   49   50 am   BACKBONE|DICT|INTERRES
   101   49  174 1    
   102   50   51 2    
   103   50   52 1    
   104   52   53 1    
   105   52   54 1    
   106   52  175 1    
   107   53  176 1    
   108   53  177 1    
   109   53  178 1    
   110   54   55 am   BACKBONE|DICT|INTERRES
   111   54  179 1    
   112   55   56 2    
   113   55   57 1    
   114   57   58 1    
   115   57   59 1    
   116   57  180 1    
   117   58  181 1    
   118   58  182 1    
   119   58  183 1    
   120   59   60 am   BACKBONE|DICT|INTERRES
   121   59  184 1    
   122   60   61 2    
   123   60   62 1    
   124   62   63 1    
   125   62   64 1    
   126   62  185 1    
   127   63  186 1    
   128   63  187 1    
   129   63  188 1    
   130   64   65 am   BACKBONE|DICT|INTERRES
   131   64  189 1    
   132   65   66 2    
   133   67   68 2    
   134   67   69 am   BACKBONE|DICT|INTERRES
   135   69   70 1    
   136   69  190 1    
   137   70   71 1    
   138   70   72 1    
   139   70  191 1    
   140   71  192 1    
   141   71  193 1    
   142   71  194 1    
   143   72   73 2    
   144   72   74 am   BACKBONE|DICT|INTERRES
   145   74   75 1    
   146   74  195 1    
   147   75   76 1    
   148   75   77 1    
   149   75  196 1    
   150   76  197 1    
   151   76  198 1    
   152   76  199 1    
   153   77   78 2    
   154   77   79 am   BACKBONE|DICT|INTERRES
   155   79   80 1    
   156   79  200 1    
   157   80   81 1    
   158   80   82 1    
   159   80  201 1    
   160   81  202 1    
   161   81  203 1    
   162   81  204 1    
   163   82   83 2    
   164   82   84 am   BACKBONE|DICT|INTERRES
   165   84   85 1    
   166   84  205 1    
   167   85   86 1    
   168   85   87 1    
   169   85  206 1    
   170   86  207 1    
   171   86  208 1    
   172   86  209 1    
   173   87   88 2    
   174   87   89 am   BACKBONE|DICT|INTERRES
   175   89   90 1    
   176   89  210 1    
   177   90   91 1    
   178   90   92 1    
   179   90  211 1    
   180   91  212 1    
   181   91  213 1    
   182   91  214 1    
   183   92   93 2    
   184   92   94 am   BACKBONE|DICT|INTERRES
   185   94   95 1    
   186   94  215 1    
   187   95   96 1    
   188   95   97 1    
   189   95  216 1    
   190   96  217 1    
   191   96  218 1    
   192   96  219 1    
   193   97   98 2    
   194   97   99 am   BACKBONE|DICT|INTERRES
   195   99  100 1    
   196   99  220 1    
   197  100  101 1    
   198  100  102 1    
   199  100  221 1    
   200  101  222 1    
   201  101  223 1    
   202  101  224 1    
   203  102  103 2    
   204  102  104 am   BACKBONE|DICT|INTERRES
   205  104  105 1    
   206  104  225 1    
   207  105  106 1    
   208  105  107 1    
   209  105  226 1    
   210  106  227 1    
   211  106  228 1    
   212  106  229 1    
   213  107  108 2    
   214  107  109 am   BACKBONE|DICT|INTERRES
   215  109  110 1    
   216  109  230 1    
   217  110  111 1    
   218  110  112 1    
   219  110  231 1    
   220  111  232 1    
   221  111  233 1    
   222  111  234 1    
   223  112  113 2    
   224  112  114 am   BACKBONE|DICT|INTERRES
   225  114  115 1    
   226  114  235 1    
   227  115  116 1    
   228  115  117 1    
   229  115  236 1    
   230  116  237 1    
   231  116  238 1    
   232  116  239 1    
   233  117  118 2    
   234  117  119 am   BACKBONE|DICT|INTERRES
   235  119  120 1    
   236  119  240 1    
   237  120  121 1    
   238  120  124 1    
   239  120  241 1    
   240  121  122 am   BACKBONE|DICT|INTERRES
   241  121  123 2    
   242  122  242 1    
   243  122  243 1    
   244  124  125 1    
   245  124  244 1    
   246  124  245 1    
   247  125  126 1    
   248  126  246 1    
   249  126  247 1    
@<TRIPOS>SUBSTRUCTURE
     1 UNK         1 GROUP             0       ****    0 ROOT    
