@<TRIPOS>MOLECULE
3R540
247   249    1
SMALL
USER_CHARGES


@<TRIPOS>ATOM
      1 CA          3.6505  -16.6294  -46.3813 C.3       0 UNK        -0.1800 
      2 C           3.2135  -15.2370  -45.9502 C.2       0 UNK         0.5000 
      3 O           3.4813  -14.8286  -44.8214 O.2       0 UNK        -0.5000 
      4 N           2.5633  -14.4958  -46.8555 N.am      1 UNK        -0.5000 
      5 CA          1.9821  -13.1626  -46.6266 C.3       1 UNK         0.1400 
      6 C6          1.1588  -12.6737  -47.8444 C.3       23 UNK        -0.0398 
      7 S7         -0.1472  -13.8585  -48.3135 S.3       23 UNK        -0.2404 
      8 C8          0.5012  -14.5377  -49.8740 C.3       23 UNK        -0.0205 
      9 C9         -0.0708  -15.9189  -50.1593 C.ar      23 UNK        -0.0193 
     10 C10        -1.4407  -16.0807  -50.3885 C.ar      23 UNK        -0.1150 
     11 C11        -1.9750  -17.3454  -50.6494 C.ar      23 UNK        -0.0193 
     12 C12        -1.1263  -18.4547  -50.6760 C.ar      23 UNK        -0.1150 
     13 C13         0.2488  -18.3064  -50.4745 C.ar      23 UNK        -0.0193 
     14 C14         0.7704  -17.0351  -50.2139 C.ar      23 UNK        -0.1150 
     15 C15         1.1632  -19.5216  -50.5796 C.3       23 UNK        -0.0205 
     16 S16         2.2265  -19.7907  -49.1211 S.3       23 UNK        -0.2404 
     17 C17         1.0602  -19.7086  -47.7222 C.3       23 UNK        -0.0398 
     18 CA          0.4175  -21.0680  -47.3444 C.3       11 UNK         0.1400 
     19 N           0.1116  -21.1251  -45.9100 N.am      11 UNK        -0.5000 
     20 C          -0.3316  -22.1980  -45.2409 C.2       10 UNK         0.5000 
     21 O          -0.4982  -23.3034  -45.7513 O.2       10 UNK        -0.5000 
     22 CA         -0.7051  -21.9909  -43.7605 C.3       10 UNK         0.1400 
     23 CB          0.5399  -22.0302  -42.8623 C.3       10 UNK        -0.1800 
     24 N          -1.4434  -20.7465  -43.5380 N.am      10 UNK        -0.5000 
     25 C          -2.6597  -20.4950  -44.0438 C.2       9 UNK         0.5000 
     26 O          -3.3081  -21.3127  -44.6963 O.2       9 UNK        -0.5000 
     27 CA         -3.2247  -19.0782  -43.8353 C.3       9 UNK         0.1400 
     28 CB         -3.8567  -18.9352  -42.4431 C.3       9 UNK        -0.1800 
     29 N          -2.2177  -18.0349  -44.0307 N.am      9 UNK        -0.5000 
     30 C          -1.5785  -17.8028  -45.1866 C.2       8 UNK         0.5000 
     31 O          -1.7998  -18.4198  -46.2271 O.2       8 UNK        -0.5000 
     32 CA         -0.4702  -16.7366  -45.1605 C.3       8 UNK         0.1400 
     33 CB         -1.0936  -15.3347  -45.1859 C.3       8 UNK        -0.1800 
     34 N           0.4108  -16.8723  -43.9973 N.am      8 UNK        -0.5000 
     35 C           1.1392  -17.9620  -43.7117 C.2       7 UNK         0.5000 
     36 O           1.2023  -18.9475  -44.4427 O.2       7 UNK        -0.5000 
     37 CA          1.8666  -17.9929  -42.3571 C.3       7 UNK         0.1400 
     38 CB          3.2179  -17.2688  -42.4190 C.3       7 UNK        -0.1800 
     39 N           1.0460  -17.4247  -41.2908 N.am      7 UNK        -0.5000 
     40 C          -0.0590  -18.0045  -40.8017 C.2       6 UNK         0.5000 
     41 O          -0.4657  -19.1111  -41.1569 O.2       6 UNK        -0.5000 
     42 CA         -0.8649  -17.1831  -39.7786 C.3       6 UNK         0.1400 
     43 CB         -0.2858  -17.3562  -38.3667 C.3       6 UNK        -0.1800 
     44 N          -0.8977  -15.7589  -40.1193 N.am      6 UNK        -0.5000 
     45 C          -1.5344  -15.2544  -41.1862 C.2       5 UNK         0.5000 
     46 O          -2.2210  -15.9338  -41.9485 O.2       5 UNK        -0.5000 
     47 CA         -1.3304  -13.7531  -41.4740 C.3       5 UNK         0.1400 
     48 CB         -2.3874  -12.9149  -40.7404 C.3       5 UNK        -0.1800 
     49 N           0.0083  -13.2795  -41.1063 N.am      5 UNK        -0.5000 
     50 C           1.1398  -13.6726  -41.7061 C.2       4 UNK         0.5000 
     51 O           1.1675  -14.4368  -42.6712 O.2       4 UNK        -0.5000 
     52 CA          2.4496  -13.2016  -41.0620 C.3       4 UNK         0.1400 
     53 CB          2.7063  -14.0101  -39.7709 C.3       4 UNK        -0.1800 
     54 N           3.5698  -13.3668  -41.9902 N.am      4 UNK        -0.5000 
     55 C           4.7955  -12.8618  -41.7914 C.2       3 UNK         0.5000 
     56 O           5.0842  -12.1235  -40.8482 O.2       3 UNK        -0.5000 
     57 CA          5.8885  -13.2375  -42.8025 C.3       3 UNK         0.1400 
     58 CB          6.2053  -14.7420  -42.7581 C.3       3 UNK        -0.1800 
     59 N           5.5138  -12.8481  -44.1584 N.am      3 UNK        -0.5000 
     60 C           5.8466  -11.6811  -44.7293 C.2       2 UNK         0.5000 
     61 O           6.4985  -10.8053  -44.1586 O.2       2 UNK        -0.5000 
     62 CA          5.4056  -11.4459  -46.1889 C.3       2 UNK         0.1400 
     63 CB          6.5779  -11.6988  -47.1498 C.3       2 UNK        -0.1800 
     64 N           4.2790  -12.2846  -46.5937 N.am      2 UNK        -0.5000 
     65 C           3.0110  -12.0911  -46.2085 C.2       1 UNK         0.5000 
     66 O           2.6432  -11.1275  -45.5354 O.2       1 UNK        -0.5000 
     67 C          -0.8267  -21.3567  -48.2130 C.2       11 UNK         0.5000 
     68 O          -0.7392  -22.0977  -49.1927 O.2       11 UNK        -0.5000 
     69 N          -1.9729  -20.7794  -47.8268 N.am      12 UNK        -0.5000 
     70 CA         -3.2650  -21.0062  -48.4674 C.3       12 UNK         0.1400 
     71 CB         -4.2895  -19.9889  -47.9451 C.3       12 UNK        -0.1800 
     72 C          -3.7721  -22.4475  -48.2880 C.2       12 UNK         0.5000 
     73 O          -4.3500  -22.9985  -49.2222 O.2       12 UNK        -0.5000 
     74 N          -3.5403  -23.0332  -47.1062 N.am      13 UNK        -0.5000 
     75 CA         -3.9087  -24.4076  -46.7787 C.3       13 UNK         0.1400 
     76 CB         -3.8918  -24.5963  -45.2533 C.3       13 UNK        -0.1800 
     77 C          -3.0099  -25.4439  -47.4770 C.2       13 UNK         0.5000 
     78 O          -3.5219  -26.2975  -48.2017 O.2       13 UNK        -0.5000 
     79 N          -1.6949  -25.3588  -47.2492 N.am      14 UNK        -0.5000 
     80 CA         -0.6911  -26.3046  -47.7298 C.3       14 UNK         0.1400 
     81 CB          0.3327  -26.5390  -46.6043 C.3       14 UNK        -0.1800 
     82 C          -0.0077  -25.7389  -48.9927 C.2       14 UNK         0.5000 
     83 O           0.8419  -24.8601  -48.8536 O.2       14 UNK        -0.5000 
     84 N          -0.3188  -26.1894  -50.2164 N.am      15 UNK        -0.5000 
     85 CA         -1.3042  -27.1857  -50.6326 C.3       15 UNK         0.1400 
     86 CB         -0.5711  -28.3640  -51.2961 C.3       15 UNK        -0.1800 
     87 C          -2.2740  -26.4891  -51.5939 C.2       15 UNK         0.5000 
     88 O          -2.0128  -26.4181  -52.7968 O.2       15 UNK        -0.5000 
     89 N          -3.3416  -25.9183  -51.0205 N.am      16 UNK        -0.5000 
     90 CA         -4.4085  -25.1601  -51.6827 C.3       16 UNK         0.1400 
     91 CB         -5.2758  -26.0992  -52.5460 C.3       16 UNK        -0.1800 
     92 C          -3.8977  -23.9424  -52.4828 C.2       16 UNK         0.5000 
     93 O          -4.5150  -23.5740  -53.4834 O.2       16 UNK        -0.5000 
     94 N          -2.7546  -23.3636  -52.0814 N.am      17 UNK        -0.5000 
     95 CA         -2.0242  -22.2641  -52.7365 C.3       17 UNK         0.1400 
     96 CB         -2.8889  -20.9854  -52.7363 C.3       17 UNK        -0.1800 
     97 C          -1.5424  -22.5622  -54.1777 C.2       17 UNK         0.5000 
     98 O          -1.0021  -21.6636  -54.8234 O.2       17 UNK        -0.5000 
     99 N          -1.8075  -23.7789  -54.6807 N.am      18 UNK        -0.5000 
    100 CA        -1.8657  -24.1609  -56.0962 C.3       18 UNK         0.1400 
    101 CB        -0.4558  -24.1708  -56.7220 C.3       18 UNK        -0.1800 
    102 C         -2.8839  -23.3163  -56.9062 C.2       18 UNK         0.5000 
    103 O         -2.6972  -23.1262  -58.1097 O.2       18 UNK        -0.5000 
    104 N         -3.9308  -22.8058  -56.2371 N.am      19 UNK        -0.5000 
    105 CA        -4.8687  -21.8165  -56.7753 C.3       19 UNK         0.1400 
    106 CB        -4.2038  -20.4228  -56.7929 C.3       19 UNK        -0.1800 
    107 C         -6.2059  -21.8125  -56.0083 C.2       19 UNK         0.5000 
    108 O         -6.8155  -20.7527  -55.8509 O.2       19 UNK        -0.5000 
    109 N         -6.6338  -22.9859  -55.5180 N.am      20 UNK        -0.5000 
    110 CA        -7.8687  -23.2232  -54.7533 C.3       20 UNK         0.1400 
    111 CB        -9.1024  -23.0724  -55.6678 C.3       20 UNK        -0.1800 
    112 C         -7.9678  -22.3726  -53.4648 C.2       20 UNK         0.5000 
    113 O         -9.0307  -21.8329  -53.1544 O.2       20 UNK        -0.5000 
    114 N         -6.8351  -22.2635  -52.7566 N.am      21 UNK        -0.5000 
    115 CA        -6.5912  -21.4549  -51.5566 C.3       21 UNK         0.1400 
    116 CB        -7.4511  -21.9380  -50.3705 C.3       21 UNK        -0.1800 
    117 C         -6.7083  -19.9416  -51.8328 C.2       21 UNK         0.5000 
    118 O         -7.2287  -19.1983  -50.9997 O.2       21 UNK        -0.5000 
    119 N         -6.2133  -19.5268  -53.0075 N.am      22 UNK        -0.5000 
    120 CA        -6.3203  -18.1747  -53.5783 C.3       22 UNK         0.1400 
    121 C         -7.7882  -17.8160  -53.9480 C.2       22 UNK         0.5000 
    122 N         -8.4471  -18.6486  -54.7432 N.am      22 UNK        -0.7600 
    123 O         -8.3326  -16.7966  -53.5307 O.2       22 UNK        -0.5000 
    124 C124       -5.5976  -17.0773  -52.7474 C.3       23 UNK        -0.0398 
    125 S125       -3.7885  -17.3110  -52.7119 S.3       23 UNK        -0.2404 
    126 C126       -3.4611  -17.5012  -50.9331 C.3       23 UNK        -0.0205 
    127 H127        4.7374  -16.7043  -46.3570 H         1 UNK         0.0600 
    128 H128        3.2431  -17.3791  -45.7051 H         1 UNK         0.0600 
    129 H129        3.3129  -16.8674  -47.3905 H         1 UNK         0.0600 
    130 H130        2.3706  -14.8943  -47.7619 H         1 UNK         0.3000 
    131 H131        1.3040  -13.2571  -45.7785 H         1 UNK         0.0600 
    132 H132        0.6703  -11.7252  -47.6135 H         1 UNK         0.0800 
    133 H133        1.8071  -12.4781  -48.7003 H         1 UNK         0.0800 
    134 H134        1.5903  -14.5827  -49.8352 H         1 UNK         0.0800 
    135 H135        0.2489  -13.8626  -50.6928 H         1 UNK         0.0800 
    136 H136       -2.0911  -15.2174  -50.3671 H         1 UNK         0.1150 
    137 H137       -1.5332  -19.4338  -50.8755 H         1 UNK         0.1150 
    138 H138        1.8338  -16.9194  -50.0581 H         1 UNK         0.1150 
    139 H139        0.5844  -20.4271  -50.7630 H         1 UNK         0.0800 
    140 H140        1.8031  -19.3966  -51.4538 H         1 UNK         0.0800 
    141 H141        0.3120  -18.9301  -47.8767 H         1 UNK         0.0800 
    142 H142        1.6670  -19.3501  -46.8920 H         1 UNK         0.0800 
    143 H143        1.1412  -21.8634  -47.5354 H         1 UNK         0.0600 
    144 H144        0.2718  -20.2689  -45.3850 H         1 UNK         0.3000 
    145 H145       -1.3553  -22.8171  -43.4653 H         1 UNK         0.0600 
    146 H146        0.2707  -21.9283  -41.8108 H         1 UNK         0.0600 
    147 H147        1.0688  -22.9775  -42.9734 H         1 UNK         0.0600 
    148 H148        1.2424  -21.2337  -43.1054 H         1 UNK         0.0600 
    149 H149       -0.9894  -20.0360  -42.9749 H         1 UNK         0.3000 
    150 H150       -4.0084  -18.9229  -44.5796 H         1 UNK         0.0600 
    151 H151       -4.6344  -19.6843  -42.2893 H         1 UNK         0.0600 
    152 H152       -4.3187  -17.9556  -42.3193 H         1 UNK         0.0600 
    153 H153       -3.1201  -19.0590  -41.6494 H         1 UNK         0.0600 
    154 H154       -2.0138  -17.4407  -43.2330 H         1 UNK         0.3000 
    155 H155        0.1432  -16.8570  -46.0560 H         1 UNK         0.0600 
    156 H156       -1.8004  -15.1846  -44.3723 H         1 UNK         0.0600 
    157 H157       -1.6403  -15.1741  -46.1152 H         1 UNK         0.0600 
    158 H158       -0.3349  -14.5602  -45.1092 H         1 UNK         0.0600 
    159 H159        0.4882  -16.0640  -43.3865 H         1 UNK         0.3000 
    160 H160        2.0626  -19.0392  -42.1134 H         1 UNK         0.0600 
    161 H161        3.7711  -17.3853  -41.4872 H         1 UNK         0.0600 
    162 H162        3.0949  -16.2033  -42.6009 H         1 UNK         0.0600 
    163 H163        3.8409  -17.6684  -43.2200 H         1 UNK         0.0600 
    164 H164        1.2849  -16.4965  -40.9796 H         1 UNK         0.3000 
    165 H165       -1.8896  -17.5609  -39.7784 H         1 UNK         0.0600 
    166 H166       -0.8912  -16.8336  -37.6259 H         1 UNK         0.0600 
    167 H167       -0.2625  -18.4089  -38.0818 H         1 UNK         0.0600 
    168 H168        0.7337  -16.9745  -38.2975 H         1 UNK         0.0600 
    169 H169       -0.3702  -15.1332  -39.5294 H         1 UNK         0.3000 
    170 H170       -1.4595  -13.5996  -42.5471 H         1 UNK         0.0600 
    171 H171       -3.3948  -13.2323  -41.0135 H         1 UNK         0.0600 
    172 H172       -2.2963  -13.0072  -39.6574 H         1 UNK         0.0600 
    173 H173       -2.3006  -11.8588  -40.9966 H         1 UNK         0.0600 
    174 H174        0.0621  -12.6516  -40.3170 H         1 UNK         0.3000 
    175 H175        2.3460  -12.1420  -40.8201 H         1 UNK         0.0600 
    176 H176        2.8752  -15.0657  -39.9868 H         1 UNK         0.0600 
    177 H177        3.5771  -13.6406  -39.2302 H         1 UNK         0.0600 
    178 H178        1.8625  -13.9455  -39.0831 H         1 UNK         0.0600 
    179 H179        3.3705  -13.9258  -42.8157 H         1 UNK         0.3000 
    180 H180        6.8011  -12.7133  -42.5102 H         1 UNK         0.0600 
    181 H181        5.3583  -15.3513  -43.0694 H         1 UNK         0.0600 
    182 H182        6.4779  -15.0531  -41.7490 H         1 UNK         0.0600 
    183 H183        7.0442  -14.9840  -43.4105 H         1 UNK         0.0600 
    184 H184        4.9069  -13.4927  -44.6548 H         1 UNK         0.3000 
    185 H185        5.1109  -10.3982  -46.2797 H         1 UNK         0.0600 
    186 H186        7.4313  -11.0667  -46.9005 H         1 UNK         0.0600 
    187 H187        6.9148  -12.7355  -47.1097 H         1 UNK         0.0600 
    188 H188        6.2997  -11.4747  -48.1798 H         1 UNK         0.0600 
    189 H189        4.4944  -13.1059  -47.1398 H         1 UNK         0.3000 
    190 H190       -1.9534  -20.1145  -47.0574 H         1 UNK         0.3000 
    191 H191       -3.1360  -20.8332  -49.5348 H         1 UNK         0.0600 
    192 H192       -4.4790  -20.1187  -46.8795 H         1 UNK         0.0600 
    193 H193       -5.2424  -20.0927  -48.4651 H         1 UNK         0.0600 
    194 H194       -3.9440  -18.9664  -48.0993 H         1 UNK         0.0600 
    195 H195       -3.1099  -22.4867  -46.3679 H         1 UNK         0.3000 
    196 H196       -4.9324  -24.5752  -47.1205 H         1 UNK         0.0600 
    197 H197       -4.1661  -25.6164  -44.9821 H         1 UNK         0.0600 
    198 H198       -4.6035  -23.9280  -44.7681 H         1 UNK         0.0600 
    199 H199       -2.9076  -24.3961  -44.8294 H         1 UNK         0.0600 
    200 H200       -1.3334  -24.5792  -46.7002 H         1 UNK         0.3000 
    201 H201       -1.1404  -27.2774  -47.9166 H         1 UNK         0.0600 
    202 H202       -0.1461  -26.9594  -45.7198 H         1 UNK         0.0600 
    203 H203        0.8313  -25.6169  -46.3032 H         1 UNK         0.0600 
    204 H204        1.1049  -27.2410  -46.9211 H         1 UNK         0.0600 
    205 H205        0.1553  -25.7498  -50.9919 H         1 UNK         0.3000 
    206 H206       -1.8948  -27.5864  -49.8127 H         1 UNK         0.0600 
    207 H207        0.0766  -28.8736  -50.5826 H         1 UNK         0.0600 
    208 H208       -1.2805  -29.1004  -51.6758 H         1 UNK         0.0600 
    209 H209        0.0475  -28.0403  -52.1343 H         1 UNK         0.0600 
    210 H210       -3.4489  -26.0180  -50.0123 H         1 UNK         0.3000 
    211 H211       -5.0501  -24.7680  -50.8945 H         1 UNK         0.0600 
    212 H212       -4.7261  -26.4807  -53.4072 H         1 UNK         0.0600 
    213 H213       -6.1586  -25.5822  -52.9234 H         1 UNK         0.0600 
    214 H214       -5.6273  -26.9533  -51.9673 H         1 UNK         0.0600 
    215 H215       -2.3205  -23.7310  -51.2460 H         1 UNK         0.3000 
    216 H216       -1.1345  -22.0786  -52.1331 H         1 UNK         0.0600 
    217 H217       -3.7241  -21.0604  -53.4319 H         1 UNK         0.0600 
    218 H218       -2.3031  -20.1168  -53.0387 H         1 UNK         0.0600 
    219 H219       -3.2994  -20.7740  -51.7524 H         1 UNK         0.0600 
    220 H220       -2.2008  -24.4600  -54.0429 H         1 UNK         0.3000 
    221 H221       -2.2419  -25.1846  -56.1155 H         1 UNK         0.0600 
    222 H222       -0.0435  -23.1655  -56.8110 H         1 UNK         0.0600 
    223 H223        0.2355  -24.7659  -56.1253 H         1 UNK         0.0600 
    224 H224       -0.4752  -24.6046  -57.7224 H         1 UNK         0.0600 
    225 H225       -4.0401  -23.0335  -55.2516 H         1 UNK         0.3000 
    226 H226       -5.1153  -22.0921  -57.8024 H         1 UNK         0.0600 
    227 H227       -3.2904  -20.4230  -57.3874 H         1 UNK         0.0600 
    228 H228       -4.8651  -19.6726  -57.2282 H         1 UNK         0.0600 
    229 H229       -3.9448  -20.0915  -55.7867 H         1 UNK         0.0600 
    230 H230       -6.0501  -23.7974  -55.6646 H         1 UNK         0.3000 
    231 H231       -7.8301  -24.2626  -54.4246 H         1 UNK         0.0600 
    232 H232       -9.0169  -23.7039  -56.5519 H         1 UNK         0.0600 
    233 H233       -9.2351  -22.0431  -56.0025 H         1 UNK         0.0600 
    234 H234      -10.0143  -23.3672  -55.1472 H         1 UNK         0.0600 
    235 H235       -6.0170  -22.7480  -53.1229 H         1 UNK         0.3000 
    236 H236       -5.5496  -21.6254  -51.2846 H         1 UNK         0.0600 
    237 H237       -7.1644  -21.4300  -49.4494 H         1 UNK         0.0600 
    238 H238       -8.5124  -21.7482  -50.5314 H         1 UNK         0.0600 
    239 H239       -7.3201  -23.0068  -50.2013 H         1 UNK         0.0600 
    240 H240       -5.8715  -20.2296  -53.6450 H         1 UNK         0.3000 
    241 H241       -5.8053  -18.2224  -54.5390 H         1 UNK         0.0600 
    242 H242       -7.9824  -19.4732  -55.1173 H         1 UNK         0.3800 
    243 H243       -9.4010  -18.4500  -54.9979 H         1 UNK         0.3800 
    244 H244       -5.7738  -16.0952  -53.1889 H         1 UNK         0.0800 
    245 H245       -5.9984  -17.0225  -51.7352 H         1 UNK         0.0800 
    246 H246       -4.0229  -16.7547  -50.3695 H         1 UNK         0.0800 
    247 H247       -3.8175  -18.4771  -50.6016 H         1 UNK         0.0800 
@<TRIPOS>BOND
     1    1    2 1    
     2    1  127 1    
     3    1  128 1    
     4    1  129 1    
     5    2    3 2    
     6    2    4 am   BACKBONE|DICT|INTERRES
     7    4    5 1    
     8    4  130 1    
     9    5    6 1    
    10    5   65 1    
    11    5  131 1    
    12    6    7 1    
    13    6  132 1    
    14    6  133 1    
    15    7    8 1    
    16    8    9 1    
    17    8  134 1    
    18    8  135 1    
    19    9   10 ar   
    20    9   14 ar   
    21   10   11 ar   
    22   10  136 1    
    23   11   12 ar   
    24   11  126 1    
    25   12   13 ar   
    26   12  137 1    
    27   13   14 ar   
    28   13   15 1    
    29   14  138 1    
    30   15   16 1    
    31   15  139 1    
    32   15  140 1    
    33   16   17 1    
    34   17   18 1    
    35   17  141 1    
    36   17  142 1    
    37   18   19 1    
    38   18   67 1    
    39   18  143 1    
    40   19   20 am   BACKBONE|DICT|INTERRES
    41   19  144 1    
    42   20   21 2    
    43   20   22 1    
    44   22   23 1    
    45   22   24 1    
    46   22  145 1    
    47   23  146 1    
    48   23  147 1    
    49   23  148 1    
    50   24   25 am   BACKBONE|DICT|INTERRES
    51   24  149 1    
    52   25   26 2    
    53   25   27 1    
    54   27   28 1    
    55   27   29 1    
    56   27  150 1    
    57   28  151 1    
    58   28  152 1    
    59   28  153 1    
    60   29   30 am   BACKBONE|DICT|INTERRES
    61   29  154 1    
    62   30   31 2    
    63   30   32 1    
    64   32   33 1    
    65   32   34 1    
    66   32  155 1    
    67   33  156 1    
    68   33  157 1    
    69   33  158 1    
    70   34   35 am   BACKBONE|DICT|INTERRES
    71   34  159 1    
    72   35   36 2    
    73   35   37 1    
    74   37   38 1    
    75   37   39 1    
    76   37  160 1    
    77   38  161 1    
    78   38  162 1    
    79   38  163 1    
    80   39   40 am   BACKBONE|DICT|INTERRES
    81   39  164 1    
    82   40   41 2    
    83   40   42 1    
    84   42   43 1    
    85   42   44 1    
    86   42  165 1    
    87   43  166 1    
    88   43  167 1    
    89   43  168 1    
    90   44   45 am   BACKBONE|DICT|INTERRES
    91   44  169 1    
    92   45   46 2    
    93   45   47 1    
    94   47   48 1    
    95   47   49 1    
    96   47  170 1    
    97   48  171 1    
    98   48  172 1    
    99   48  173 1    
   100   49   50 am   BACKBONE|DICT|INTERRES
   101   49  174 1    
   102   50   51 2    
   103   50   52 1    
   104   52   53 1    
   105   52   54 1    
   106   52  175 1    
   107   53  176 1    
   108   53  177 1    
   109   53  178 1    
   110   54   55 am   BACKBONE|DICT|INTERRES
   111   54  179 1    
   112   55   56 2    
   113   55   57 1    
   114   57   58 1    
   115   57   59 1    
   116   57  180 1    
   117   58  181 1    
   118   58  182 1    
   119   58  183 1    
   120   59   60 am   BACKBONE|DICT|INTERRES
   121   59  184 1    
   122   60   61 2    
   123   60   62 1    
   124   62   63 1    
   125   62   64 1    
   126   62  185 1    
   127   63  186 1    
   128   63  187 1    
   129   63  188 1    
   130   64   65 am   BACKBONE|DICT|INTERRES
   131   64  189 1    
   132   65   66 2    
   133   67   68 2    
   134   67   69 am   BACKBONE|DICT|INTERRES
   135   69   70 1    
   136   69  190 1    
   137   70   71 1    
   138   70   72 1    
   139   70  191 1    
   140   71  192 1    
   141   71  193 1    
   142   71  194 1    
   143   72   73 2    
   144   72   74 am   BACKBONE|DICT|INTERRES
   145   74   75 1    
   146   74  195 1    
   147   75   76 1    
   148   75   77 1    
   149   75  196 1    
   150   76  197 1    
   151   76  198 1    
   152   76  199 1    
   153   77   78 2    
   154   77   79 am   BACKBONE|DICT|INTERRES
   155   79   80 1    
   156   79  200 1    
   157   80   81 1    
   158   80   82 1    
   159   80  201 1    
   160   81  202 1    
   161   81  203 1    
   162   81  204 1    
   163   82   83 2    
   164   82   84 am   BACKBONE|DICT|INTERRES
   165   84   85 1    
   166   84  205 1    
   167   85   86 1    
   168   85   87 1    
   169   85  206 1    
   170   86  207 1    
   171   86  208 1    
   172   86  209 1    
   173   87   88 2    
   174   87   89 am   BACKBONE|DICT|INTERRES
   175   89   90 1    
   176   89  210 1    
   177   90   91 1    
   178   90   92 1    
   179   90  211 1    
   180   91  212 1    
   181   91  213 1    
   182   91  214 1    
   183   92   93 2    
   184   92   94 am   BACKBONE|DICT|INTERRES
   185   94   95 1    
   186   94  215 1    
   187   95   96 1    
   188   95   97 1    
   189   95  216 1    
   190   96  217 1    
   191   96  218 1    
   192   96  219 1    
   193   97   98 2    
   194   97   99 am   BACKBONE|DICT|INTERRES
   195   99  100 1    
   196   99  220 1    
   197  100  101 1    
   198  100  102 1    
   199  100  221 1    
   200  101  222 1    
   201  101  223 1    
   202  101  224 1    
   203  102  103 2    
   204  102  104 am   BACKBONE|DICT|INTERRES
   205  104  105 1    
   206  104  225 1    
   207  105  106 1    
   208  105  107 1    
   209  105  226 1    
   210  106  227 1    
   211  106  228 1    
   212  106  229 1    
   213  107  108 2    
   214  107  109 am   BACKBONE|DICT|INTERRES
   215  109  110 1    
   216  109  230 1    
   217  110  111 1    
   218  110  112 1    
   219  110  231 1    
   220  111  232 1    
   221  111  233 1    
   222  111  234 1    
   223  112  113 2    
   224  112  114 am   BACKBONE|DICT|INTERRES
   225  114  115 1    
   226  114  235 1    
   227  115  116 1    
   228  115  117 1    
   229  115  236 1    
   230  116  237 1    
   231  116  238 1    
   232  116  239 1    
   233  117  118 2    
   234  117  119 am   BACKBONE|DICT|INTERRES
   235  119  120 1    
   236  119  240 1    
   237  120  121 1    
   238  120  124 1    
   239  120  241 1    
   240  121  122 am   BACKBONE|DICT|INTERRES
   241  121  123 2    
   242  122  242 1    
   243  122  243 1    
   244  124  125 1    
   245  124  244 1    
   246  124  245 1    
   247  125  126 1    
   248  126  246 1    
   249  126  247 1    
@<TRIPOS>SUBSTRUCTURE
     1 UNK         1 GROUP             0       ****    0 ROOT    
