@<TRIPOS>MOLECULE
3R540
247   249    1
SMALL
USER_CHARGES


@<TRIPOS>ATOM
      1 CA         -4.0199  -12.3482  -48.8195 C.3       0 UNK        -0.1800 
      2 C          -2.6592  -12.4890  -49.4872 C.2       0 UNK         0.5000 
      3 O          -2.5776  -12.9358  -50.6312 O.2       0 UNK        -0.5000 
      4 N          -1.5955  -12.1076  -48.7765 N.am      1 UNK        -0.5000 
      5 CA         -0.2046  -12.1408  -49.2233 C.3       1 UNK         0.1400 
      6 C6          0.3592  -13.5795  -49.3942 C.3       23 UNK        -0.0398 
      7 S7          0.2855  -14.6133  -47.8865 S.3       23 UNK        -0.2404 
      8 C8         -0.9662  -15.8545  -48.3390 C.3       23 UNK        -0.0205 
      9 C9         -0.4603  -16.8146  -49.4049 C.ar      23 UNK        -0.0193 
     10 C10        -0.9041  -16.6978  -50.7256 C.ar      23 UNK        -0.1150 
     11 C11        -0.4433  -17.5783  -51.7083 C.ar      23 UNK        -0.0193 
     12 C12         0.4684  -18.5783  -51.3625 C.ar      23 UNK        -0.1150 
     13 C13         0.9188  -18.7063  -50.0463 C.ar      23 UNK        -0.0193 
     14 C14         0.4483  -17.8237  -49.0694 C.ar      23 UNK        -0.1150 
     15 C15         1.9284  -19.7880  -49.6961 C.3       23 UNK        -0.0205 
     16 S16         1.1199  -21.3861  -49.3769 S.3       23 UNK        -0.2404 
     17 C17         0.5291  -21.1443  -47.6711 C.3       23 UNK        -0.0398 
     18 CA          0.2047  -22.4875  -46.9723 C.3       11 UNK         0.1400 
     19 N           0.4382  -22.4261  -45.5267 N.am      11 UNK        -0.5000 
     20 C           0.4243  -23.4850  -44.7052 C.2       10 UNK         0.5000 
     21 O           0.2555  -24.6418  -45.0869 O.2       10 UNK        -0.5000 
     22 CA          0.5657  -23.2026  -43.1988 C.3       10 UNK         0.1400 
     23 CB          2.0384  -23.0088  -42.8094 C.3       10 UNK        -0.1800 
     24 N          -0.2228  -22.0454  -42.7733 N.am      10 UNK        -0.5000 
     25 C          -1.5611  -21.9872  -42.8327 C.2       9 UNK         0.5000 
     26 O          -2.2674  -22.9302  -43.1890 O.2       9 UNK        -0.5000 
     27 CA         -2.2211  -20.6417  -42.4817 C.3       9 UNK         0.1400 
     28 CB         -2.3655  -20.4878  -40.9607 C.3       9 UNK        -0.1800 
     29 N          -1.5012  -19.4915  -43.0318 N.am      9 UNK        -0.5000 
     30 C          -1.3289  -19.2552  -44.3410 C.2       8 UNK         0.5000 
     31 O          -1.7880  -19.9696  -45.2310 O.2       8 UNK        -0.5000 
     32 CA         -0.4420  -18.0561  -44.7220 C.3       8 UNK         0.1400 
     33 CB         -1.2044  -16.7318  -44.5703 C.3       8 UNK        -0.1800 
     34 N           0.7913  -18.0070  -43.9380 N.am      8 UNK        -0.5000 
     35 C           1.7345  -18.9590  -43.9395 C.2       7 UNK         0.5000 
     36 O           1.6982  -19.9564  -44.6587 O.2       7 UNK        -0.5000 
     37 CA          2.8783  -18.8003  -42.9244 C.3       7 UNK         0.1400 
     38 CB          3.9567  -17.8390  -43.4456 C.3       7 UNK        -0.1800 
     39 N           2.3895  -18.3395  -41.6250 N.am      7 UNK        -0.5000 
     40 C           1.6553  -19.0845  -40.7868 C.2       6 UNK         0.5000 
     41 O           1.3436  -20.2543  -41.0076 O.2       6 UNK        -0.5000 
     42 CA          1.1565  -18.3943  -39.5039 C.3       6 UNK         0.1400 
     43 CB          2.2410  -18.4232  -38.4167 C.3       6 UNK        -0.1800 
     44 N           0.7383  -17.0108  -39.7352 N.am      6 UNK        -0.5000 
     45 C          -0.3287  -16.6562  -40.4651 C.2       5 UNK         0.5000 
     46 O          -1.0958  -17.4623  -40.9894 O.2       5 UNK        -0.5000 
     47 CA         -0.5444  -15.1473  -40.6902 C.3       5 UNK         0.1400 
     48 CB         -1.3451  -14.5377  -39.5301 C.3       5 UNK        -0.1800 
     49 N           0.7020  -14.3951  -40.8710 N.am      5 UNK        -0.5000 
     50 C           1.5951  -14.6251  -41.8425 C.2       4 UNK         0.5000 
     51 O           1.4854  -15.5363  -42.6657 O.2       4 UNK        -0.5000 
     52 CA          2.8463  -13.7264  -41.8525 C.3       4 UNK         0.1400 
     53 CB          3.8769  -14.2491  -40.8388 C.3       4 UNK        -0.1800 
     54 N           3.4803  -13.6677  -43.1708 N.am      4 UNK        -0.5000 
     55 C           2.9265  -13.1321  -44.2658 C.2       3 UNK         0.5000 
     56 O           1.8356  -12.5553  -44.2696 O.2       3 UNK        -0.5000 
     57 CA          3.7340  -13.2942  -45.5699 C.3       3 UNK         0.1400 
     58 CB          3.6557  -14.7427  -46.0816 C.3       3 UNK        -0.1800 
     59 N           3.2724  -12.3955  -46.6280 N.am      3 UNK        -0.5000 
     60 C           3.4700  -11.0698  -46.6500 C.2       2 UNK         0.5000 
     61 O           4.1205  -10.4667  -45.7946 O.2       2 UNK        -0.5000 
     62 CA          2.8706  -10.2787  -47.8328 C.3       2 UNK         0.1400 
     63 CB          3.9859   -9.7833  -48.7679 C.3       2 UNK        -0.1800 
     64 N           1.9036  -11.0437  -48.6261 N.am      2 UNK        -0.5000 
     65 C           0.6360  -11.2773  -48.2625 C.2       1 UNK         0.5000 
     66 O           0.1315  -10.8401  -47.2237 O.2       1 UNK        -0.5000 
     67 C          -1.2206  -22.9805  -47.3030 C.2       11 UNK         0.5000 
     68 O          -1.3806  -23.8580  -48.1526 O.2       11 UNK        -0.5000 
     69 N          -2.2205  -22.4557  -46.5784 N.am      12 UNK        -0.5000 
     70 CA         -3.6237  -22.8594  -46.6700 C.3       12 UNK         0.1400 
     71 CB         -4.4903  -21.9382  -45.7991 C.3       12 UNK        -0.1800 
     72 C          -3.8556  -24.3358  -46.3034 C.2       12 UNK         0.5000 
     73 O          -4.6508  -25.0033  -46.9640 O.2       12 UNK        -0.5000 
     74 N          -3.1459  -24.8220  -45.2767 N.am      13 UNK        -0.5000 
     75 CA         -3.1514  -26.2235  -44.8612 C.3       13 UNK         0.1400 
     76 CB         -2.5135  -26.3462  -43.4689 C.3       13 UNK        -0.1800 
     77 C          -2.4423  -27.1439  -45.8730 C.2       13 UNK         0.5000 
     78 O          -2.9261  -28.2479  -46.1266 O.2       13 UNK        -0.5000 
     79 N          -1.3131  -26.6801  -46.4268 N.am      14 UNK        -0.5000 
     80 CA         -0.5011  -27.4097  -47.4007 C.3       14 UNK         0.1400 
     81 CB          0.8637  -26.7205  -47.5541 C.3       14 UNK        -0.1800 
     82 C          -1.1841  -27.5649  -48.7711 C.2       14 UNK         0.5000 
     83 O          -1.1138  -28.6463  -49.3576 O.2       14 UNK        -0.5000 
     84 N          -1.8252  -26.4957  -49.2572 N.am      15 UNK        -0.5000 
     85 CA         -2.5103  -26.4621  -50.5448 C.3       15 UNK         0.1400 
     86 CB         -1.5099  -26.1316  -51.6717 C.3       15 UNK        -0.1800 
     87 C          -3.6858  -25.4796  -50.4805 C.2       15 UNK         0.5000 
     88 O          -4.8289  -25.9082  -50.3194 O.2       15 UNK        -0.5000 
     89 N          -3.3836  -24.1856  -50.6115 N.am      16 UNK        -0.5000 
     90 CA         -4.3174  -23.0677  -50.5900 C.3       16 UNK         0.1400 
     91 CB         -5.1429  -23.0252  -51.8880 C.3       16 UNK        -0.1800 
     92 C          -3.5022  -21.7786  -50.4241 C.2       16 UNK         0.5000 
     93 O          -2.3119  -21.7658  -50.7463 O.2       16 UNK        -0.5000 
     94 N          -4.1598  -20.7234  -49.9374 N.am      17 UNK        -0.5000 
     95 CA         -3.5924  -19.3900  -49.7853 C.3       17 UNK         0.1400 
     96 CB         -3.2964  -19.1221  -48.3019 C.3       17 UNK        -0.1800 
     97 C          -4.6078  -18.3815  -50.3335 C.2       17 UNK         0.5000 
     98 O          -5.7899  -18.4645  -49.9929 O.2       17 UNK        -0.5000 
     99 N          -4.1208  -17.4624  -51.1753 N.am      18 UNK        -0.5000 
    100 CA        -4.8441  -16.3784  -51.8512 C.3       18 UNK         0.1400 
    101 CB        -5.3596  -15.3561  -50.8188 C.3       18 UNK        -0.1800 
    102 C         -5.9513  -16.8478  -52.8242 C.2       18 UNK         0.5000 
    103 O         -6.8273  -16.0543  -53.1729 O.2       18 UNK        -0.5000 
    104 N         -5.8945  -18.1114  -53.2618 N.am      19 UNK        -0.5000 
    105 CA        -6.8682  -18.7684  -54.1289 C.3       19 UNK         0.1400 
    106 CB        -8.1747  -19.0285  -53.3502 C.3       19 UNK        -0.1800 
    107 C         -6.2766  -20.0906  -54.6407 C.2       19 UNK         0.5000 
    108 O         -5.2318  -20.5222  -54.1455 O.2       19 UNK        -0.5000 
    109 N         -6.9772  -20.7129  -55.6009 N.am      20 UNK        -0.5000 
    110 CA        -6.7489  -22.0474  -56.1696 C.3       20 UNK         0.1400 
    111 CB        -7.2006  -23.1329  -55.1699 C.3       20 UNK        -0.1800 
    112 C         -5.3104  -22.2503  -56.6848 C.2       20 UNK         0.5000 
    113 O         -5.0066  -21.8314  -57.8031 O.2       20 UNK        -0.5000 
    114 N         -4.4474  -22.8503  -55.8517 N.am      21 UNK        -0.5000 
    115 CA        -3.0207  -23.0835  -56.0977 C.3       21 UNK         0.1400 
    116 CB        -2.4235  -23.8257  -54.8912 C.3       21 UNK        -0.1800 
    117 C         -2.2134  -21.8022  -56.3935 C.2       21 UNK         0.5000 
    118 O         -1.1892  -21.8786  -57.0735 O.2       21 UNK        -0.5000 
    119 N         -2.7013  -20.6533  -55.9091 N.am      22 UNK        -0.5000 
    120 CA        -2.1803  -19.3156  -56.2301 C.3       22 UNK         0.1400 
    121 C         -2.4757  -18.8378  -57.6842 C.2       22 UNK         0.5000 
    122 N         -3.3365  -19.4960  -58.4528 N.am      22 UNK        -0.7600 
    123 O         -1.9046  -17.8454  -58.1279 O.2       22 UNK        -0.5000 
    124 C124       -2.6614  -18.2557  -55.2091 C.3       23 UNK        -0.0398 
    125 S125       -2.2149  -18.6849  -53.4950 S.3       23 UNK        -0.2404 
    126 C126       -0.9251  -17.4555  -53.1436 C.3       23 UNK        -0.0205 
    127 H127       -4.7522  -11.9634  -49.5294 H         1 UNK         0.0600 
    128 H128       -3.9810  -11.6651  -47.9706 H         1 UNK         0.0600 
    129 H129       -4.3655  -13.3174  -48.4612 H         1 UNK         0.0600 
    130 H130       -1.7018  -11.7209  -47.8460 H         1 UNK         0.3000 
    131 H131       -0.1653  -11.6430  -50.1945 H         1 UNK         0.0600 
    132 H132       -0.1751  -14.0755  -50.2027 H         1 UNK         0.0800 
    133 H133        1.3965  -13.5500  -49.7298 H         1 UNK         0.0800 
    134 H134       -1.8781  -15.3528  -48.6661 H         1 UNK         0.0800 
    135 H135       -1.2343  -16.4213  -47.4482 H         1 UNK         0.0800 
    136 H136       -1.6032  -15.9154  -50.9879 H         1 UNK         0.1150 
    137 H137        0.8235  -19.2633  -52.1198 H         1 UNK         0.1150 
    138 H138        0.7974  -17.9131  -48.0505 H         1 UNK         0.1150 
    139 H139        2.6272  -19.9116  -50.5247 H         1 UNK         0.0800 
    140 H140        2.5318  -19.4907  -48.8371 H         1 UNK         0.0800 
    141 H141       -0.3207  -20.4603  -47.6655 H         1 UNK         0.0800 
    142 H142        1.3260  -20.6326  -47.1320 H         1 UNK         0.0800 
    143 H143        0.8989  -23.2420  -47.3487 H         1 UNK         0.0600 
    144 H144        0.6321  -21.5090  -45.1347 H         1 UNK         0.3000 
    145 H145        0.1888  -24.0760  -42.6625 H         1 UNK         0.0600 
    146 H146        2.1471  -22.8805  -41.7324 H         1 UNK         0.0600 
    147 H147        2.6342  -23.8765  -43.0954 H         1 UNK         0.0600 
    148 H148        2.4751  -22.1368  -43.2955 H         1 UNK         0.0600 
    149 H149        0.2913  -21.2485  -42.4121 H         1 UNK         0.3000 
    150 H150       -3.2223  -20.6422  -42.9169 H         1 UNK         0.0600 
    151 H151       -2.9085  -21.3311  -40.5320 H         1 UNK         0.0600 
    152 H152       -2.9184  -19.5831  -40.7075 H         1 UNK         0.0600 
    153 H153       -1.3949  -20.4359  -40.4669 H         1 UNK         0.0600 
    154 H154       -1.1316  -18.8257  -42.3589 H         1 UNK         0.3000 
    155 H155       -0.1640  -18.1702  -45.7714 H         1 UNK         0.0600 
    156 H156       -1.4874  -16.5454  -43.5349 H         1 UNK         0.0600 
    157 H157       -2.1198  -16.7375  -45.1630 H         1 UNK         0.0600 
    158 H158       -0.6000  -15.8890  -44.9075 H         1 UNK         0.0600 
    159 H159        0.9315  -17.1868  -43.3526 H         1 UNK         0.3000 
    160 H160        3.3397  -19.7805  -42.7875 H         1 UNK         0.0600 
    161 H161        4.8020  -17.7862  -42.7595 H         1 UNK         0.0600 
    162 H162        3.5694  -16.8296  -43.5768 H         1 UNK         0.0600 
    163 H163        4.3408  -18.1708  -44.4111 H         1 UNK         0.0600 
    164 H164        2.5419  -17.3672  -41.4029 H         1 UNK         0.3000 
    165 H165        0.2928  -18.9543  -39.1390 H         1 UNK         0.0600 
    166 H166        1.8709  -18.0066  -37.4798 H         1 UNK         0.0600 
    167 H167        2.5607  -19.4460  -38.2125 H         1 UNK         0.0600 
    168 H168        3.1245  -17.8555  -38.7114 H         1 UNK         0.0600 
    169 H169        1.3158  -16.2837  -39.3400 H         1 UNK         0.3000 
    170 H170       -1.1312  -15.0337  -41.6038 H         1 UNK         0.0600 
    171 H171       -2.2878  -15.0675  -39.3858 H         1 UNK         0.0600 
    172 H172       -0.7942  -14.5859  -38.5900 H         1 UNK         0.0600 
    173 H173       -1.5883  -13.4929  -39.7244 H         1 UNK         0.0600 
    174 H174        0.8679  -13.6398  -40.2216 H         1 UNK         0.3000 
    175 H175        2.5502  -12.7140  -41.5703 H         1 UNK         0.0600 
    176 H176        4.2090  -15.2585  -41.0857 H         1 UNK         0.0600 
    177 H177        4.7567  -13.6062  -40.8041 H         1 UNK         0.0600 
    178 H178        3.4606  -14.2779  -39.8311 H         1 UNK         0.0600 
    179 H179        4.3655  -14.1438  -43.2583 H         1 UNK         0.3000 
    180 H180        4.7793  -13.0580  -45.3591 H         1 UNK         0.0600 
    181 H181        2.6248  -15.0878  -46.1633 H         1 UNK         0.0600 
    182 H182        4.1719  -15.4227  -45.4045 H         1 UNK         0.0600 
    183 H183        4.1257  -14.8480  -47.0596 H         1 UNK         0.0600 
    184 H184        2.6861  -12.8036  -47.3398 H         1 UNK         0.3000 
    185 H185        2.3668   -9.4044  -47.4150 H         1 UNK         0.0600 
    186 H186        4.7094   -9.1725  -48.2261 H         1 UNK         0.0600 
    187 H187        4.5307  -10.6132  -49.2197 H         1 UNK         0.0600 
    188 H188        3.5828   -9.1673  -49.5720 H         1 UNK         0.0600 
    189 H189        2.2454  -11.4167  -49.5003 H         1 UNK         0.3000 
    190 H190       -2.0085  -21.7038  -45.9268 H         1 UNK         0.3000 
    191 H191       -3.9312  -22.7259  -47.7052 H         1 UNK         0.0600 
    192 H192       -4.2497  -22.0385  -44.7413 H         1 UNK         0.0600 
    193 H193       -5.5485  -22.1739  -45.9174 H         1 UNK         0.0600 
    194 H194       -4.3575  -20.8922  -46.0717 H         1 UNK         0.0600 
    195 H195       -2.5677  -24.1852  -44.7375 H         1 UNK         0.3000 
    196 H196       -4.1905  -26.5506  -44.7849 H         1 UNK         0.0600 
    197 H197       -2.5300  -27.3800  -43.1216 H         1 UNK         0.0600 
    198 H198       -3.0527  -25.7470  -42.7349 H         1 UNK         0.0600 
    199 H199       -1.4745  -26.0162  -43.4696 H         1 UNK         0.0600 
    200 H200       -0.9469  -25.7863  -46.1127 H         1 UNK         0.3000 
    201 H201       -0.3260  -28.4121  -47.0043 H         1 UNK         0.0600 
    202 H202        1.3999  -26.6925  -46.6054 H         1 UNK         0.0600 
    203 H203        0.7590  -25.6953  -47.9102 H         1 UNK         0.0600 
    204 H204        1.4934  -27.2536  -48.2674 H         1 UNK         0.0600 
    205 H205       -1.8210  -25.6271  -48.7256 H         1 UNK         0.3000 
    206 H206       -2.9401  -27.4446  -50.7519 H         1 UNK         0.0600 
    207 H207       -2.0219  -26.0119  -52.6271 H         1 UNK         0.0600 
    208 H208       -0.9575  -25.2125  -51.4726 H         1 UNK         0.0600 
    209 H209       -0.7813  -26.9329  -51.7948 H         1 UNK         0.0600 
    210 H210       -2.4141  -23.8967  -50.6810 H         1 UNK         0.3000 
    211 H211       -4.9870  -23.1821  -49.7357 H         1 UNK         0.0600 
    212 H212       -4.5028  -22.9076  -52.7618 H         1 UNK         0.0600 
    213 H213       -5.8405  -22.1869  -51.8806 H         1 UNK         0.0600 
    214 H214       -5.7318  -23.9324  -52.0210 H         1 UNK         0.0600 
    215 H215       -5.1526  -20.7841  -49.7542 H         1 UNK         0.3000 
    216 H216       -2.6609  -19.3016  -50.3496 H         1 UNK         0.0600 
    217 H217       -2.8470  -18.1395  -48.1649 H         1 UNK         0.0600 
    218 H218       -2.6012  -19.8583  -47.9012 H         1 UNK         0.0600 
    219 H219       -4.2032  -19.1534  -47.6976 H         1 UNK         0.0600 
    220 H220       -3.1448  -17.5398  -51.4291 H         1 UNK         0.3000 
    221 H221       -4.1032  -15.8706  -52.4702 H         1 UNK         0.0600 
    222 H222       -6.1732  -15.7624  -50.2174 H         1 UNK         0.0600 
    223 H223       -4.5618  -15.0516  -50.1427 H         1 UNK         0.0600 
    224 H224       -5.7303  -14.4545  -51.3077 H         1 UNK         0.0600 
    225 H225       -5.1261  -18.7082  -52.9798 H         1 UNK         0.3000 
    226 H226       -7.0684  -18.1267  -54.9891 H         1 UNK         0.0600 
    227 H227       -8.9138  -19.5395  -53.9680 H         1 UNK         0.0600 
    228 H228       -7.9959  -19.6489  -52.4708 H         1 UNK         0.0600 
    229 H229       -8.6333  -18.0993  -53.0128 H         1 UNK         0.0600 
    230 H230       -7.7949  -20.2408  -55.9604 H         1 UNK         0.3000 
    231 H231       -7.3955  -22.1255  -57.0450 H         1 UNK         0.0600 
    232 H232       -8.2704  -23.0575  -54.9747 H         1 UNK         0.0600 
    233 H233       -6.6897  -23.0497  -54.2123 H         1 UNK         0.0600 
    234 H234       -7.0157  -24.1338  -55.5621 H         1 UNK         0.0600 
    235 H235       -4.7870  -23.1043  -54.9364 H         1 UNK         0.3000 
    236 H236       -2.9422  -23.7294  -56.9743 H         1 UNK         0.0600 
    237 H237       -2.9595  -24.7534  -54.6904 H         1 UNK         0.0600 
    238 H238       -1.3801  -24.0869  -55.0721 H         1 UNK         0.0600 
    239 H239       -2.4536  -23.2153  -53.9875 H         1 UNK         0.0600 
    240 H240       -3.5323  -20.6841  -55.3281 H         1 UNK         0.3000 
    241 H241       -1.0926  -19.3680  -56.1525 H         1 UNK         0.0600 
    242 H242       -3.8242  -20.3220  -58.1193 H         1 UNK         0.3800 
    243 H243       -3.5061  -19.1693  -59.3907 H         1 UNK         0.3800 
    244 H244       -2.2508  -17.2737  -55.4503 H         1 UNK         0.0800 
    245 H245       -3.7457  -18.1484  -55.2610 H         1 UNK         0.0800 
    246 H246       -0.0884  -17.5996  -53.8290 H         1 UNK         0.0800 
    247 H247       -1.3122  -16.4522  -53.3294 H         1 UNK         0.0800 
@<TRIPOS>BOND
     1    1    2 1    
     2    1  127 1    
     3    1  128 1    
     4    1  129 1    
     5    2    3 2    
     6    2    4 am   BACKBONE|DICT|INTERRES
     7    4    5 1    
     8    4  130 1    
     9    5    6 1    
    10    5   65 1    
    11    5  131 1    
    12    6    7 1    
    13    6  132 1    
    14    6  133 1    
    15    7    8 1    
    16    8    9 1    
    17    8  134 1    
    18    8  135 1    
    19    9   10 ar   
    20    9   14 ar   
    21   10   11 ar   
    22   10  136 1    
    23   11   12 ar   
    24   11  126 1    
    25   12   13 ar   
    26   12  137 1    
    27   13   14 ar   
    28   13   15 1    
    29   14  138 1    
    30   15   16 1    
    31   15  139 1    
    32   15  140 1    
    33   16   17 1    
    34   17   18 1    
    35   17  141 1    
    36   17  142 1    
    37   18   19 1    
    38   18   67 1    
    39   18  143 1    
    40   19   20 am   BACKBONE|DICT|INTERRES
    41   19  144 1    
    42   20   21 2    
    43   20   22 1    
    44   22   23 1    
    45   22   24 1    
    46   22  145 1    
    47   23  146 1    
    48   23  147 1    
    49   23  148 1    
    50   24   25 am   BACKBONE|DICT|INTERRES
    51   24  149 1    
    52   25   26 2    
    53   25   27 1    
    54   27   28 1    
    55   27   29 1    
    56   27  150 1    
    57   28  151 1    
    58   28  152 1    
    59   28  153 1    
    60   29   30 am   BACKBONE|DICT|INTERRES
    61   29  154 1    
    62   30   31 2    
    63   30   32 1    
    64   32   33 1    
    65   32   34 1    
    66   32  155 1    
    67   33  156 1    
    68   33  157 1    
    69   33  158 1    
    70   34   35 am   BACKBONE|DICT|INTERRES
    71   34  159 1    
    72   35   36 2    
    73   35   37 1    
    74   37   38 1    
    75   37   39 1    
    76   37  160 1    
    77   38  161 1    
    78   38  162 1    
    79   38  163 1    
    80   39   40 am   BACKBONE|DICT|INTERRES
    81   39  164 1    
    82   40   41 2    
    83   40   42 1    
    84   42   43 1    
    85   42   44 1    
    86   42  165 1    
    87   43  166 1    
    88   43  167 1    
    89   43  168 1    
    90   44   45 am   BACKBONE|DICT|INTERRES
    91   44  169 1    
    92   45   46 2    
    93   45   47 1    
    94   47   48 1    
    95   47   49 1    
    96   47  170 1    
    97   48  171 1    
    98   48  172 1    
    99   48  173 1    
   100   49   50 am   BACKBONE|DICT|INTERRES
   101   49  174 1    
   102   50   51 2    
   103   50   52 1    
   104   52   53 1    
   105   52   54 1    
   106   52  175 1    
   107   53  176 1    
   108   53  177 1    
   109   53  178 1    
   110   54   55 am   BACKBONE|DICT|INTERRES
   111   54  179 1    
   112   55   56 2    
   113   55   57 1    
   114   57   58 1    
   115   57   59 1    
   116   57  180 1    
   117   58  181 1    
   118   58  182 1    
   119   58  183 1    
   120   59   60 am   BACKBONE|DICT|INTERRES
   121   59  184 1    
   122   60   61 2    
   123   60   62 1    
   124   62   63 1    
   125   62   64 1    
   126   62  185 1    
   127   63  186 1    
   128   63  187 1    
   129   63  188 1    
   130   64   65 am   BACKBONE|DICT|INTERRES
   131   64  189 1    
   132   65   66 2    
   133   67   68 2    
   134   67   69 am   BACKBONE|DICT|INTERRES
   135   69   70 1    
   136   69  190 1    
   137   70   71 1    
   138   70   72 1    
   139   70  191 1    
   140   71  192 1    
   141   71  193 1    
   142   71  194 1    
   143   72   73 2    
   144   72   74 am   BACKBONE|DICT|INTERRES
   145   74   75 1    
   146   74  195 1    
   147   75   76 1    
   148   75   77 1    
   149   75  196 1    
   150   76  197 1    
   151   76  198 1    
   152   76  199 1    
   153   77   78 2    
   154   77   79 am   BACKBONE|DICT|INTERRES
   155   79   80 1    
   156   79  200 1    
   157   80   81 1    
   158   80   82 1    
   159   80  201 1    
   160   81  202 1    
   161   81  203 1    
   162   81  204 1    
   163   82   83 2    
   164   82   84 am   BACKBONE|DICT|INTERRES
   165   84   85 1    
   166   84  205 1    
   167   85   86 1    
   168   85   87 1    
   169   85  206 1    
   170   86  207 1    
   171   86  208 1    
   172   86  209 1    
   173   87   88 2    
   174   87   89 am   BACKBONE|DICT|INTERRES
   175   89   90 1    
   176   89  210 1    
   177   90   91 1    
   178   90   92 1    
   179   90  211 1    
   180   91  212 1    
   181   91  213 1    
   182   91  214 1    
   183   92   93 2    
   184   92   94 am   BACKBONE|DICT|INTERRES
   185   94   95 1    
   186   94  215 1    
   187   95   96 1    
   188   95   97 1    
   189   95  216 1    
   190   96  217 1    
   191   96  218 1    
   192   96  219 1    
   193   97   98 2    
   194   97   99 am   BACKBONE|DICT|INTERRES
   195   99  100 1    
   196   99  220 1    
   197  100  101 1    
   198  100  102 1    
   199  100  221 1    
   200  101  222 1    
   201  101  223 1    
   202  101  224 1    
   203  102  103 2    
   204  102  104 am   BACKBONE|DICT|INTERRES
   205  104  105 1    
   206  104  225 1    
   207  105  106 1    
   208  105  107 1    
   209  105  226 1    
   210  106  227 1    
   211  106  228 1    
   212  106  229 1    
   213  107  108 2    
   214  107  109 am   BACKBONE|DICT|INTERRES
   215  109  110 1    
   216  109  230 1    
   217  110  111 1    
   218  110  112 1    
   219  110  231 1    
   220  111  232 1    
   221  111  233 1    
   222  111  234 1    
   223  112  113 2    
   224  112  114 am   BACKBONE|DICT|INTERRES
   225  114  115 1    
   226  114  235 1    
   227  115  116 1    
   228  115  117 1    
   229  115  236 1    
   230  116  237 1    
   231  116  238 1    
   232  116  239 1    
   233  117  118 2    
   234  117  119 am   BACKBONE|DICT|INTERRES
   235  119  120 1    
   236  119  240 1    
   237  120  121 1    
   238  120  124 1    
   239  120  241 1    
   240  121  122 am   BACKBONE|DICT|INTERRES
   241  121  123 2    
   242  122  242 1    
   243  122  243 1    
   244  124  125 1    
   245  124  244 1    
   246  124  245 1    
   247  125  126 1    
   248  126  246 1    
   249  126  247 1    
@<TRIPOS>SUBSTRUCTURE
     1 UNK         1 GROUP             0       ****    0 ROOT    
