@<TRIPOS>MOLECULE
3R540
247   249    1
SMALL
USER_CHARGES


@<TRIPOS>ATOM
      1 CA          2.3663   -9.9819  -51.7442 C.3       0 UNK        -0.1800 
      2 C           2.8900  -10.0181  -50.3151 C.2       0 UNK         0.5000 
      3 O           3.3255   -8.9905  -49.7944 O.2       0 UNK        -0.5000 
      4 N           2.8561  -11.1976  -49.6857 N.am      1 UNK        -0.5000 
      5 CA          3.2286  -11.4169  -48.2856 C.3       1 UNK         0.1400 
      6 C6          3.6534  -12.8878  -48.0305 C.3       23 UNK        -0.0398 
      7 S7          2.3791  -14.1356  -48.4323 S.3       23 UNK        -0.2404 
      8 C8          3.0198  -14.7818  -50.0071 C.3       23 UNK        -0.0205 
      9 C9          2.0286  -15.7361  -50.6506 C.ar      23 UNK        -0.0193 
     10 C10         0.9642  -15.2355  -51.4076 C.ar      23 UNK        -0.1150 
     11 C11         0.0473  -16.1077  -52.0001 C.ar      23 UNK        -0.0193 
     12 C12         0.2074  -17.4861  -51.8408 C.ar      23 UNK        -0.1150 
     13 C13         1.2522  -17.9973  -51.0683 C.ar      23 UNK        -0.0193 
     14 C14         2.1685  -17.1175  -50.4844 C.ar      23 UNK        -0.1150 
     15 C15         1.3625  -19.4979  -50.8395 C.3       23 UNK        -0.0205 
     16 S16         1.0448  -19.9488  -49.1033 S.3       23 UNK        -0.2404 
     17 C17        -0.5998  -19.2156  -48.7918 C.3       23 UNK        -0.0398 
     18 CA         -1.5989  -20.2282  -48.1919 C.3       11 UNK         0.1400 
     19 N          -1.1108  -20.8050  -46.9382 N.am      11 UNK        -0.5000 
     20 C          -1.5960  -21.8918  -46.3299 C.2       10 UNK         0.5000 
     21 O          -2.5155  -22.5651  -46.7950 O.2       10 UNK        -0.5000 
     22 CA         -1.0006  -22.2446  -44.9512 C.3       10 UNK         0.1400 
     23 CB         -0.9334  -23.7639  -44.7076 C.3       10 UNK        -0.1800 
     24 N           0.2875  -21.5953  -44.6806 N.am      10 UNK        -0.5000 
     25 C           1.4662  -21.8036  -45.2879 C.2       9 UNK         0.5000 
     26 O           1.6482  -22.6552  -46.1579 O.2       9 UNK        -0.5000 
     27 CA          2.6414  -20.8914  -44.8742 C.3       9 UNK         0.1400 
     28 CB          3.0087  -19.9371  -46.0209 C.3       9 UNK        -0.1800 
     29 N           2.3706  -20.0918  -43.6774 N.am      9 UNK        -0.5000 
     30 C           2.3794  -20.5582  -42.4221 C.2       8 UNK         0.5000 
     31 O           2.6762  -21.7155  -42.1241 O.2       8 UNK        -0.5000 
     32 CA          1.9452  -19.5743  -41.3185 C.3       8 UNK         0.1400 
     33 CB          3.1308  -18.7089  -40.8658 C.3       8 UNK        -0.1800 
     34 N           0.8306  -18.7099  -41.7197 N.am      8 UNK        -0.5000 
     35 C          -0.4001  -19.1460  -42.0267 C.2       7 UNK         0.5000 
     36 O          -0.7304  -20.3313  -42.0032 O.2       7 UNK        -0.5000 
     37 CA         -1.4248  -18.0930  -42.4812 C.3       7 UNK         0.1400 
     38 CB         -1.9944  -17.3190  -41.2837 C.3       7 UNK        -0.1800 
     39 N          -0.8691  -17.1620  -43.4620 N.am      7 UNK        -0.5000 
     40 C          -0.5081  -17.5023  -44.7068 C.2       6 UNK         0.5000 
     41 O          -0.6946  -18.6206  -45.1846 O.2       6 UNK        -0.5000 
     42 CA          0.2034  -16.4315  -45.5538 C.3       6 UNK         0.1400 
     43 CB         -0.8200  -15.5339  -46.2634 C.3       6 UNK        -0.1800 
     44 N           1.1237  -15.6099  -44.7674 N.am      6 UNK        -0.5000 
     45 C           2.2086  -16.0795  -44.1351 C.2       5 UNK         0.5000 
     46 O           2.5771  -17.2522  -44.1859 O.2       5 UNK        -0.5000 
     47 CA          2.9718  -15.0879  -43.2421 C.3       5 UNK         0.1400 
     48 CB          3.9019  -14.1899  -44.0712 C.3       5 UNK        -0.1800 
     49 N           2.0601  -14.2635  -42.4493 N.am      5 UNK        -0.5000 
     50 C           1.3194  -14.7239  -41.4313 C.2       4 UNK         0.5000 
     51 O           1.3570  -15.8871  -41.0313 O.2       4 UNK        -0.5000 
     52 CA          0.3461  -13.7267  -40.7761 C.3       4 UNK         0.1400 
     53 CB          1.0696  -12.8799  -39.7186 C.3       4 UNK        -0.1800 
     54 N          -0.2944  -12.8421  -41.7505 N.am      4 UNK        -0.5000 
     55 C          -1.1684  -13.2492  -42.6820 C.2       3 UNK         0.5000 
     56 O          -1.5590  -14.4103  -42.7907 O.2       3 UNK        -0.5000 
     57 CA         -1.6436  -12.1911  -43.6959 C.3       3 UNK         0.1400 
     58 CB         -2.8564  -11.4244  -43.1483 C.3       3 UNK        -0.1800 
     59 N          -0.5963  -11.2384  -44.0798 N.am      3 UNK        -0.5000 
     60 C           0.5581  -11.5782  -44.6679 C.2       2 UNK         0.5000 
     61 O           0.8785  -12.7427  -44.9155 O.2       2 UNK        -0.5000 
     62 CA          1.5424  -10.4312  -44.9650 C.3       2 UNK         0.1400 
     63 CB          2.3628  -10.1041  -43.7070 C.3       2 UNK        -0.1800 
     64 N           2.4668  -10.7630  -46.0503 N.am      2 UNK        -0.5000 
     65 C           2.1085  -10.9498  -47.3274 C.2       1 UNK         0.5000 
     66 O           0.9604  -10.7708  -47.7462 O.2       1 UNK        -0.5000 
     67 C          -2.9800  -19.5703  -48.0045 C.2       11 UNK         0.5000 
     68 O          -3.7678  -19.5465  -48.9484 O.2       11 UNK        -0.5000 
     69 N          -3.2620  -19.0865  -46.7844 N.am      12 UNK        -0.5000 
     70 CA         -4.5700  -18.5660  -46.3809 C.3       12 UNK         0.1400 
     71 CB         -4.4386  -17.8575  -45.0246 C.3       12 UNK        -0.1800 
     72 C          -5.6497  -19.6664  -46.3188 C.2       12 UNK         0.5000 
     73 O          -6.8029  -19.4043  -46.6612 O.2       12 UNK        -0.5000 
     74 N          -5.2516  -20.8796  -45.9057 N.am      13 UNK        -0.5000 
     75 CA         -6.0853  -22.0846  -45.9491 C.3       13 UNK         0.1400 
     76 CB         -5.5361  -23.1190  -44.9540 C.3       13 UNK        -0.1800 
     77 C          -6.1495  -22.6821  -47.3677 C.2       13 UNK         0.5000 
     78 O          -7.1604  -23.2805  -47.7358 O.2       13 UNK        -0.5000 
     79 N          -5.0583  -22.5119  -48.1264 N.am      14 UNK        -0.5000 
     80 CA         -4.8071  -22.8761  -49.5223 C.3       14 UNK         0.1400 
     81 CB         -5.8403  -22.2524  -50.4774 C.3       14 UNK        -0.1800 
     82 C          -4.6627  -24.3846  -49.7674 C.2       14 UNK         0.5000 
     83 O          -3.7600  -24.7805  -50.5067 O.2       14 UNK        -0.5000 
     84 N          -5.5279  -25.1948  -49.1452 N.am      15 UNK        -0.5000 
     85 CA         -5.6239  -26.6512  -49.2844 C.3       15 UNK         0.1400 
     86 CB         -6.7487  -27.1663  -48.3742 C.3       15 UNK        -0.1800 
     87 C          -4.3126  -27.4050  -49.0006 C.2       15 UNK         0.5000 
     88 O          -3.9833  -28.3458  -49.7231 O.2       15 UNK        -0.5000 
     89 N          -3.5851  -26.9636  -47.9677 N.am      16 UNK        -0.5000 
     90 CA         -2.2963  -27.5311  -47.5722 C.3       16 UNK         0.1400 
     91 CB         -2.0812  -27.2677  -46.0749 C.3       16 UNK        -0.1800 
     92 C          -1.1171  -26.9739  -48.3924 C.2       16 UNK         0.5000 
     93 O          -0.0816  -27.6353  -48.4761 O.2       16 UNK        -0.5000 
     94 N          -1.2781  -25.7716  -48.9619 N.am      17 UNK        -0.5000 
     95 CA         -0.2427  -25.0797  -49.7256 C.3       17 UNK         0.1400 
     96 CB         -0.4760  -23.5622  -49.6607 C.3       17 UNK        -0.1800 
     97 C          -0.1766  -25.5612  -51.1827 C.2       17 UNK         0.5000 
     98 O           0.9068  -25.9125  -51.6525 O.2       17 UNK        -0.5000 
     99 N          -1.3238  -25.5521  -51.8752 N.am      18 UNK        -0.5000 
    100 CA        -1.4066  -25.8326  -53.3135 C.3       18 UNK         0.1400 
    101 CB        -0.8883  -24.6128  -54.1043 C.3       18 UNK        -0.1800 
    102 C         -2.8133  -26.2238  -53.8039 C.2       18 UNK         0.5000 
    103 O         -2.9376  -26.6421  -54.9554 O.2       18 UNK        -0.5000 
    104 N         -3.8457  -26.0548  -52.9633 N.am      19 UNK        -0.5000 
    105 CA        -5.2729  -26.2154  -53.2748 C.3       19 UNK         0.1400 
    106 CB        -5.6169  -27.6754  -53.6356 C.3       19 UNK        -0.1800 
    107 C         -5.7897  -25.1830  -54.2996 C.2       19 UNK         0.5000 
    108 O         -6.7230  -25.4658  -55.0526 O.2       19 UNK        -0.5000 
    109 N         -5.1838  -23.9901  -54.2802 N.am      20 UNK        -0.5000 
    110 CA        -5.5454  -22.8276  -55.0856 C.3       20 UNK         0.1400 
    111 CB        -5.1130  -23.0073  -56.5535 C.3       20 UNK        -0.1800 
    112 C         -4.9106  -21.5788  -54.4636 C.2       20 UNK         0.5000 
    113 O         -5.6216  -20.6172  -54.1690 O.2       20 UNK        -0.5000 
    114 N         -3.5866  -21.6417  -54.2435 N.am      21 UNK        -0.5000 
    115 CA        -2.7345  -20.6037  -53.6528 C.3       21 UNK         0.1400 
    116 CB        -2.9667  -20.5184  -52.1284 C.3       21 UNK        -0.1800 
    117 C         -2.8762  -19.2585  -54.3957 C.2       21 UNK         0.5000 
    118 O         -2.4306  -19.1620  -55.5402 O.2       21 UNK        -0.5000 
    119 N         -3.4999  -18.2638  -53.7537 N.am      22 UNK        -0.5000 
    120 CA        -3.7878  -16.9426  -54.3362 C.3       22 UNK         0.1400 
    121 C         -5.0019  -16.9187  -55.3121 C.2       22 UNK         0.5000 
    122 N         -5.7930  -17.9791  -55.4300 N.am      22 UNK        -0.7600 
    123 O         -5.2277  -15.9153  -55.9831 O.2       22 UNK        -0.5000 
    124 C124       -3.9273  -15.8300  -53.2581 C.3       23 UNK        -0.0398 
    125 S125       -2.6913  -15.8916  -51.9134 S.3       23 UNK        -0.2404 
    126 C126       -1.1312  -15.5800  -52.8001 C.3       23 UNK        -0.0205 
    127 H127        2.0274  -10.9634  -52.0770 H         1 UNK         0.0600 
    128 H128        1.5276   -9.2896  -51.8186 H         1 UNK         0.0600 
    129 H129        3.1497   -9.6448  -52.4229 H         1 UNK         0.0600 
    130 H130        2.4310  -11.9908  -50.1420 H         1 UNK         0.3000 
    131 H131        4.1005  -10.7938  -48.0740 H         1 UNK         0.0600 
    132 H132        3.9435  -13.0254  -46.9888 H         1 UNK         0.0800 
    133 H133        4.5562  -13.1043  -48.6031 H         1 UNK         0.0800 
    134 H134        3.9714  -15.2856  -49.8300 H         1 UNK         0.0800 
    135 H135        3.2298  -13.9585  -50.6910 H         1 UNK         0.0800 
    136 H136        0.8446  -14.1675  -51.5241 H         1 UNK         0.1150 
    137 H137       -0.5081  -18.1579  -52.2933 H         1 UNK         0.1150 
    138 H138        2.9765  -17.5097  -49.8826 H         1 UNK         0.1150 
    139 H139        0.6678  -20.0438  -51.4799 H         1 UNK         0.0800 
    140 H140        2.3634  -19.8317  -51.1158 H         1 UNK         0.0800 
    141 H141       -1.0028  -18.8148  -49.7221 H         1 UNK         0.0800 
    142 H142       -0.4654  -18.3611  -48.1264 H         1 UNK         0.0800 
    143 H143       -1.7276  -21.0406  -48.9090 H         1 UNK         0.0600 
    144 H144       -0.4184  -20.2586  -46.4405 H         1 UNK         0.3000 
    145 H145       -1.6932  -21.8302  -44.2177 H         1 UNK         0.0600 
    146 H146       -0.4628  -23.9916  -43.7512 H         1 UNK         0.0600 
    147 H147       -1.9361  -24.1909  -44.6833 H         1 UNK         0.0600 
    148 H148       -0.3751  -24.2776  -45.4909 H         1 UNK         0.0600 
    149 H149        0.2545  -20.8725  -43.9729 H         1 UNK         0.3000 
    150 H150        3.5011  -21.5349  -44.6769 H         1 UNK         0.0600 
    151 H151        3.2552  -20.4888  -46.9288 H         1 UNK         0.0600 
    152 H152        3.8764  -19.3285  -45.7659 H         1 UNK         0.0600 
    153 H153        2.1857  -19.2617  -46.2582 H         1 UNK         0.0600 
    154 H154        2.1909  -19.1020  -43.8273 H         1 UNK         0.3000 
    155 H155        1.6127  -20.1658  -40.4631 H         1 UNK         0.0600 
    156 H156        3.4892  -18.0654  -41.6695 H         1 UNK         0.0600 
    157 H157        3.9677  -19.3295  -40.5431 H         1 UNK         0.0600 
    158 H158        2.8554  -18.0721  -40.0251 H         1 UNK         0.0600 
    159 H159        1.0133  -17.7108  -41.7255 H         1 UNK         0.3000 
    160 H160       -2.2493  -18.6277  -42.9544 H         1 UNK         0.0600 
    161 H161       -2.7878  -16.6403  -41.5973 H         1 UNK         0.0600 
    162 H162       -1.2284  -16.7281  -40.7818 H         1 UNK         0.0600 
    163 H163       -2.4214  -17.9992  -40.5459 H         1 UNK         0.0600 
    164 H164       -0.7680  -16.1959  -43.1679 H         1 UNK         0.3000 
    165 H165        0.7902  -16.9474  -46.3166 H         1 UNK         0.0600 
    166 H166       -0.3258  -14.8051  -46.9064 H         1 UNK         0.0600 
    167 H167       -1.4881  -16.1241  -46.8921 H         1 UNK         0.0600 
    168 H168       -1.4370  -14.9864  -45.5507 H         1 UNK         0.0600 
    169 H169        0.9219  -14.6142  -44.7143 H         1 UNK         0.3000 
    170 H170        3.5915  -15.6680  -42.5550 H         1 UNK         0.0600 
    171 H171        4.5968  -14.7888  -44.6613 H         1 UNK         0.0600 
    172 H172        3.3447  -13.5599  -44.7627 H         1 UNK         0.0600 
    173 H173        4.4959  -13.5391  -43.4296 H         1 UNK         0.0600 
    174 H174        1.9181  -13.3153  -42.7628 H         1 UNK         0.3000 
    175 H175       -0.4347  -14.3035  -40.2757 H         1 UNK         0.0600 
    176 H176        0.3735  -12.2247  -39.1946 H         1 UNK         0.0600 
    177 H177        1.5438  -13.5147  -38.9688 H         1 UNK         0.0600 
    178 H178        1.8481  -12.2576  -40.1620 H         1 UNK         0.0600 
    179 H179       -0.0288  -11.8688  -41.7313 H         1 UNK         0.3000 
    180 H180       -1.9551  -12.7199  -44.5989 H         1 UNK         0.0600 
    181 H181       -2.6004  -10.8443  -42.2609 H         1 UNK         0.0600 
    182 H182       -3.6590  -12.1099  -42.8724 H         1 UNK         0.0600 
    183 H183       -3.2594  -10.7387  -43.8939 H         1 UNK         0.0600 
    184 H184       -0.7848  -10.2639  -43.8934 H         1 UNK         0.3000 
    185 H185        0.9718   -9.5474  -45.2577 H         1 UNK         0.0600 
    186 H186        2.9579  -10.9581  -43.3800 H         1 UNK         0.0600 
    187 H187        3.0429   -9.2709  -43.8855 H         1 UNK         0.0600 
    188 H188        1.7157   -9.8181  -42.8769 H         1 UNK         0.0600 
    189 H189        3.4228  -10.9368  -45.7785 H         1 UNK         0.3000 
    190 H190       -2.5309  -19.1029  -46.0823 H         1 UNK         0.3000 
    191 H191       -4.8837  -17.8288  -47.1231 H         1 UNK         0.0600 
    192 H192       -3.6775  -17.0772  -45.0536 H         1 UNK         0.0600 
    193 H193       -4.1768  -18.5573  -44.2313 H         1 UNK         0.0600 
    194 H194       -5.3792  -17.3831  -44.7423 H         1 UNK         0.0600 
    195 H195       -4.2852  -21.0073  -45.6479 H         1 UNK         0.3000 
    196 H196       -7.1023  -21.8259  -45.6466 H         1 UNK         0.0600 
    197 H197       -6.1581  -24.0150  -44.9418 H         1 UNK         0.0600 
    198 H198       -5.5217  -22.7206  -43.9395 H         1 UNK         0.0600 
    199 H199       -4.5218  -23.4295  -45.2066 H         1 UNK         0.0600 
    200 H200       -4.2438  -22.1362  -47.6535 H         1 UNK         0.3000 
    201 H201       -3.8394  -22.4330  -49.7580 H         1 UNK         0.0600 
    202 H202       -5.8915  -21.1714  -50.3460 H         1 UNK         0.0600 
    203 H203       -6.8406  -22.6573  -50.3223 H         1 UNK         0.0600 
    204 H204       -5.5718  -22.4402  -51.5172 H         1 UNK         0.0600 
    205 H205       -6.2364  -24.7455  -48.5718 H         1 UNK         0.3000 
    206 H206       -5.9056  -26.8703  -50.3137 H         1 UNK         0.0600 
    207 H207       -7.7066  -26.7191  -48.6405 H         1 UNK         0.0600 
    208 H208       -6.8605  -28.2479  -48.4621 H         1 UNK         0.0600 
    209 H209       -6.5538  -26.9393  -47.3253 H         1 UNK         0.0600 
    210 H210       -3.9313  -26.1844  -47.4273 H         1 UNK         0.3000 
    211 H211       -2.3190  -28.6128  -47.7224 H         1 UNK         0.0600 
    212 H212       -2.0817  -26.2011  -45.8557 H         1 UNK         0.0600 
    213 H213       -1.1269  -27.6737  -45.7366 H         1 UNK         0.0600 
    214 H214       -2.8635  -27.7341  -45.4759 H         1 UNK         0.0600 
    215 H215       -2.1776  -25.3184  -48.8960 H         1 UNK         0.3000 
    216 H216        0.7285  -25.2781  -49.2666 H         1 UNK         0.0600 
    217 H217        0.2546  -23.0251  -50.2671 H         1 UNK         0.0600 
    218 H218       -0.3690  -23.2001  -48.6391 H         1 UNK         0.0600 
    219 H219       -1.4672  -23.2837  -50.0175 H         1 UNK         0.0600 
    220 H220       -2.1727  -25.2646  -51.3993 H         1 UNK         0.3000 
    221 H221       -0.7665  -26.6887  -53.5369 H         1 UNK         0.0600 
    222 H222       -1.4350  -23.7074  -53.8417 H         1 UNK         0.0600 
    223 H223        0.1683  -24.4304  -53.9086 H         1 UNK         0.0600 
    224 H224       -0.9895  -24.7612  -55.1802 H         1 UNK         0.0600 
    225 H225       -3.6660  -25.6953  -52.0302 H         1 UNK         0.3000 
    226 H226       -5.8064  -25.9775  -52.3561 H         1 UNK         0.0600 
    227 H227       -5.2450  -28.3647  -52.8774 H         1 UNK         0.0600 
    228 H228       -5.1931  -27.9695  -54.5958 H         1 UNK         0.0600 
    229 H229       -6.6962  -27.8173  -53.7001 H         1 UNK         0.0600 
    230 H230       -4.4608  -23.8378  -53.5920 H         1 UNK         0.3000 
    231 H231       -6.6296  -22.7008  -55.0506 H         1 UNK         0.0600 
    232 H232       -5.6563  -23.8234  -57.0297 H         1 UNK         0.0600 
    233 H233       -4.0478  -23.2240  -56.6393 H         1 UNK         0.0600 
    234 H234       -5.3146  -22.1054  -57.1329 H         1 UNK         0.0600 
    235 H235       -3.0916  -22.4420  -54.6076 H         1 UNK         0.3000 
    236 H236       -1.7025  -20.9235  -53.8052 H         1 UNK         0.0600 
    237 H237       -2.3286  -19.7615  -51.6715 H         1 UNK         0.0600 
    238 H238       -3.9998  -20.2754  -51.8789 H         1 UNK         0.0600 
    239 H239       -2.7257  -21.4672  -51.6502 H         1 UNK         0.0600 
    240 H240       -3.8570  -18.4280  -52.8240 H         1 UNK         0.3000 
    241 H241       -2.9342  -16.6751  -54.9600 H         1 UNK         0.0600 
    242 H242       -6.5720  -17.9435  -56.0678 H         1 UNK         0.3800 
    243 H243       -5.6315  -18.8225  -54.8867 H         1 UNK         0.3800 
    244 H244       -3.8797  -14.8443  -53.7241 H         1 UNK         0.0800 
    245 H245       -4.9090  -15.8912  -52.7851 H         1 UNK         0.0800 
    246 H246       -1.0317  -14.5108  -52.9932 H         1 UNK         0.0800 
    247 H247       -1.1316  -16.0743  -53.7707 H         1 UNK         0.0800 
@<TRIPOS>BOND
     1    1    2 1    
     2    1  127 1    
     3    1  128 1    
     4    1  129 1    
     5    2    3 2    
     6    2    4 am   BACKBONE|DICT|INTERRES
     7    4    5 1    
     8    4  130 1    
     9    5    6 1    
    10    5   65 1    
    11    5  131 1    
    12    6    7 1    
    13    6  132 1    
    14    6  133 1    
    15    7    8 1    
    16    8    9 1    
    17    8  134 1    
    18    8  135 1    
    19    9   10 ar   
    20    9   14 ar   
    21   10   11 ar   
    22   10  136 1    
    23   11   12 ar   
    24   11  126 1    
    25   12   13 ar   
    26   12  137 1    
    27   13   14 ar   
    28   13   15 1    
    29   14  138 1    
    30   15   16 1    
    31   15  139 1    
    32   15  140 1    
    33   16   17 1    
    34   17   18 1    
    35   17  141 1    
    36   17  142 1    
    37   18   19 1    
    38   18   67 1    
    39   18  143 1    
    40   19   20 am   BACKBONE|DICT|INTERRES
    41   19  144 1    
    42   20   21 2    
    43   20   22 1    
    44   22   23 1    
    45   22   24 1    
    46   22  145 1    
    47   23  146 1    
    48   23  147 1    
    49   23  148 1    
    50   24   25 am   BACKBONE|DICT|INTERRES
    51   24  149 1    
    52   25   26 2    
    53   25   27 1    
    54   27   28 1    
    55   27   29 1    
    56   27  150 1    
    57   28  151 1    
    58   28  152 1    
    59   28  153 1    
    60   29   30 am   BACKBONE|DICT|INTERRES
    61   29  154 1    
    62   30   31 2    
    63   30   32 1    
    64   32   33 1    
    65   32   34 1    
    66   32  155 1    
    67   33  156 1    
    68   33  157 1    
    69   33  158 1    
    70   34   35 am   BACKBONE|DICT|INTERRES
    71   34  159 1    
    72   35   36 2    
    73   35   37 1    
    74   37   38 1    
    75   37   39 1    
    76   37  160 1    
    77   38  161 1    
    78   38  162 1    
    79   38  163 1    
    80   39   40 am   BACKBONE|DICT|INTERRES
    81   39  164 1    
    82   40   41 2    
    83   40   42 1    
    84   42   43 1    
    85   42   44 1    
    86   42  165 1    
    87   43  166 1    
    88   43  167 1    
    89   43  168 1    
    90   44   45 am   BACKBONE|DICT|INTERRES
    91   44  169 1    
    92   45   46 2    
    93   45   47 1    
    94   47   48 1    
    95   47   49 1    
    96   47  170 1    
    97   48  171 1    
    98   48  172 1    
    99   48  173 1    
   100   49   50 am   BACKBONE|DICT|INTERRES
   101   49  174 1    
   102   50   51 2    
   103   50   52 1    
   104   52   53 1    
   105   52   54 1    
   106   52  175 1    
   107   53  176 1    
   108   53  177 1    
   109   53  178 1    
   110   54   55 am   BACKBONE|DICT|INTERRES
   111   54  179 1    
   112   55   56 2    
   113   55   57 1    
   114   57   58 1    
   115   57   59 1    
   116   57  180 1    
   117   58  181 1    
   118   58  182 1    
   119   58  183 1    
   120   59   60 am   BACKBONE|DICT|INTERRES
   121   59  184 1    
   122   60   61 2    
   123   60   62 1    
   124   62   63 1    
   125   62   64 1    
   126   62  185 1    
   127   63  186 1    
   128   63  187 1    
   129   63  188 1    
   130   64   65 am   BACKBONE|DICT|INTERRES
   131   64  189 1    
   132   65   66 2    
   133   67   68 2    
   134   67   69 am   BACKBONE|DICT|INTERRES
   135   69   70 1    
   136   69  190 1    
   137   70   71 1    
   138   70   72 1    
   139   70  191 1    
   140   71  192 1    
   141   71  193 1    
   142   71  194 1    
   143   72   73 2    
   144   72   74 am   BACKBONE|DICT|INTERRES
   145   74   75 1    
   146   74  195 1    
   147   75   76 1    
   148   75   77 1    
   149   75  196 1    
   150   76  197 1    
   151   76  198 1    
   152   76  199 1    
   153   77   78 2    
   154   77   79 am   BACKBONE|DICT|INTERRES
   155   79   80 1    
   156   79  200 1    
   157   80   81 1    
   158   80   82 1    
   159   80  201 1    
   160   81  202 1    
   161   81  203 1    
   162   81  204 1    
   163   82   83 2    
   164   82   84 am   BACKBONE|DICT|INTERRES
   165   84   85 1    
   166   84  205 1    
   167   85   86 1    
   168   85   87 1    
   169   85  206 1    
   170   86  207 1    
   171   86  208 1    
   172   86  209 1    
   173   87   88 2    
   174   87   89 am   BACKBONE|DICT|INTERRES
   175   89   90 1    
   176   89  210 1    
   177   90   91 1    
   178   90   92 1    
   179   90  211 1    
   180   91  212 1    
   181   91  213 1    
   182   91  214 1    
   183   92   93 2    
   184   92   94 am   BACKBONE|DICT|INTERRES
   185   94   95 1    
   186   94  215 1    
   187   95   96 1    
   188   95   97 1    
   189   95  216 1    
   190   96  217 1    
   191   96  218 1    
   192   96  219 1    
   193   97   98 2    
   194   97   99 am   BACKBONE|DICT|INTERRES
   195   99  100 1    
   196   99  220 1    
   197  100  101 1    
   198  100  102 1    
   199  100  221 1    
   200  101  222 1    
   201  101  223 1    
   202  101  224 1    
   203  102  103 2    
   204  102  104 am   BACKBONE|DICT|INTERRES
   205  104  105 1    
   206  104  225 1    
   207  105  106 1    
   208  105  107 1    
   209  105  226 1    
   210  106  227 1    
   211  106  228 1    
   212  106  229 1    
   213  107  108 2    
   214  107  109 am   BACKBONE|DICT|INTERRES
   215  109  110 1    
   216  109  230 1    
   217  110  111 1    
   218  110  112 1    
   219  110  231 1    
   220  111  232 1    
   221  111  233 1    
   222  111  234 1    
   223  112  113 2    
   224  112  114 am   BACKBONE|DICT|INTERRES
   225  114  115 1    
   226  114  235 1    
   227  115  116 1    
   228  115  117 1    
   229  115  236 1    
   230  116  237 1    
   231  116  238 1    
   232  116  239 1    
   233  117  118 2    
   234  117  119 am   BACKBONE|DICT|INTERRES
   235  119  120 1    
   236  119  240 1    
   237  120  121 1    
   238  120  124 1    
   239  120  241 1    
   240  121  122 am   BACKBONE|DICT|INTERRES
   241  121  123 2    
   242  122  242 1    
   243  122  243 1    
   244  124  125 1    
   245  124  244 1    
   246  124  245 1    
   247  125  126 1    
   248  126  246 1    
   249  126  247 1    
@<TRIPOS>SUBSTRUCTURE
     1 UNK         1 GROUP             0       ****    0 ROOT    
