@<TRIPOS>MOLECULE
3R540
247   249    1
SMALL
USER_CHARGES


@<TRIPOS>ATOM
      1 CA          6.1391  -13.1707  -46.2562 C.3       0 UNK        -0.1800 
      2 C           4.6218  -13.2590  -46.3042 C.2       0 UNK         0.5000 
      3 O           3.9407  -12.3913  -45.7584 O.2       0 UNK        -0.5000 
      4 N           4.0873  -14.2886  -46.9737 N.am      1 UNK        -0.5000 
      5 CA          2.6552  -14.6064  -47.1010 C.3       1 UNK         0.1400 
      6 C6          2.4300  -15.9791  -47.7799 C.3       23 UNK        -0.0398 
      7 S7          3.2537  -16.1547  -49.4036 S.3       23 UNK        -0.2404 
      8 C8          1.8656  -15.9444  -50.5684 C.3       23 UNK        -0.0205 
      9 C9          0.8106  -17.0334  -50.4276 C.ar      23 UNK        -0.0193 
     10 C10        -0.5149  -16.6986  -50.1376 C.ar      23 UNK        -0.1150 
     11 C11        -1.4867  -17.6950  -50.0090 C.ar      23 UNK        -0.0193 
     12 C12        -1.1176  -19.0376  -50.1377 C.ar      23 UNK        -0.1150 
     13 C13         0.2017  -19.3855  -50.4429 C.ar      23 UNK        -0.0193 
     14 C14         1.1559  -18.3761  -50.6013 C.ar      23 UNK        -0.1150 
     15 C15         0.5875  -20.8495  -50.6217 C.3       23 UNK        -0.0205 
     16 S16         2.0362  -21.3356  -49.6237 S.3       23 UNK        -0.2404 
     17 C17         1.4429  -21.0070  -47.9290 C.3       23 UNK        -0.0398 
     18 CA          1.0394  -22.2835  -47.1573 C.3       11 UNK         0.1400 
     19 N           0.8537  -22.0126  -45.7326 N.am      11 UNK        -0.5000 
     20 C           0.6496  -22.9429  -44.7905 C.2       10 UNK         0.5000 
     21 O           0.6599  -24.1545  -45.0095 O.2       10 UNK        -0.5000 
     22 CA          0.3312  -22.4274  -43.3752 C.3       10 UNK         0.1400 
     23 CB          1.6178  -22.0329  -42.6354 C.3       10 UNK        -0.1800 
     24 N          -0.5995  -21.2961  -43.3862 N.am      10 UNK        -0.5000 
     25 C          -1.8629  -21.3625  -43.8317 C.2       9 UNK         0.5000 
     26 O          -2.3898  -22.3982  -44.2361 O.2       9 UNK        -0.5000 
     27 CA         -2.6606  -20.0477  -43.8758 C.3       9 UNK         0.1400 
     28 CB         -3.1900  -19.6819  -42.4814 C.3       9 UNK        -0.1800 
     29 N          -1.8855  -18.9329  -44.4204 N.am      9 UNK        -0.5000 
     30 C          -1.4105  -18.8749  -45.6729 C.2       8 UNK         0.5000 
     31 O          -1.6041  -19.7464  -46.5194 O.2       8 UNK        -0.5000 
     32 CA         -0.5255  -17.6655  -46.0242 C.3       8 UNK         0.1400 
     33 CB         -1.3804  -16.4181  -46.2813 C.3       8 UNK        -0.1800 
     34 N           0.4663  -17.3749  -44.9878 N.am      8 UNK        -0.5000 
     35 C           1.4324  -18.2229  -44.6064 C.2       7 UNK         0.5000 
     36 O           1.6392  -19.3106  -45.1412 O.2       7 UNK        -0.5000 
     37 CA          2.2734  -17.8121  -43.3880 C.3       7 UNK         0.1400 
     38 CB          3.4112  -16.8664  -43.7987 C.3       7 UNK        -0.1800 
     39 N           1.4501  -17.1910  -42.3500 N.am      7 UNK        -0.5000 
     40 C           0.5603  -17.8595  -41.6013 C.2       6 UNK         0.5000 
     41 O           0.3702  -19.0725  -41.6877 O.2       6 UNK        -0.5000 
     42 CA         -0.2882  -17.0274  -40.6221 C.3       6 UNK         0.1400 
     43 CB          0.4808  -16.7777  -39.3163 C.3       6 UNK        -0.1800 
     44 N          -0.7098  -15.7463  -41.1902 N.am      6 UNK        -0.5000 
     45 C          -1.5503  -15.6162  -42.2268 C.2       5 UNK         0.5000 
     46 O          -2.0973  -16.5673  -42.7822 O.2       5 UNK        -0.5000 
     47 CA         -1.7809  -14.1901  -42.7636 C.3       5 UNK         0.1400 
     48 CB         -2.9746  -13.5342  -42.0544 C.3       5 UNK        -0.1800 
     49 N          -0.6060  -13.3232  -42.6380 N.am      5 UNK        -0.5000 
     50 C           0.5769  -13.5512  -43.2222 C.2       4 UNK         0.5000 
     51 O           0.8048  -14.5211  -43.9490 O.2       4 UNK        -0.5000 
     52 CA          1.6940  -12.5428  -42.9126 C.3       4 UNK         0.1400 
     53 CB          3.0227  -13.2509  -42.6006 C.3       4 UNK        -0.1800 
     54 N           1.8890  -11.6248  -44.0295 N.am      4 UNK        -0.5000 
     55 C           1.1315  -10.5470  -44.2716 C.2       3 UNK         0.5000 
     56 O           0.1638  -10.2289  -43.5788 O.2       3 UNK        -0.5000 
     57 CA          1.5189   -9.6676  -45.4718 C.3       3 UNK         0.1400 
     58 CB          2.6999   -8.7522  -45.1110 C.3       3 UNK        -0.1800 
     59 N           1.8759  -10.4716  -46.6403 N.am      3 UNK        -0.5000 
     60 C           1.2983  -10.3738  -47.8467 C.2       2 UNK         0.5000 
     61 O           0.4052   -9.5687  -48.1144 O.2       2 UNK        -0.5000 
     62 CA          1.7956  -11.3295  -48.9535 C.3       2 UNK         0.1400 
     63 CB          2.7903  -10.6110  -49.8779 C.3       2 UNK        -0.1800 
     64 N           2.4287  -12.5406  -48.4329 N.am      2 UNK        -0.5000 
     65 C           1.7910  -13.5043  -47.7557 C.2       1 UNK         0.5000 
     66 O           0.5689  -13.5316  -47.6156 O.2       1 UNK        -0.5000 
     67 C          -0.2019  -22.9649  -47.7666 C.2       11 UNK         0.5000 
     68 O          -0.0570  -23.9946  -48.4218 O.2       11 UNK        -0.5000 
     69 N          -1.3971  -22.4156  -47.5085 N.am      12 UNK        -0.5000 
     70 CA         -2.6758  -22.9754  -47.9493 C.3       12 UNK         0.1400 
     71 CB         -3.8108  -22.0004  -47.6043 C.3       12 UNK        -0.1800 
     72 C          -2.9491  -24.3797  -47.3776 C.2       12 UNK         0.5000 
     73 O          -3.3955  -25.2575  -48.1136 O.2       12 UNK        -0.5000 
     74 N          -2.6249  -24.5933  -46.0947 N.am      13 UNK        -0.5000 
     75 CA         -2.7133  -25.8954  -45.4308 C.3       13 UNK         0.1400 
     76 CB         -2.4334  -25.7318  -43.9294 C.3       13 UNK        -0.1800 
     77 C          -1.7804  -26.9536  -46.0523 C.2       13 UNK         0.5000 
     78 O          -2.1914  -28.1042  -46.2073 O.2       13 UNK        -0.5000 
     79 N          -0.5579  -26.5444  -46.4182 N.am      14 UNK        -0.5000 
     80 CA          0.4280  -27.3883  -47.0934 C.3       14 UNK         0.1400 
     81 CB          1.8136  -26.7310  -46.9954 C.3       14 UNK        -0.1800 
     82 C           0.0599  -27.6756  -48.5619 C.2       14 UNK         0.5000 
     83 O           0.1816  -28.8175  -49.0070 O.2       14 UNK        -0.5000 
     84 N          -0.3788  -26.6382  -49.2870 N.am      15 UNK        -0.5000 
     85 CA         -0.7355  -26.6945  -50.7061 C.3       15 UNK         0.1400 
     86 CB         -0.7646  -25.2631  -51.2695 C.3       15 UNK        -0.1800 
     87 C          -2.0814  -27.3871  -50.9856 C.2       15 UNK         0.5000 
     88 O          -2.3203  -27.7867  -52.1252 O.2       15 UNK        -0.5000 
     89 N          -2.9594  -27.4515  -49.9752 N.am      16 UNK        -0.5000 
     90 CA         -4.3598  -27.9003  -49.9832 C.3       16 UNK         0.1400 
     91 CB         -4.5109  -29.3354  -50.5231 C.3       16 UNK        -0.1800 
     92 C          -5.3185  -26.9174  -50.6883 C.2       16 UNK         0.5000 
     93 O          -6.4527  -26.7541  -50.2358 O.2       16 UNK        -0.5000 
     94 N          -4.8424  -26.2609  -51.7529 N.am      17 UNK        -0.5000 
     95 CA         -5.4344  -25.0758  -52.3654 C.3       17 UNK         0.1400 
     96 CB         -5.1642  -25.1182  -53.8832 C.3       17 UNK        -0.1800 
     97 C          -4.8717  -23.8236  -51.6573 C.2       17 UNK         0.5000 
     98 O          -4.9779  -23.7238  -50.4354 O.2       17 UNK        -0.5000 
     99 N          -4.2709  -22.9003  -52.4139 N.am      18 UNK        -0.5000 
    100 CA        -3.5727  -21.7109  -51.9345 C.3       18 UNK         0.1400 
    101 CB        -4.5612  -20.6924  -51.3301 C.3       18 UNK        -0.1800 
    102 C         -2.7316  -21.1646  -53.1032 C.2       18 UNK         0.5000 
    103 O         -2.1571  -21.9674  -53.8417 O.2       18 UNK        -0.5000 
    104 N         -2.6854  -19.8381  -53.2834 N.am      19 UNK        -0.5000 
    105 CA        -1.9604  -19.1703  -54.3647 C.3       19 UNK         0.1400 
    106 CB        -0.6816  -18.5358  -53.7879 C.3       19 UNK        -0.1800 
    107 C         -2.8680  -18.1360  -55.0663 C.2       19 UNK         0.5000 
    108 O         -2.6600  -16.9362  -54.8930 O.2       19 UNK        -0.5000 
    109 N         -3.8732  -18.5393  -55.8588 N.am      20 UNK        -0.5000 
    110 CA        -4.3514  -19.9050  -56.1064 C.3       20 UNK         0.1400 
    111 CB        -4.7555  -20.0197  -57.5842 C.3       20 UNK        -0.1800 
    112 C         -5.5482  -20.2689  -55.2061 C.2       20 UNK         0.5000 
    113 O         -5.8219  -21.4548  -55.0224 O.2       20 UNK        -0.5000 
    114 N         -6.2219  -19.2516  -54.6542 N.am      21 UNK        -0.5000 
    115 CA        -7.3759  -19.3832  -53.7624 C.3       21 UNK         0.1400 
    116 CB        -8.6731  -19.1900  -54.5644 C.3       21 UNK        -0.1800 
    117 C         -7.3030  -18.3947  -52.5857 C.2       21 UNK         0.5000 
    118 O         -7.7813  -18.7256  -51.5011 O.2       21 UNK        -0.5000 
    119 N         -6.6910  -17.2199  -52.8061 N.am      22 UNK        -0.5000 
    120 CA        -6.4523  -16.1621  -51.8024 C.3       22 UNK         0.1400 
    121 C         -7.7404  -15.4718  -51.2514 C.2       22 UNK         0.5000 
    122 N         -8.8853  -15.5836  -51.9141 N.am      22 UNK        -0.7600 
    123 O         -7.7013  -14.7937  -50.2281 O.2       22 UNK        -0.5000 
    124 C124       -5.4771  -16.6036  -50.6724 C.3       23 UNK        -0.0398 
    125 S125       -3.8407  -17.0937  -51.3121 S.3       23 UNK        -0.2404 
    126 C126       -2.9356  -17.3156  -49.7499 C.3       23 UNK        -0.0205 
    127 H127        6.4813  -13.1996  -45.2218 H         1 UNK         0.0600 
    128 H128        6.6107  -13.9928  -46.7948 H         1 UNK         0.0600 
    129 H129        6.4739  -12.2339  -46.7014 H         1 UNK         0.0600 
    130 H130        4.7048  -14.9426  -47.4344 H         1 UNK         0.3000 
    131 H131        2.2751  -14.6908  -46.0830 H         1 UNK         0.0600 
    132 H132        1.3654  -16.1928  -47.8737 H         1 UNK         0.0800 
    133 H133        2.8212  -16.7654  -47.1331 H         1 UNK         0.0800 
    134 H134        1.4274  -14.9551  -50.4283 H         1 UNK         0.0800 
    135 H135        2.2555  -15.9651  -51.5868 H         1 UNK         0.0800 
    136 H136       -0.7959  -15.6608  -50.0246 H         1 UNK         0.1150 
    137 H137       -1.8613  -19.8108  -50.0157 H         1 UNK         0.1150 
    138 H138        2.1769  -18.6368  -50.8419 H         1 UNK         0.1150 
    139 H139       -0.2489  -21.5052  -50.3761 H         1 UNK         0.0800 
    140 H140        0.8130  -21.0247  -51.6742 H         1 UNK         0.0800 
    141 H141        0.6291  -20.2818  -47.9366 H         1 UNK         0.0800 
    142 H142        2.2659  -20.5156  -47.4093 H         1 UNK         0.0800 
    143 H143        1.8668  -22.9925  -47.2329 H         1 UNK         0.0600 
    144 H144        0.8818  -21.0352  -45.4548 H         1 UNK         0.3000 
    145 H145       -0.1413  -23.2427  -42.8237 H         1 UNK         0.0600 
    146 H146        1.4064  -21.7409  -41.6066 H         1 UNK         0.0600 
    147 H147        2.3193  -22.8674  -42.5995 H         1 UNK         0.0600 
    148 H148        2.1233  -21.1987  -43.1222 H         1 UNK         0.0600 
    149 H149       -0.2513  -20.4152  -43.0207 H         1 UNK         0.3000 
    150 H150       -3.5192  -20.2044  -44.5320 H         1 UNK         0.0600 
    151 H151       -3.7821  -20.4962  -42.0620 H         1 UNK         0.0600 
    152 H152       -3.8314  -18.8014  -42.5228 H         1 UNK         0.0600 
    153 H153       -2.3790  -19.4714  -41.7840 H         1 UNK         0.0600 
    154 H154       -1.7321  -18.1427  -43.7999 H         1 UNK         0.3000 
    155 H155        0.0089  -17.9097  -46.9445 H         1 UNK         0.0600 
    156 H156       -1.9249  -16.1087  -45.3908 H         1 UNK         0.0600 
    157 H157       -2.1180  -16.6078  -47.0587 H         1 UNK         0.0600 
    158 H158       -0.7684  -15.5785  -46.6070 H         1 UNK         0.0600 
    159 H159        0.3873  -16.4832  -44.5105 H         1 UNK         0.3000 
    160 H160        2.7226  -18.7159  -42.9707 H         1 UNK         0.0600 
    161 H161        4.0197  -16.5817  -42.9403 H         1 UNK         0.0600 
    162 H162        3.0328  -15.9560  -44.2592 H         1 UNK         0.0600 
    163 H163        4.0720  -17.3454  -44.5223 H         1 UNK         0.0600 
    164 H164        1.5039  -16.1868  -42.2662 H         1 UNK         0.3000 
    165 H165       -1.1847  -17.6045  -40.3855 H         1 UNK         0.0600 
    166 H166       -0.1398  -16.2568  -38.5869 H         1 UNK         0.0600 
    167 H167        0.7933  -17.7190  -38.8621 H         1 UNK         0.0600 
    168 H168        1.3776  -16.1796  -39.4829 H         1 UNK         0.0600 
    169 H169       -0.3101  -14.9119  -40.7872 H         1 UNK         0.3000 
    170 H170       -2.0185  -14.2715  -43.8258 H         1 UNK         0.0600 
    171 H171       -3.8716  -14.1473  -42.1523 H         1 UNK         0.0600 
    172 H172       -2.7851  -13.3967  -40.9891 H         1 UNK         0.0600 
    173 H173       -3.2013  -12.5584  -42.4845 H         1 UNK         0.0600 
    174 H174       -0.7214  -12.4843  -42.0868 H         1 UNK         0.3000 
    175 H175        1.4152  -11.9706  -42.0249 H         1 UNK         0.0600 
    176 H176        3.4060  -13.7930  -43.4641 H         1 UNK         0.0600 
    177 H177        3.7858  -12.5344  -42.2965 H         1 UNK         0.0600 
    178 H178        2.9055  -13.9672  -41.7866 H         1 UNK         0.0600 
    179 H179        2.6628  -11.8464  -44.6526 H         1 UNK         0.3000 
    180 H180        0.6572   -9.0338  -45.6912 H         1 UNK         0.0600 
    181 H181        3.6017   -9.3255  -44.8916 H         1 UNK         0.0600 
    182 H182        2.4720   -8.1461  -44.2332 H         1 UNK         0.0600 
    183 H183        2.9294   -8.0681  -45.9280 H         1 UNK         0.0600 
    184 H184        2.5964  -11.1727  -46.5006 H         1 UNK         0.3000 
    185 H185        0.9284  -11.6270  -49.5468 H         1 UNK         0.0600 
    186 H186        2.3434   -9.7159  -50.3125 H         1 UNK         0.0600 
    187 H187        3.6876  -10.3020  -49.3402 H         1 UNK         0.0600 
    188 H188        3.0967  -11.2533  -50.7038 H         1 UNK         0.0600 
    189 H189        3.4340  -12.5968  -48.5053 H         1 UNK         0.3000 
    190 H190       -1.4405  -21.5429  -46.9866 H         1 UNK         0.3000 
    191 H191       -2.6330  -23.0722  -49.0350 H         1 UNK         0.0600 
    192 H192       -3.8812  -21.8279  -46.5303 H         1 UNK         0.0600 
    193 H193       -4.7729  -22.3885  -47.9408 H         1 UNK         0.0600 
    194 H194       -3.6618  -21.0359  -48.0903 H         1 UNK         0.0600 
    195 H195       -2.3132  -23.8090  -45.5278 H         1 UNK         0.3000 
    196 H196       -3.7385  -26.2536  -45.5447 H         1 UNK         0.0600 
    197 H197       -1.4310  -25.3454  -43.7454 H         1 UNK         0.0600 
    198 H198       -2.5180  -26.6870  -43.4099 H         1 UNK         0.0600 
    199 H199       -3.1451  -25.0467  -43.4686 H         1 UNK         0.0600 
    200 H200       -0.2819  -25.5889  -46.2184 H         1 UNK         0.3000 
    201 H201        0.4740  -28.3450  -46.5689 H         1 UNK         0.0600 
    202 H202        1.8329  -25.7532  -47.4777 H         1 UNK         0.0600 
    203 H203        2.5743  -27.3490  -47.4738 H         1 UNK         0.0600 
    204 H204        2.1109  -26.5942  -45.9556 H         1 UNK         0.0600 
    205 H205       -0.3928  -25.7141  -48.8578 H         1 UNK         0.3000 
    206 H206        0.0392  -27.2546  -51.2337 H         1 UNK         0.0600 
    207 H207        0.1976  -24.7673  -51.1398 H         1 UNK         0.0600 
    208 H208       -0.9878  -25.2628  -52.3373 H         1 UNK         0.0600 
    209 H209       -1.5237  -24.6539  -50.7765 H         1 UNK         0.0600 
    210 H210       -2.6932  -26.9741  -49.1209 H         1 UNK         0.3000 
    211 H211       -4.6556  -27.9164  -48.9330 H         1 UNK         0.0600 
    212 H212       -4.3036  -29.3970  -51.5915 H         1 UNK         0.0600 
    213 H213       -5.5281  -29.6980  -50.3717 H         1 UNK         0.0600 
    214 H214       -3.8399  -30.0233  -50.0085 H         1 UNK         0.0600 
    215 H215       -3.9086  -26.5074  -52.0585 H         1 UNK         0.3000 
    216 H216       -6.5154  -25.0781  -52.2130 H         1 UNK         0.0600 
    217 H217       -5.5853  -26.0209  -54.3263 H         1 UNK         0.0600 
    218 H218       -5.6256  -24.2706  -54.3919 H         1 UNK         0.0600 
    219 H219       -4.0969  -25.1090  -54.1093 H         1 UNK         0.0600 
    220 H220       -4.1958  -23.0540  -53.4116 H         1 UNK         0.3000 
    221 H221       -2.8699  -22.0189  -51.1590 H         1 UNK         0.0600 
    222 H222       -5.2106  -20.2700  -52.0923 H         1 UNK         0.0600 
    223 H223       -5.1981  -21.1378  -50.5671 H         1 UNK         0.0600 
    224 H224       -4.0332  -19.8775  -50.8427 H         1 UNK         0.0600 
    225 H225       -3.1902  -19.2274  -52.6540 H         1 UNK         0.3000 
    226 H226       -1.6384  -19.8815  -55.1268 H         1 UNK         0.0600 
    227 H227       -0.0180  -19.2962  -53.3779 H         1 UNK         0.0600 
    228 H228       -0.1238  -18.0032  -54.5589 H         1 UNK         0.0600 
    229 H229       -0.9077  -17.8238  -52.9933 H         1 UNK         0.0600 
    230 H230       -4.3870  -17.8195  -56.3450 H         1 UNK         0.3000 
    231 H231       -3.5649  -20.6374  -55.9284 H         1 UNK         0.0600 
    232 H232       -3.9115  -19.8075  -58.2408 H         1 UNK         0.0600 
    233 H233       -5.5607  -19.3293  -57.8389 H         1 UNK         0.0600 
    234 H234       -5.1014  -21.0276  -57.8180 H         1 UNK         0.0600 
    235 H235       -5.8932  -18.3175  -54.8395 H         1 UNK         0.3000 
    236 H236       -7.3906  -20.3846  -53.3263 H         1 UNK         0.0600 
    237 H237       -8.7097  -18.2102  -55.0418 H         1 UNK         0.0600 
    238 H238       -8.7679  -19.9458  -55.3442 H         1 UNK         0.0600 
    239 H239       -9.5488  -19.2769  -53.9198 H         1 UNK         0.0600 
    240 H240       -6.3656  -16.9994  -53.7332 H         1 UNK         0.3000 
    241 H241       -5.9501  -15.3637  -52.3500 H         1 UNK         0.0600 
    242 H242       -9.7103  -15.1259  -51.5588 H         1 UNK         0.3800 
    243 H243       -8.9383  -16.1252  -52.7614 H         1 UNK         0.3800 
    244 H244       -5.3173  -15.7870  -49.9664 H         1 UNK         0.0800 
    245 H245       -5.8975  -17.4283  -50.0956 H         1 UNK         0.0800 
    246 H246       -3.4230  -18.0795  -49.1417 H         1 UNK         0.0800 
    247 H247       -2.9826  -16.3857  -49.1823 H         1 UNK         0.0800 
@<TRIPOS>BOND
     1    1    2 1    
     2    1  127 1    
     3    1  128 1    
     4    1  129 1    
     5    2    3 2    
     6    2    4 am   BACKBONE|DICT|INTERRES
     7    4    5 1    
     8    4  130 1    
     9    5    6 1    
    10    5   65 1    
    11    5  131 1    
    12    6    7 1    
    13    6  132 1    
    14    6  133 1    
    15    7    8 1    
    16    8    9 1    
    17    8  134 1    
    18    8  135 1    
    19    9   10 ar   
    20    9   14 ar   
    21   10   11 ar   
    22   10  136 1    
    23   11   12 ar   
    24   11  126 1    
    25   12   13 ar   
    26   12  137 1    
    27   13   14 ar   
    28   13   15 1    
    29   14  138 1    
    30   15   16 1    
    31   15  139 1    
    32   15  140 1    
    33   16   17 1    
    34   17   18 1    
    35   17  141 1    
    36   17  142 1    
    37   18   19 1    
    38   18   67 1    
    39   18  143 1    
    40   19   20 am   BACKBONE|DICT|INTERRES
    41   19  144 1    
    42   20   21 2    
    43   20   22 1    
    44   22   23 1    
    45   22   24 1    
    46   22  145 1    
    47   23  146 1    
    48   23  147 1    
    49   23  148 1    
    50   24   25 am   BACKBONE|DICT|INTERRES
    51   24  149 1    
    52   25   26 2    
    53   25   27 1    
    54   27   28 1    
    55   27   29 1    
    56   27  150 1    
    57   28  151 1    
    58   28  152 1    
    59   28  153 1    
    60   29   30 am   BACKBONE|DICT|INTERRES
    61   29  154 1    
    62   30   31 2    
    63   30   32 1    
    64   32   33 1    
    65   32   34 1    
    66   32  155 1    
    67   33  156 1    
    68   33  157 1    
    69   33  158 1    
    70   34   35 am   BACKBONE|DICT|INTERRES
    71   34  159 1    
    72   35   36 2    
    73   35   37 1    
    74   37   38 1    
    75   37   39 1    
    76   37  160 1    
    77   38  161 1    
    78   38  162 1    
    79   38  163 1    
    80   39   40 am   BACKBONE|DICT|INTERRES
    81   39  164 1    
    82   40   41 2    
    83   40   42 1    
    84   42   43 1    
    85   42   44 1    
    86   42  165 1    
    87   43  166 1    
    88   43  167 1    
    89   43  168 1    
    90   44   45 am   BACKBONE|DICT|INTERRES
    91   44  169 1    
    92   45   46 2    
    93   45   47 1    
    94   47   48 1    
    95   47   49 1    
    96   47  170 1    
    97   48  171 1    
    98   48  172 1    
    99   48  173 1    
   100   49   50 am   BACKBONE|DICT|INTERRES
   101   49  174 1    
   102   50   51 2    
   103   50   52 1    
   104   52   53 1    
   105   52   54 1    
   106   52  175 1    
   107   53  176 1    
   108   53  177 1    
   109   53  178 1    
   110   54   55 am   BACKBONE|DICT|INTERRES
   111   54  179 1    
   112   55   56 2    
   113   55   57 1    
   114   57   58 1    
   115   57   59 1    
   116   57  180 1    
   117   58  181 1    
   118   58  182 1    
   119   58  183 1    
   120   59   60 am   BACKBONE|DICT|INTERRES
   121   59  184 1    
   122   60   61 2    
   123   60   62 1    
   124   62   63 1    
   125   62   64 1    
   126   62  185 1    
   127   63  186 1    
   128   63  187 1    
   129   63  188 1    
   130   64   65 am   BACKBONE|DICT|INTERRES
   131   64  189 1    
   132   65   66 2    
   133   67   68 2    
   134   67   69 am   BACKBONE|DICT|INTERRES
   135   69   70 1    
   136   69  190 1    
   137   70   71 1    
   138   70   72 1    
   139   70  191 1    
   140   71  192 1    
   141   71  193 1    
   142   71  194 1    
   143   72   73 2    
   144   72   74 am   BACKBONE|DICT|INTERRES
   145   74   75 1    
   146   74  195 1    
   147   75   76 1    
   148   75   77 1    
   149   75  196 1    
   150   76  197 1    
   151   76  198 1    
   152   76  199 1    
   153   77   78 2    
   154   77   79 am   BACKBONE|DICT|INTERRES
   155   79   80 1    
   156   79  200 1    
   157   80   81 1    
   158   80   82 1    
   159   80  201 1    
   160   81  202 1    
   161   81  203 1    
   162   81  204 1    
   163   82   83 2    
   164   82   84 am   BACKBONE|DICT|INTERRES
   165   84   85 1    
   166   84  205 1    
   167   85   86 1    
   168   85   87 1    
   169   85  206 1    
   170   86  207 1    
   171   86  208 1    
   172   86  209 1    
   173   87   88 2    
   174   87   89 am   BACKBONE|DICT|INTERRES
   175   89   90 1    
   176   89  210 1    
   177   90   91 1    
   178   90   92 1    
   179   90  211 1    
   180   91  212 1    
   181   91  213 1    
   182   91  214 1    
   183   92   93 2    
   184   92   94 am   BACKBONE|DICT|INTERRES
   185   94   95 1    
   186   94  215 1    
   187   95   96 1    
   188   95   97 1    
   189   95  216 1    
   190   96  217 1    
   191   96  218 1    
   192   96  219 1    
   193   97   98 2    
   194   97   99 am   BACKBONE|DICT|INTERRES
   195   99  100 1    
   196   99  220 1    
   197  100  101 1    
   198  100  102 1    
   199  100  221 1    
   200  101  222 1    
   201  101  223 1    
   202  101  224 1    
   203  102  103 2    
   204  102  104 am   BACKBONE|DICT|INTERRES
   205  104  105 1    
   206  104  225 1    
   207  105  106 1    
   208  105  107 1    
   209  105  226 1    
   210  106  227 1    
   211  106  228 1    
   212  106  229 1    
   213  107  108 2    
   214  107  109 am   BACKBONE|DICT|INTERRES
   215  109  110 1    
   216  109  230 1    
   217  110  111 1    
   218  110  112 1    
   219  110  231 1    
   220  111  232 1    
   221  111  233 1    
   222  111  234 1    
   223  112  113 2    
   224  112  114 am   BACKBONE|DICT|INTERRES
   225  114  115 1    
   226  114  235 1    
   227  115  116 1    
   228  115  117 1    
   229  115  236 1    
   230  116  237 1    
   231  116  238 1    
   232  116  239 1    
   233  117  118 2    
   234  117  119 am   BACKBONE|DICT|INTERRES
   235  119  120 1    
   236  119  240 1    
   237  120  121 1    
   238  120  124 1    
   239  120  241 1    
   240  121  122 am   BACKBONE|DICT|INTERRES
   241  121  123 2    
   242  122  242 1    
   243  122  243 1    
   244  124  125 1    
   245  124  244 1    
   246  124  245 1    
   247  125  126 1    
   248  126  246 1    
   249  126  247 1    
@<TRIPOS>SUBSTRUCTURE
     1 UNK         1 GROUP             0       ****    0 ROOT    
