@<TRIPOS>MOLECULE
3R540
247   249    1
SMALL
USER_CHARGES


@<TRIPOS>ATOM
      1 CA          3.8837  -15.0741  -44.8637 C.3       0 UNK        -0.1800 
      2 C           3.1131  -13.7670  -44.9680 C.2       0 UNK         0.5000 
      3 O           3.0377  -13.0229  -43.9897 O.2       0 UNK        -0.5000 
      4 N           2.5389  -13.4859  -46.1463 N.am      1 UNK        -0.5000 
      5 CA          1.6569  -12.3392  -46.4152 C.3       1 UNK         0.1400 
      6 C6          0.9995  -12.4096  -47.8159 C.3       23 UNK        -0.0398 
      7 S7         -0.0021  -13.9165  -48.0387 S.3       23 UNK        -0.2404 
      8 C8          0.6902  -14.5972  -49.5761 C.3       23 UNK        -0.0205 
      9 C9          0.1313  -15.9838  -49.8505 C.ar      23 UNK        -0.0193 
     10 C10        -1.1389  -16.1352  -50.4156 C.ar      23 UNK        -0.1150 
     11 C11        -1.6673  -17.4097  -50.6423 C.ar      23 UNK        -0.0193 
     12 C12        -0.9126  -18.5371  -50.3046 C.ar      23 UNK        -0.1150 
     13 C13         0.3617  -18.3980  -49.7466 C.ar      23 UNK        -0.0193 
     14 C14         0.8796  -17.1186  -49.5261 C.ar      23 UNK        -0.1150 
     15 C15         1.1764  -19.6275  -49.3769 C.3       23 UNK        -0.0205 
     16 S16         1.3678  -19.7677  -47.5731 S.3       23 UNK        -0.2404 
     17 C17         1.7215  -21.5462  -47.3748 C.3       23 UNK        -0.0398 
     18 CA          0.5264  -22.3990  -46.8772 C.3       11 UNK         0.1400 
     19 N           0.1420  -22.1203  -45.4890 N.am      11 UNK        -0.5000 
     20 C          -0.6037  -22.9584  -44.7518 C.2       10 UNK         0.5000 
     21 O          -1.0293  -24.0355  -45.1707 O.2       10 UNK        -0.5000 
     22 CA         -0.9739  -22.5106  -43.3267 C.3       10 UNK         0.1400 
     23 CB          0.2281  -22.6312  -42.3784 C.3       10 UNK        -0.1800 
     24 N          -1.5104  -21.1515  -43.2791 N.am      10 UNK        -0.5000 
     25 C          -2.6422  -20.7591  -43.8817 C.2       9 UNK         0.5000 
     26 O          -3.3585  -21.5022  -44.5518 O.2       9 UNK        -0.5000 
     27 CA         -3.0153  -19.2748  -43.7430 C.3       9 UNK         0.1400 
     28 CB         -3.7333  -19.0061  -42.4119 C.3       9 UNK        -0.1800 
     29 N          -1.8383  -18.4163  -43.8543 N.am      9 UNK        -0.5000 
     30 C          -1.1815  -18.2023  -45.0028 C.2       8 UNK         0.5000 
     31 O          -1.5362  -18.6651  -46.0848 O.2       8 UNK        -0.5000 
     32 CA          0.0962  -17.3507  -44.9168 C.3       8 UNK         0.1400 
     33 CB         -0.2745  -15.8614  -44.9042 C.3       8 UNK        -0.1800 
     34 N           0.9077  -17.6656  -43.7387 N.am      8 UNK        -0.5000 
     35 C           1.4811  -18.8578  -43.5005 C.2       7 UNK         0.5000 
     36 O           1.4214  -19.8152  -44.2701 O.2       7 UNK        -0.5000 
     37 CA          2.1990  -19.0408  -42.1485 C.3       7 UNK         0.1400 
     38 CB          3.6855  -18.6769  -42.2782 C.3       7 UNK        -0.1800 
     39 N           1.6098  -18.2580  -41.0639 N.am      7 UNK        -0.5000 
     40 C           0.3313  -18.3092  -40.6626 C.2       6 UNK         0.5000 
     41 O          -0.4878  -19.1192  -41.0992 O.2       6 UNK        -0.5000 
     42 CA         -0.1191  -17.2336  -39.6516 C.3       6 UNK         0.1400 
     43 CB         -0.2197  -17.8327  -38.2412 C.3       6 UNK        -0.1800 
     44 N           0.7540  -16.0515  -39.6112 N.am      6 UNK        -0.5000 
     45 C           0.9779  -15.2187  -40.6382 C.2       5 UNK         0.5000 
     46 O           0.4634  -15.3526  -41.7506 O.2       5 UNK        -0.5000 
     47 CA          2.0252  -14.1195  -40.4015 C.3       5 UNK         0.1400 
     48 CB          3.4379  -14.6716  -40.6523 C.3       5 UNK        -0.1800 
     49 N           1.8172  -12.9755  -41.2826 N.am      5 UNK        -0.5000 
     50 C           0.9195  -12.0020  -41.0843 C.2       4 UNK         0.5000 
     51 O           0.1409  -11.9752  -40.1290 O.2       4 UNK        -0.5000 
     52 CA          0.9325  -10.8548  -42.1195 C.3       4 UNK         0.1400 
     53 CB          0.1885   -9.5895  -41.6450 C.3       4 UNK        -0.1800 
     54 N           2.2946  -10.5366  -42.5630 N.am      4 UNK        -0.5000 
     55 C           3.3239  -10.1083  -41.8149 C.2       3 UNK         0.5000 
     56 O           3.2213   -9.7457  -40.6425 O.2       3 UNK        -0.5000 
     57 CA          4.7179  -10.1303  -42.4721 C.3       3 UNK         0.1400 
     58 CB          5.5585  -11.2771  -41.8871 C.3       3 UNK        -0.1800 
     59 N           4.6467  -10.3115  -43.9226 N.am      3 UNK        -0.5000 
     60 C           4.6650   -9.3185  -44.8210 C.2       2 UNK         0.5000 
     61 O           4.7946   -8.1294  -44.5282 O.2       2 UNK        -0.5000 
     62 CA          4.4970   -9.7228  -46.2992 C.3       2 UNK         0.1400 
     63 CB          5.8677   -9.9623  -46.9503 C.3       2 UNK        -0.1800 
     64 N           3.6665  -10.9167  -46.4793 N.am      2 UNK        -0.5000 
     65 C           2.3504  -10.9739  -46.2291 C.2       1 UNK         0.5000 
     66 O           1.6890  -10.0121  -45.8384 O.2       1 UNK        -0.5000 
     67 C          -0.6797  -22.3562  -47.8396 C.2       11 UNK         0.5000 
     68 O          -0.6950  -23.1132  -48.8098 O.2       11 UNK        -0.5000 
     69 N          -1.6730  -21.4996  -47.5508 N.am      12 UNK        -0.5000 
     70 CA         -2.9139  -21.4144  -48.3154 C.3       12 UNK         0.1400 
     71 CB         -3.6883  -20.1382  -47.9604 C.3       12 UNK        -0.1800 
     72 C          -3.7919  -22.6654  -48.1447 C.2       12 UNK         0.5000 
     73 O          -4.2742  -23.2101  -49.1399 O.2       12 UNK        -0.5000 
     74 N          -3.9427  -23.1220  -46.8922 N.am      13 UNK        -0.5000 
     75 CA         -4.6465  -24.3537  -46.5298 C.3       13 UNK         0.1400 
     76 CB         -4.7284  -24.4694  -45.0007 C.3       13 UNK        -0.1800 
     77 C          -3.9960  -25.6096  -47.1369 C.2       13 UNK         0.5000 
     78 O          -4.7088  -26.5168  -47.5666 O.2       13 UNK        -0.5000 
     79 N          -2.6600  -25.6108  -47.2328 N.am      14 UNK        -0.5000 
     80 CA         -1.8449  -26.6237  -47.9064 C.3       14 UNK         0.1400 
     81 CB         -0.4214  -26.5762  -47.3227 C.3       14 UNK        -0.1800 
     82 C          -1.8602  -26.4892  -49.4494 C.2       14 UNK         0.5000 
     83 O          -0.8123  -26.6191  -50.0843 O.2       14 UNK        -0.5000 
     84 N          -3.0525  -26.2592  -50.0204 N.am      15 UNK        -0.5000 
     85 CA         -3.3678  -26.1435  -51.4464 C.3       15 UNK         0.1400 
     86 CB         -3.1968  -27.5095  -52.1420 C.3       15 UNK        -0.1800 
     87 C          -2.5902  -25.0069  -52.1419 C.2       15 UNK         0.5000 
     88 O          -1.7667  -25.2752  -53.0194 O.2       15 UNK        -0.5000 
     89 N          -2.8986  -23.7689  -51.7226 N.am      16 UNK        -0.5000 
     90 CA         -2.3187  -22.4694  -52.0967 C.3       16 UNK         0.1400 
     91 CB         -3.4142  -21.3917  -51.9975 C.3       16 UNK        -0.1800 
     92 C          -1.6396  -22.3675  -53.4770 C.2       16 UNK         0.5000 
     93 O          -0.4598  -22.0220  -53.5493 O.2       16 UNK        -0.5000 
     94 N          -2.4002  -22.6669  -54.5359 N.am      17 UNK        -0.5000 
     95 CA         -1.9490  -22.6560  -55.9270 C.3       17 UNK         0.1400 
     96 CB         -2.4847  -21.3884  -56.6179 C.3       17 UNK        -0.1800 
     97 C          -2.3903  -23.9568  -56.6195 C.2       17 UNK         0.5000 
     98 O          -3.0017  -23.9119  -57.6870 O.2       17 UNK        -0.5000 
     99 N          -2.1340  -25.0917  -55.9489 N.am      18 UNK        -0.5000 
    100 CA        -2.5991  -26.4592  -56.2468 C.3       18 UNK         0.1400 
    101 CB        -2.2565  -26.9000  -57.6843 C.3       18 UNK        -0.1800 
    102 C         -4.0874  -26.6882  -55.8998 C.2       18 UNK         0.5000 
    103 O         -4.5720  -27.8178  -55.9708 O.2       18 UNK        -0.5000 
    104 N         -4.7579  -25.6213  -55.4649 N.am      19 UNK        -0.5000 
    105 CA        -6.0553  -25.5597  -54.8198 C.3       19 UNK         0.1400 
    106 CB        -7.1537  -25.3386  -55.8709 C.3       19 UNK        -0.1800 
    107 C         -5.9711  -24.3785  -53.8433 C.2       19 UNK         0.5000 
    108 O         -5.1846  -23.4529  -54.0745 O.2       19 UNK        -0.5000 
    109 N         -6.7728  -24.4183  -52.7735 N.am      20 UNK        -0.5000 
    110 CA        -6.7750  -23.4246  -51.6914 C.3       20 UNK         0.1400 
    111 CB        -7.5227  -24.0085  -50.4827 C.3       20 UNK        -0.1800 
    112 C         -7.3407  -22.0413  -52.0827 C.2       20 UNK         0.5000 
    113 O         -7.2577  -21.1078  -51.2846 O.2       20 UNK        -0.5000 
    114 N         -7.8942  -21.9260  -53.2982 N.am      21 UNK        -0.5000 
    115 CA        -8.4291  -20.6949  -53.8845 C.3       21 UNK         0.1400 
    116 CB        -9.1685  -21.0521  -55.1834 C.3       21 UNK        -0.1800 
    117 C         -7.3672  -19.6070  -54.1527 C.2       21 UNK         0.5000 
    118 O         -7.7279  -18.4322  -54.2398 O.2       21 UNK        -0.5000 
    119 N         -6.0914  -20.0065  -54.2611 N.am      22 UNK        -0.5000 
    120 CA        -4.9332  -19.1352  -54.5237 C.3       22 UNK         0.1400 
    121 C         -4.8913  -18.5743  -55.9796 C.2       22 UNK         0.5000 
    122 N         -3.9933  -17.6437  -56.2728 N.am      22 UNK        -0.7600 
    123 O         -5.6328  -19.0001  -56.8629 O.2       22 UNK        -0.5000 
    124 C124       -4.7578  -18.0399  -53.4254 C.3       23 UNK        -0.0398 
    125 S125       -3.0097  -17.6652  -53.0490 S.3       23 UNK        -0.2404 
    126 C126       -3.0600  -17.5706  -51.2309 C.3       23 UNK        -0.0205 
    127 H127        4.8861  -14.8902  -44.4775 H         1 UNK         0.0600 
    128 H128        3.3715  -15.7517  -44.1811 H         1 UNK         0.0600 
    129 H129        3.9747  -15.5695  -45.8305 H         1 UNK         0.0600 
    130 H130        2.6328  -14.1434  -46.9067 H         1 UNK         0.3000 
    131 H131        0.8571  -12.3815  -45.6723 H         1 UNK         0.0600 
    132 H132        1.7583  -12.3486  -48.5981 H         1 UNK         0.0800 
    133 H133        0.3364  -11.5560  -47.9700 H         1 UNK         0.0800 
    134 H134        1.7782  -14.6375  -49.5039 H         1 UNK         0.0800 
    135 H135        0.4569  -13.9307  -50.4079 H         1 UNK         0.0800 
    136 H136       -1.7211  -15.2595  -50.6662 H         1 UNK         0.1150 
    137 H137       -1.3196  -19.5234  -50.4733 H         1 UNK         0.1150 
    138 H138        1.8601  -17.0101  -49.0841 H         1 UNK         0.1150 
    139 H139        0.6991  -20.5261  -49.7705 H         1 UNK         0.0800 
    140 H140        2.1613  -19.5700  -49.8423 H         1 UNK         0.0800 
    141 H141        2.0987  -21.9459  -48.3175 H         1 UNK         0.0800 
    142 H142        2.5486  -21.6407  -46.6700 H         1 UNK         0.0800 
    143 H143        0.8798  -23.4323  -46.8906 H         1 UNK         0.0600 
    144 H144        0.4761  -21.2469  -45.0865 H         1 UNK         0.3000 
    145 H145       -1.7556  -23.1806  -42.9626 H         1 UNK         0.0600 
    146 H146       -0.0300  -22.3144  -41.3676 H         1 UNK         0.0600 
    147 H147        0.5715  -23.6647  -42.3191 H         1 UNK         0.0600 
    148 H148        1.0707  -22.0287  -42.7152 H         1 UNK         0.0600 
    149 H149       -0.9952  -20.4716  -42.7327 H         1 UNK         0.3000 
    150 H150       -3.7034  -19.0240  -44.5532 H         1 UNK         0.0600 
    151 H151       -4.6412  -19.6056  -42.3341 H         1 UNK         0.0600 
    152 H152       -4.0266  -17.9597  -42.3264 H         1 UNK         0.0600 
    153 H153       -3.1070  -19.2504  -41.5538 H         1 UNK         0.0600 
    154 H154       -1.4543  -18.0505  -42.9946 H         1 UNK         0.3000 
    155 H155        0.6984  -17.5440  -45.8056 H         1 UNK         0.0600 
    156 H156        0.6116  -15.2304  -44.8958 H         1 UNK         0.0600 
    157 H157       -0.8791  -15.6012  -44.0351 H         1 UNK         0.0600 
    158 H158       -0.8549  -15.6018  -45.7895 H         1 UNK         0.0600 
    159 H159        0.9629  -16.9420  -43.0305 H         1 UNK         0.3000 
    160 H160        2.1259  -20.0933  -41.8710 H         1 UNK         0.0600 
    161 H161        3.8232  -17.6207  -42.5123 H         1 UNK         0.0600 
    162 H162        4.1608  -19.2541  -43.0727 H         1 UNK         0.0600 
    163 H163        4.2263  -18.8899  -41.3559 H         1 UNK         0.0600 
    164 H164        2.2052  -17.5650  -40.6373 H         1 UNK         0.3000 
    165 H165       -1.1139  -16.9025  -39.9562 H         1 UNK         0.0600 
    166 H166        0.7530  -18.1617  -37.8733 H         1 UNK         0.0600 
    167 H167       -0.6211  -17.1086  -37.5320 H         1 UNK         0.0600 
    168 H168       -0.8844  -18.6978  -38.2305 H         1 UNK         0.0600 
    169 H169        1.2290  -15.8820  -38.7359 H         1 UNK         0.3000 
    170 H170        1.9575  -13.7850  -39.3641 H         1 UNK         0.0600 
    171 H171        3.6517  -15.5234  -40.0057 H         1 UNK         0.0600 
    172 H172        3.5643  -15.0007  -41.6846 H         1 UNK         0.0600 
    173 H173        4.1960  -13.9154  -40.4483 H         1 UNK         0.0600 
    174 H174        2.3616  -12.9588  -42.1398 H         1 UNK         0.3000 
    175 H175        0.4092  -11.2345  -42.9983 H         1 UNK         0.0600 
    176 H176        0.2250   -8.8054  -42.4013 H         1 UNK         0.0600 
    177 H177       -0.8629   -9.8056  -41.4525 H         1 UNK         0.0600 
    178 H178        0.6122   -9.1884  -40.7240 H         1 UNK         0.0600 
    179 H179        2.5138  -10.8358  -43.5029 H         1 UNK         0.3000 
    180 H180        5.2125   -9.1867  -42.2326 H         1 UNK         0.0600 
    181 H181        6.5689  -11.2726  -42.2964 H         1 UNK         0.0600 
    182 H182        5.6472  -11.1877  -40.8036 H         1 UNK         0.0600 
    183 H183        5.1147  -12.2501  -42.1016 H         1 UNK         0.0600 
    184 H184        4.5104  -11.2595  -44.2480 H         1 UNK         0.3000 
    185 H185        4.0137   -8.8911  -46.8163 H         1 UNK         0.0600 
    186 H186        5.7673  -10.1751  -48.0147 H         1 UNK         0.0600 
    187 H187        6.5044   -9.0817  -46.8549 H         1 UNK         0.0600 
    188 H188        6.3931  -10.7989  -46.4877 H         1 UNK         0.0600 
    189 H189        4.1341  -11.7563  -46.7894 H         1 UNK         0.3000 
    190 H190       -1.5687  -20.8630  -46.7702 H         1 UNK         0.3000 
    191 H191       -2.6231  -21.3430  -49.3601 H         1 UNK         0.0600 
    192 H192       -4.6165  -20.0742  -48.5297 H         1 UNK         0.0600 
    193 H193       -3.1047  -19.2477  -48.1940 H         1 UNK         0.0600 
    194 H194       -3.9469  -20.1029  -46.9021 H         1 UNK         0.0600 
    195 H195       -3.5456  -22.5883  -46.1231 H         1 UNK         0.3000 
    196 H196       -5.6624  -24.2837  -46.9238 H         1 UNK         0.0600 
    197 H197       -5.2562  -25.3766  -44.7039 H         1 UNK         0.0600 
    198 H198       -5.2665  -23.6245  -44.5706 H         1 UNK         0.0600 
    199 H199       -3.7375  -24.5002  -44.5461 H         1 UNK         0.0600 
    200 H200       -2.1544  -24.8308  -46.8288 H         1 UNK         0.3000 
    201 H201       -2.2604  -27.6063  -47.6741 H         1 UNK         0.0600 
    202 H202       -0.4346  -26.6888  -46.2384 H         1 UNK         0.0600 
    203 H203        0.0731  -25.6331  -47.5555 H         1 UNK         0.0600 
    204 H204        0.1963  -27.3807  -47.7234 H         1 UNK         0.0600 
    205 H205       -3.8425  -26.1792  -49.3899 H         1 UNK         0.3000 
    206 H206       -4.4249  -25.8806  -51.5046 H         1 UNK         0.0600 
    207 H207       -3.7900  -28.2794  -51.6488 H         1 UNK         0.0600 
    208 H208       -3.5276  -27.4633  -53.1782 H         1 UNK         0.0600 
    209 H209       -2.1574  -27.8393  -52.1454 H         1 UNK         0.0600 
    210 H210       -3.5407  -23.7128  -50.9384 H         1 UNK         0.3000 
    211 H211       -1.5572  -22.2528  -51.3459 H         1 UNK         0.0600 
    212 H212       -4.1605  -21.4995  -52.7806 H         1 UNK         0.0600 
    213 H213       -2.9781  -20.4007  -52.0996 H         1 UNK         0.0600 
    214 H214       -3.9586  -21.4176  -51.0574 H         1 UNK         0.0600 
    215 H215       -3.3637  -22.9466  -54.3708 H         1 UNK         0.3000 
    216 H216       -0.8585  -22.6375  -55.9764 H         1 UNK         0.0600 
    217 H217       -2.1437  -21.3303  -57.6521 H         1 UNK         0.0600 
    218 H218       -2.1371  -20.4875  -56.1120 H         1 UNK         0.0600 
    219 H219       -3.5752  -21.3687  -56.6279 H         1 UNK         0.0600 
    220 H220       -1.6919  -24.9994  -55.0376 H         1 UNK         0.3000 
    221 H221       -2.0371  -27.1043  -55.5698 H         1 UNK         0.0600 
    222 H222       -2.8669  -26.3871  -58.4276 H         1 UNK         0.0600 
    223 H223       -1.2087  -26.7114  -57.9175 H         1 UNK         0.0600 
    224 H224       -2.4299  -27.9691  -57.8111 H         1 UNK         0.0600 
    225 H225       -4.2634  -24.7403  -55.4332 H         1 UNK         0.3000 
    226 H226       -6.2388  -26.4807  -54.2628 H         1 UNK         0.0600 
    227 H227       -8.1382  -25.2861  -55.4047 H         1 UNK         0.0600 
    228 H228       -6.9999  -24.4114  -56.4249 H         1 UNK         0.0600 
    229 H229       -7.1781  -26.1567  -56.5910 H         1 UNK         0.0600 
    230 H230       -7.4102  -25.1948  -52.6650 H         1 UNK         0.3000 
    231 H231       -5.7397  -23.2588  -51.3918 H         1 UNK         0.0600 
    232 H232       -7.5004  -23.3187  -49.6379 H         1 UNK         0.0600 
    233 H233       -7.0623  -24.9380  -50.1467 H         1 UNK         0.0600 
    234 H234       -8.5684  -24.2122  -50.7159 H         1 UNK         0.0600 
    235 H235       -7.9192  -22.7487  -53.8811 H         1 UNK         0.3000 
    236 H236       -9.1525  -20.2770  -53.1814 H         1 UNK         0.0600 
    237 H237       -8.4961  -21.4962  -55.9187 H         1 UNK         0.0600 
    238 H238       -9.9780  -21.7580  -54.9969 H         1 UNK         0.0600 
    239 H239       -9.6113  -20.1649  -55.6381 H         1 UNK         0.0600 
    240 H240       -5.9007  -20.9978  -54.2161 H         1 UNK         0.3000 
    241 H241       -4.0807  -19.8119  -54.4684 H         1 UNK         0.0600 
    242 H242       -3.9438  -17.2836  -57.2130 H         1 UNK         0.3800 
    243 H243       -3.3618  -17.2923  -55.5680 H         1 UNK         0.3800 
    244 H244       -5.2313  -18.3722  -52.5005 H         1 UNK         0.0800 
    245 H245       -5.2747  -17.1179  -53.6977 H         1 UNK         0.0800 
    246 H246       -3.6914  -16.7323  -50.9322 H         1 UNK         0.0800 
    247 H247       -3.5295  -18.4663  -50.8219 H         1 UNK         0.0800 
@<TRIPOS>BOND
     1    1    2 1    
     2    1  127 1    
     3    1  128 1    
     4    1  129 1    
     5    2    3 2    
     6    2    4 am   BACKBONE|DICT|INTERRES
     7    4    5 1    
     8    4  130 1    
     9    5    6 1    
    10    5   65 1    
    11    5  131 1    
    12    6    7 1    
    13    6  132 1    
    14    6  133 1    
    15    7    8 1    
    16    8    9 1    
    17    8  134 1    
    18    8  135 1    
    19    9   10 ar   
    20    9   14 ar   
    21   10   11 ar   
    22   10  136 1    
    23   11   12 ar   
    24   11  126 1    
    25   12   13 ar   
    26   12  137 1    
    27   13   14 ar   
    28   13   15 1    
    29   14  138 1    
    30   15   16 1    
    31   15  139 1    
    32   15  140 1    
    33   16   17 1    
    34   17   18 1    
    35   17  141 1    
    36   17  142 1    
    37   18   19 1    
    38   18   67 1    
    39   18  143 1    
    40   19   20 am   BACKBONE|DICT|INTERRES
    41   19  144 1    
    42   20   21 2    
    43   20   22 1    
    44   22   23 1    
    45   22   24 1    
    46   22  145 1    
    47   23  146 1    
    48   23  147 1    
    49   23  148 1    
    50   24   25 am   BACKBONE|DICT|INTERRES
    51   24  149 1    
    52   25   26 2    
    53   25   27 1    
    54   27   28 1    
    55   27   29 1    
    56   27  150 1    
    57   28  151 1    
    58   28  152 1    
    59   28  153 1    
    60   29   30 am   BACKBONE|DICT|INTERRES
    61   29  154 1    
    62   30   31 2    
    63   30   32 1    
    64   32   33 1    
    65   32   34 1    
    66   32  155 1    
    67   33  156 1    
    68   33  157 1    
    69   33  158 1    
    70   34   35 am   BACKBONE|DICT|INTERRES
    71   34  159 1    
    72   35   36 2    
    73   35   37 1    
    74   37   38 1    
    75   37   39 1    
    76   37  160 1    
    77   38  161 1    
    78   38  162 1    
    79   38  163 1    
    80   39   40 am   BACKBONE|DICT|INTERRES
    81   39  164 1    
    82   40   41 2    
    83   40   42 1    
    84   42   43 1    
    85   42   44 1    
    86   42  165 1    
    87   43  166 1    
    88   43  167 1    
    89   43  168 1    
    90   44   45 am   BACKBONE|DICT|INTERRES
    91   44  169 1    
    92   45   46 2    
    93   45   47 1    
    94   47   48 1    
    95   47   49 1    
    96   47  170 1    
    97   48  171 1    
    98   48  172 1    
    99   48  173 1    
   100   49   50 am   BACKBONE|DICT|INTERRES
   101   49  174 1    
   102   50   51 2    
   103   50   52 1    
   104   52   53 1    
   105   52   54 1    
   106   52  175 1    
   107   53  176 1    
   108   53  177 1    
   109   53  178 1    
   110   54   55 am   BACKBONE|DICT|INTERRES
   111   54  179 1    
   112   55   56 2    
   113   55   57 1    
   114   57   58 1    
   115   57   59 1    
   116   57  180 1    
   117   58  181 1    
   118   58  182 1    
   119   58  183 1    
   120   59   60 am   BACKBONE|DICT|INTERRES
   121   59  184 1    
   122   60   61 2    
   123   60   62 1    
   124   62   63 1    
   125   62   64 1    
   126   62  185 1    
   127   63  186 1    
   128   63  187 1    
   129   63  188 1    
   130   64   65 am   BACKBONE|DICT|INTERRES
   131   64  189 1    
   132   65   66 2    
   133   67   68 2    
   134   67   69 am   BACKBONE|DICT|INTERRES
   135   69   70 1    
   136   69  190 1    
   137   70   71 1    
   138   70   72 1    
   139   70  191 1    
   140   71  192 1    
   141   71  193 1    
   142   71  194 1    
   143   72   73 2    
   144   72   74 am   BACKBONE|DICT|INTERRES
   145   74   75 1    
   146   74  195 1    
   147   75   76 1    
   148   75   77 1    
   149   75  196 1    
   150   76  197 1    
   151   76  198 1    
   152   76  199 1    
   153   77   78 2    
   154   77   79 am   BACKBONE|DICT|INTERRES
   155   79   80 1    
   156   79  200 1    
   157   80   81 1    
   158   80   82 1    
   159   80  201 1    
   160   81  202 1    
   161   81  203 1    
   162   81  204 1    
   163   82   83 2    
   164   82   84 am   BACKBONE|DICT|INTERRES
   165   84   85 1    
   166   84  205 1    
   167   85   86 1    
   168   85   87 1    
   169   85  206 1    
   170   86  207 1    
   171   86  208 1    
   172   86  209 1    
   173   87   88 2    
   174   87   89 am   BACKBONE|DICT|INTERRES
   175   89   90 1    
   176   89  210 1    
   177   90   91 1    
   178   90   92 1    
   179   90  211 1    
   180   91  212 1    
   181   91  213 1    
   182   91  214 1    
   183   92   93 2    
   184   92   94 am   BACKBONE|DICT|INTERRES
   185   94   95 1    
   186   94  215 1    
   187   95   96 1    
   188   95   97 1    
   189   95  216 1    
   190   96  217 1    
   191   96  218 1    
   192   96  219 1    
   193   97   98 2    
   194   97   99 am   BACKBONE|DICT|INTERRES
   195   99  100 1    
   196   99  220 1    
   197  100  101 1    
   198  100  102 1    
   199  100  221 1    
   200  101  222 1    
   201  101  223 1    
   202  101  224 1    
   203  102  103 2    
   204  102  104 am   BACKBONE|DICT|INTERRES
   205  104  105 1    
   206  104  225 1    
   207  105  106 1    
   208  105  107 1    
   209  105  226 1    
   210  106  227 1    
   211  106  228 1    
   212  106  229 1    
   213  107  108 2    
   214  107  109 am   BACKBONE|DICT|INTERRES
   215  109  110 1    
   216  109  230 1    
   217  110  111 1    
   218  110  112 1    
   219  110  231 1    
   220  111  232 1    
   221  111  233 1    
   222  111  234 1    
   223  112  113 2    
   224  112  114 am   BACKBONE|DICT|INTERRES
   225  114  115 1    
   226  114  235 1    
   227  115  116 1    
   228  115  117 1    
   229  115  236 1    
   230  116  237 1    
   231  116  238 1    
   232  116  239 1    
   233  117  118 2    
   234  117  119 am   BACKBONE|DICT|INTERRES
   235  119  120 1    
   236  119  240 1    
   237  120  121 1    
   238  120  124 1    
   239  120  241 1    
   240  121  122 am   BACKBONE|DICT|INTERRES
   241  121  123 2    
   242  122  242 1    
   243  122  243 1    
   244  124  125 1    
   245  124  244 1    
   246  124  245 1    
   247  125  126 1    
   248  126  246 1    
   249  126  247 1    
@<TRIPOS>SUBSTRUCTURE
     1 UNK         1 GROUP             0       ****    0 ROOT    
