@<TRIPOS>MOLECULE
3R540
247   249    1
SMALL
USER_CHARGES


@<TRIPOS>ATOM
      1 CA          4.7816  -15.6100  -49.0667 C.3       0 UNK        -0.1800 
      2 C           3.2691  -15.7102  -48.9334 C.2       0 UNK         0.5000 
      3 O           2.5534  -15.5077  -49.9126 O.2       0 UNK        -0.5000 
      4 N           2.7832  -16.0085  -47.7198 N.am      1 UNK        -0.5000 
      5 CA          1.3684  -16.1942  -47.3521 C.3       1 UNK         0.1400 
      6 C6          0.6553  -17.2643  -48.2293 C.3       23 UNK        -0.0398 
      7 S7         -0.4433  -18.3827  -47.2957 S.3       23 UNK        -0.2404 
      8 C8         -2.0783  -17.8750  -47.9169 C.3       23 UNK        -0.0205 
      9 C9         -3.1795  -18.8173  -47.4547 C.ar      23 UNK        -0.0193 
     10 C10        -3.8678  -19.6107  -48.3785 C.ar      23 UNK        -0.1150 
     11 C11        -4.8923  -20.4640  -47.9568 C.ar      23 UNK        -0.0193 
     12 C12        -5.2053  -20.5410  -46.5968 C.ar      23 UNK        -0.1150 
     13 C13        -4.5131  -19.7662  -45.6612 C.ar      23 UNK        -0.0193 
     14 C14        -3.5191  -18.8877  -46.1009 C.ar      23 UNK        -0.1150 
     15 C15        -4.8337  -19.8888  -44.1781 C.3       23 UNK        -0.0205 
     16 S16        -4.4391  -21.5465  -43.5281 S.3       23 UNK        -0.2404 
     17 C17        -2.6180  -21.4956  -43.3571 C.3       23 UNK        -0.0398 
     18 CA         -1.8190  -21.7507  -44.6596 C.3       11 UNK         0.1400 
     19 N          -0.3736  -21.6616  -44.4418 N.am      11 UNK        -0.5000 
     20 C           0.5520  -21.7314  -45.4122 C.2       10 UNK         0.5000 
     21 O           0.2695  -21.8444  -46.6068 O.2       10 UNK        -0.5000 
     22 CA          2.0326  -21.6815  -44.9902 C.3       10 UNK         0.1400 
     23 CB          2.8768  -20.8561  -45.9764 C.3       10 UNK        -0.1800 
     24 N           2.1951  -21.1295  -43.6450 N.am      10 UNK        -0.5000 
     25 C           2.5237  -21.8360  -42.5567 C.2       9 UNK         0.5000 
     26 O           2.7287  -23.0502  -42.5637 O.2       9 UNK        -0.5000 
     27 CA          2.6312  -21.0644  -41.2284 C.3       9 UNK         0.1400 
     28 CB          4.0432  -20.4856  -41.0534 C.3       9 UNK        -0.1800 
     29 N           1.6504  -19.9880  -41.0774 N.am      9 UNK        -0.5000 
     30 C           0.3243  -20.1616  -40.9895 C.2       8 UNK         0.5000 
     31 O          -0.2326  -21.2503  -41.1281 O.2       8 UNK        -0.5000 
     32 CA         -0.5199  -18.9077  -40.7117 C.3       8 UNK         0.1400 
     33 CB         -0.3650  -18.4528  -39.2514 C.3       8 UNK        -0.1800 
     34 N          -0.1261  -17.8213  -41.6043 N.am      8 UNK        -0.5000 
     35 C          -0.7619  -17.5101  -42.7414 C.2       7 UNK         0.5000 
     36 O          -1.8190  -18.0297  -43.0934 O.2       7 UNK        -0.5000 
     37 CA         -0.1240  -16.4377  -43.6470 C.3       7 UNK         0.1400 
     38 CB         -0.8413  -15.0928  -43.4588 C.3       7 UNK        -0.1800 
     39 N           1.3167  -16.2482  -43.4464 N.am      7 UNK        -0.5000 
     40 C           2.2539  -17.1871  -43.6297 C.2       6 UNK         0.5000 
     41 O           2.0110  -18.3250  -44.0236 O.2       6 UNK        -0.5000 
     42 CA          3.6978  -16.8130  -43.2491 C.3       6 UNK         0.1400 
     43 CB          4.4007  -16.0976  -44.4122 C.3       6 UNK        -0.1800 
     44 N           3.8025  -16.0031  -42.0297 N.am      6 UNK        -0.5000 
     45 C           3.3299  -16.3548  -40.8242 C.2       5 UNK         0.5000 
     46 O           2.6771  -17.3790  -40.6255 O.2       5 UNK        -0.5000 
     47 CA          3.6095  -15.4145  -39.6361 C.3       5 UNK         0.1400 
     48 CB          4.6271  -16.0640  -38.6862 C.3       5 UNK        -0.1800 
     49 N           4.1168  -14.0967  -40.0320 N.am      5 UNK        -0.5000 
     50 C           3.4156  -13.0410  -40.4701 C.2       4 UNK         0.5000 
     51 O           3.9780  -11.9841  -40.7595 O.2       4 UNK        -0.5000 
     52 CA          1.8734  -13.1233  -40.5848 C.3       4 UNK         0.1400 
     53 CB          1.2080  -12.6588  -39.2799 C.3       4 UNK        -0.1800 
     54 N           1.3708  -12.3015  -41.6859 N.am      4 UNK        -0.5000 
     55 C           1.6085  -12.5484  -42.9785 C.2       3 UNK         0.5000 
     56 O           2.2093  -13.5480  -43.3826 O.2       3 UNK        -0.5000 
     57 CA          1.0796  -11.5162  -43.9814 C.3       3 UNK         0.1400 
     58 CB          1.9270  -10.2309  -43.9526 C.3       3 UNK        -0.1800 
     59 N           1.1083  -12.0944  -45.3210 N.am      3 UNK        -0.5000 
     60 C           0.3378  -11.7153  -46.3455 C.2       2 UNK         0.5000 
     61 O          -0.5136  -10.8287  -46.2645 O.2       2 UNK        -0.5000 
     62 CA          0.5597  -12.4206  -47.6964 C.3       2 UNK         0.1400 
     63 CB          1.4148  -11.5398  -48.6211 C.3       2 UNK        -0.1800 
     64 N           1.1986  -13.7334  -47.5853 N.am      2 UNK        -0.5000 
     65 C           0.5635  -14.8707  -47.2709 C.2       1 UNK         0.5000 
     66 O          -0.6171  -14.8994  -46.9265 O.2       1 UNK        -0.5000 
     67 C          -2.1876  -23.0858  -45.3389 C.2       11 UNK         0.5000 
     68 O          -1.8293  -24.1506  -44.8306 O.2       11 UNK        -0.5000 
     69 N          -2.8573  -22.9781  -46.4946 N.am      12 UNK        -0.5000 
     70 CA         -3.2410  -24.0631  -47.4007 C.3       12 UNK         0.1400 
     71 CB         -4.2329  -25.0304  -46.7222 C.3       12 UNK        -0.1800 
     72 C          -2.0434  -24.7832  -48.0601 C.2       12 UNK         0.5000 
     73 O          -2.2048  -25.9114  -48.5280 O.2       12 UNK        -0.5000 
     74 N          -0.8780  -24.1219  -48.1172 N.am      13 UNK        -0.5000 
     75 CA          0.3566  -24.6635  -48.6866 C.3       13 UNK         0.1400 
     76 CB          1.2556  -25.1575  -47.5385 C.3       13 UNK        -0.1800 
     77 C           1.1009  -23.6597  -49.5887 C.2       13 UNK         0.5000 
     78 O           2.1670  -24.0085  -50.0991 O.2       13 UNK        -0.5000 
     79 N           0.5620  -22.4486  -49.7862 N.am      14 UNK        -0.5000 
     80 CA          1.1927  -21.3871  -50.5671 C.3       14 UNK         0.1400 
     81 CB          2.2001  -20.6314  -49.6815 C.3       14 UNK        -0.1800 
     82 C           0.1466  -20.4261  -51.1489 C.2       14 UNK         0.5000 
     83 O          -1.0044  -20.4114  -50.7017 O.2       14 UNK        -0.5000 
     84 N           0.5958  -19.6304  -52.1316 N.am      15 UNK        -0.5000 
     85 CA         -0.1201  -18.5534  -52.8209 C.3       15 UNK         0.1400 
     86 CB         -0.2466  -17.3278  -51.8916 C.3       15 UNK        -0.1800 
     87 C          -1.4606  -19.0308  -53.4102 C.2       15 UNK         0.5000 
     88 O          -1.4549  -19.8587  -54.3241 O.2       15 UNK        -0.5000 
     89 N          -2.5781  -18.5373  -52.8573 N.am      16 UNK        -0.5000 
     90 CA         -3.9522  -18.8677  -53.2369 C.3       16 UNK         0.1400 
     91 CB         -4.9267  -18.1052  -52.3275 C.3       16 UNK        -0.1800 
     92 C          -4.2704  -20.3713  -53.2048 C.2       16 UNK         0.5000 
     93 O          -5.1012  -20.8176  -53.9954 O.2       16 UNK        -0.5000 
     94 N          -3.5879  -21.1305  -52.3343 N.am      17 UNK        -0.5000 
     95 CA         -3.7069  -22.5861  -52.2297 C.3       17 UNK         0.1400 
     96 CB         -2.8773  -23.0740  -51.0353 C.3       17 UNK        -0.1800 
     97 C          -3.2598  -23.3249  -53.5041 C.2       17 UNK         0.5000 
     98 O          -3.8183  -24.3746  -53.8198 O.2       17 UNK        -0.5000 
     99 N          -2.2724  -22.7602  -54.2093 N.am      18 UNK        -0.5000 
    100 CA        -1.7615  -23.2783  -55.4741 C.3       18 UNK         0.1400 
    101 CB        -0.2385  -23.0757  -55.5191 C.3       18 UNK        -0.1800 
    102 C         -2.4355  -22.5810  -56.6656 C.2       18 UNK         0.5000 
    103 O         -2.7812  -23.2462  -57.6423 O.2       18 UNK        -0.5000 
    104 N         -2.5986  -21.2543  -56.5704 N.am      19 UNK        -0.5000 
    105 CA        -3.0736  -20.4033  -57.6598 C.3       19 UNK         0.1400 
    106 CB        -2.7059  -18.9440  -57.3500 C.3       19 UNK        -0.1800 
    107 C         -4.5800  -20.5249  -57.9510 C.2       19 UNK         0.5000 
    108 O         -4.9736  -20.3698  -59.1082 O.2       19 UNK        -0.5000 
    109 N         -5.3957  -20.7652  -56.9156 N.am      20 UNK        -0.5000 
    110 CA        -6.8582  -20.7096  -57.0015 C.3       20 UNK         0.1400 
    111 CB        -7.3179  -19.2970  -56.5914 C.3       20 UNK        -0.1800 
    112 C         -7.5571  -21.7914  -56.1589 C.2       20 UNK         0.5000 
    113 O         -8.7709  -21.7030  -55.9655 O.2       20 UNK        -0.5000 
    114 N         -6.7977  -22.7643  -55.6294 N.am      21 UNK        -0.5000 
    115 CA        -7.2434  -23.8147  -54.6982 C.3       21 UNK         0.1400 
    116 CB        -8.1536  -24.8282  -55.4223 C.3       21 UNK        -0.1800 
    117 C         -7.8839  -23.2534  -53.4050 C.2       21 UNK         0.5000 
    118 O         -8.7733  -23.8797  -52.8269 O.2       21 UNK        -0.5000 
    119 N         -7.4285  -22.0624  -52.9956 N.am      22 UNK        -0.5000 
    120 CA        -7.9810  -21.2189  -51.9262 C.3       22 UNK         0.1400 
    121 C         -9.3796  -20.5956  -52.2353 C.2       22 UNK         0.5000 
    122 N         -9.8748  -20.6331  -53.4673 N.am      22 UNK        -0.7600 
    123 O        -10.0236  -20.0380  -51.3511 O.2       22 UNK        -0.5000 
    124 C124       -7.8975  -21.8887  -50.5237 C.3       23 UNK        -0.0398 
    125 S125       -7.3386  -20.7213  -49.2349 S.3       23 UNK        -0.2404 
    126 C126       -5.6462  -21.3214  -48.9612 C.3       23 UNK        -0.0205 
    127 H127        5.1421  -16.3391  -49.7923 H         1 UNK         0.0600 
    128 H128        5.2868  -15.7955  -48.1184 H         1 UNK         0.0600 
    129 H129        5.0627  -14.6154  -49.4129 H         1 UNK         0.0600 
    130 H130        3.4388  -16.1489  -46.9654 H         1 UNK         0.3000 
    131 H131        1.4102  -16.5726  -46.3327 H         1 UNK         0.0600 
    132 H132        1.3919  -17.9097  -48.7071 H         1 UNK         0.0800 
    133 H133        0.1152  -16.7964  -49.0519 H         1 UNK         0.0800 
    134 H134       -2.3018  -16.8645  -47.5735 H         1 UNK         0.0800 
    135 H135       -2.0530  -17.8377  -49.0060 H         1 UNK         0.0800 
    136 H136       -3.6069  -19.5607  -49.4263 H         1 UNK         0.1150 
    137 H137       -5.9839  -21.2134  -46.2639 H         1 UNK         0.1150 
    138 H138       -2.9830  -18.2777  -45.3880 H         1 UNK         0.1150 
    139 H139       -4.3070  -19.1314  -43.5955 H         1 UNK         0.0800 
    140 H140       -5.8983  -19.7000  -44.0340 H         1 UNK         0.0800 
    141 H141       -2.3415  -22.2378  -42.6065 H         1 UNK         0.0800 
    142 H142       -2.3404  -20.5321  -42.9333 H         1 UNK         0.0800 
    143 H143       -2.0483  -20.9450  -45.3543 H         1 UNK         0.0600 
    144 H144       -0.0626  -21.6030  -43.4818 H         1 UNK         0.3000 
    145 H145        2.4010  -22.7084  -45.0233 H         1 UNK         0.0600 
    146 H146        3.8972  -20.7259  -45.6162 H         1 UNK         0.0600 
    147 H147        2.4497  -19.8672  -46.1472 H         1 UNK         0.0600 
    148 H148        2.9373  -21.3592  -46.9409 H         1 UNK         0.0600 
    149 H149        2.0465  -20.1250  -43.5672 H         1 UNK         0.3000 
    150 H150        2.4581  -21.7791  -40.4211 H         1 UNK         0.0600 
    151 H151        4.7975  -21.2716  -41.1067 H         1 UNK         0.0600 
    152 H152        4.1523  -19.9944  -40.0862 H         1 UNK         0.0600 
    153 H153        4.2753  -19.7548  -41.8276 H         1 UNK         0.0600 
    154 H154        2.0294  -19.0537  -40.9424 H         1 UNK         0.3000 
    155 H155       -1.5693  -19.1673  -40.8667 H         1 UNK         0.0600 
    156 H156       -0.6627  -19.2455  -38.5639 H         1 UNK         0.0600 
    157 H157       -0.9946  -17.5880  -39.0421 H         1 UNK         0.0600 
    158 H158        0.6636  -18.1816  -39.0126 H         1 UNK         0.0600 
    159 H159        0.7609  -17.3762  -41.4044 H         1 UNK         0.3000 
    160 H160       -0.2796  -16.7639  -44.6762 H         1 UNK         0.0600 
    161 H161       -0.6815  -14.6875  -42.4591 H         1 UNK         0.0600 
    162 H162       -1.9171  -15.1991  -43.6039 H         1 UNK         0.0600 
    163 H163       -0.4945  -14.3574  -44.1839 H         1 UNK         0.0600 
    164 H164        1.6260  -15.3140  -43.1908 H         1 UNK         0.3000 
    165 H165        4.2340  -17.7445  -43.0615 H         1 UNK         0.0600 
    166 H166        5.4406  -15.8786  -44.1691 H         1 UNK         0.0600 
    167 H167        4.4051  -16.7242  -45.3045 H         1 UNK         0.0600 
    168 H168        3.9116  -15.1572  -44.6673 H         1 UNK         0.0600 
    169 H169        4.2970  -15.1267  -42.1134 H         1 UNK         0.3000 
    170 H170        2.6768  -15.2969  -39.0825 H         1 UNK         0.0600 
    171 H171        5.5913  -16.2192  -39.1722 H         1 UNK         0.0600 
    172 H172        4.7918  -15.4469  -37.8026 H         1 UNK         0.0600 
    173 H173        4.2752  -17.0366  -38.3387 H         1 UNK         0.0600 
    174 H174        5.1181  -13.9903  -39.9604 H         1 UNK         0.3000 
    175 H175        1.5608  -14.1474  -40.7878 H         1 UNK         0.0600 
    176 H176        1.4488  -11.6190  -39.0546 H         1 UNK         0.0600 
    177 H177        0.1229  -12.7472  -39.3371 H         1 UNK         0.0600 
    178 H178        1.5368  -13.2601  -38.4318 H         1 UNK         0.0600 
    179 H179        0.8981  -11.4476  -41.4278 H         1 UNK         0.3000 
    180 H180        0.0479  -11.2834  -43.7093 H         1 UNK         0.0600 
    181 H181        1.5401   -9.4848  -44.6467 H         1 UNK         0.0600 
    182 H182        2.9651  -10.4311  -44.2214 H         1 UNK         0.0600 
    183 H183        1.9264   -9.7782  -42.9605 H         1 UNK         0.0600 
    184 H184        1.7498  -12.8687  -45.4322 H         1 UNK         0.3000 
    185 H185       -0.4197  -12.5479  -48.1630 H         1 UNK         0.0600 
    186 H186        0.9560  -10.5605  -48.7637 H         1 UNK         0.0600 
    187 H187        2.4133  -11.3782  -48.2129 H         1 UNK         0.0600 
    188 H188        1.5237  -11.9926  -49.6070 H         1 UNK         0.0600 
    189 H189        2.1658  -13.7925  -47.8672 H         1 UNK         0.3000 
    190 H190       -3.0952  -22.0483  -46.8135 H         1 UNK         0.3000 
    191 H191       -3.7766  -23.5872  -48.2193 H         1 UNK         0.0600 
    192 H192       -3.7545  -25.6225  -45.9418 H         1 UNK         0.0600 
    193 H193       -4.6564  -25.7280  -47.4456 H         1 UNK         0.0600 
    194 H194       -5.0647  -24.4889  -46.2713 H         1 UNK         0.0600 
    195 H195       -0.7877  -23.2218  -47.6553 H         1 UNK         0.3000 
    196 H196        0.1285  -25.5164  -49.3287 H         1 UNK         0.0600 
    197 H197        0.7423  -25.9002  -46.9275 H         1 UNK         0.0600 
    198 H198        1.5571  -24.3383  -46.8859 H         1 UNK         0.0600 
    199 H199        2.1639  -25.6250  -47.9205 H         1 UNK         0.0600 
    200 H200       -0.3318  -22.2064  -49.3813 H         1 UNK         0.3000 
    201 H201        1.7222  -21.8301  -51.4134 H         1 UNK         0.0600 
    202 H202        3.0228  -21.2804  -49.3821 H         1 UNK         0.0600 
    203 H203        1.7222  -20.2586  -48.7752 H         1 UNK         0.0600 
    204 H204        2.6374  -19.7783  -50.2012 H         1 UNK         0.0600 
    205 H205        1.5483  -19.7626  -52.4405 H         1 UNK         0.3000 
    206 H206        0.4979  -18.2613  -53.6711 H         1 UNK         0.0600 
    207 H207        0.7344  -16.9955  -51.5513 H         1 UNK         0.0600 
    208 H208       -0.7076  -16.4847  -52.4077 H         1 UNK         0.0600 
    209 H209       -0.8443  -17.5491  -51.0088 H         1 UNK         0.0600 
    210 H210       -2.4731  -17.8835  -52.0960 H         1 UNK         0.3000 
    211 H211       -4.1025  -18.5245  -54.2615 H         1 UNK         0.0600 
    212 H212       -4.7658  -17.0288  -52.3898 H         1 UNK         0.0600 
    213 H213       -4.8213  -18.4013  -51.2831 H         1 UNK         0.0600 
    214 H214       -5.9610  -18.2931  -52.6188 H         1 UNK         0.0600 
    215 H215       -2.8820  -20.6919  -51.7528 H         1 UNK         0.3000 
    216 H216       -4.7562  -22.8244  -52.0458 H         1 UNK         0.0600 
    217 H217       -3.1120  -24.1135  -50.8044 H         1 UNK         0.0600 
    218 H218       -3.0674  -22.4802  -50.1428 H         1 UNK         0.0600 
    219 H219       -1.8085  -23.0206  -51.2426 H         1 UNK         0.0600 
    220 H220       -1.9053  -21.8659  -53.9064 H         1 UNK         0.3000 
    221 H221       -1.9596  -24.3495  -55.5522 H         1 UNK         0.0600 
    222 H222        0.0338  -22.0222  -55.4407 H         1 UNK         0.0600 
    223 H223        0.2521  -23.6082  -54.7042 H         1 UNK         0.0600 
    224 H224        0.1783  -23.4547  -56.4530 H         1 UNK         0.0600 
    225 H225       -2.2519  -20.7764  -55.7428 H         1 UNK         0.3000 
    226 H226       -2.5421  -20.6936  -58.5688 H         1 UNK         0.0600 
    227 H227       -1.6305  -18.8286  -57.2129 H         1 UNK         0.0600 
    228 H228       -3.0022  -18.2838  -58.1661 H         1 UNK         0.0600 
    229 H229       -3.1979  -18.5881  -56.4452 H         1 UNK         0.0600 
    230 H230       -5.0093  -20.8543  -55.9812 H         1 UNK         0.3000 
    231 H231       -7.1804  -20.8906  -58.0287 H         1 UNK         0.0600 
    232 H232       -8.3986  -19.1859  -56.6874 H         1 UNK         0.0600 
    233 H233       -6.8607  -18.5340  -57.2215 H         1 UNK         0.0600 
    234 H234       -7.0543  -19.0783  -55.5556 H         1 UNK         0.0600 
    235 H235       -5.8096  -22.7537  -55.8362 H         1 UNK         0.3000 
    236 H236       -6.3490  -24.3500  -54.3826 H         1 UNK         0.0600 
    237 H237       -9.1060  -24.3835  -55.7121 H         1 UNK         0.0600 
    238 H238       -7.6753  -25.2136  -56.3227 H         1 UNK         0.0600 
    239 H239       -8.3738  -25.6836  -54.7827 H         1 UNK         0.0600 
    240 H240       -6.6768  -21.6348  -53.5314 H         1 UNK         0.3000 
    241 H241       -7.3095  -20.3600  -51.9246 H         1 UNK         0.0600 
    242 H242      -10.7747  -20.2159  -53.6439 H         1 UNK         0.3800 
    243 H243       -9.3808  -21.0849  -54.2307 H         1 UNK         0.3800 
    244 H244       -7.2084  -22.7339  -50.5429 H         1 UNK         0.0800 
    245 H245       -8.8581  -22.3144  -50.2290 H         1 UNK         0.0800 
    246 H246       -5.1237  -21.3361  -49.9170 H         1 UNK         0.0800 
    247 H247       -5.6896  -22.3506  -48.6045 H         1 UNK         0.0800 
@<TRIPOS>BOND
     1    1    2 1    
     2    1  127 1    
     3    1  128 1    
     4    1  129 1    
     5    2    3 2    
     6    2    4 am   BACKBONE|DICT|INTERRES
     7    4    5 1    
     8    4  130 1    
     9    5    6 1    
    10    5   65 1    
    11    5  131 1    
    12    6    7 1    
    13    6  132 1    
    14    6  133 1    
    15    7    8 1    
    16    8    9 1    
    17    8  134 1    
    18    8  135 1    
    19    9   10 ar   
    20    9   14 ar   
    21   10   11 ar   
    22   10  136 1    
    23   11   12 ar   
    24   11  126 1    
    25   12   13 ar   
    26   12  137 1    
    27   13   14 ar   
    28   13   15 1    
    29   14  138 1    
    30   15   16 1    
    31   15  139 1    
    32   15  140 1    
    33   16   17 1    
    34   17   18 1    
    35   17  141 1    
    36   17  142 1    
    37   18   19 1    
    38   18   67 1    
    39   18  143 1    
    40   19   20 am   BACKBONE|DICT|INTERRES
    41   19  144 1    
    42   20   21 2    
    43   20   22 1    
    44   22   23 1    
    45   22   24 1    
    46   22  145 1    
    47   23  146 1    
    48   23  147 1    
    49   23  148 1    
    50   24   25 am   BACKBONE|DICT|INTERRES
    51   24  149 1    
    52   25   26 2    
    53   25   27 1    
    54   27   28 1    
    55   27   29 1    
    56   27  150 1    
    57   28  151 1    
    58   28  152 1    
    59   28  153 1    
    60   29   30 am   BACKBONE|DICT|INTERRES
    61   29  154 1    
    62   30   31 2    
    63   30   32 1    
    64   32   33 1    
    65   32   34 1    
    66   32  155 1    
    67   33  156 1    
    68   33  157 1    
    69   33  158 1    
    70   34   35 am   BACKBONE|DICT|INTERRES
    71   34  159 1    
    72   35   36 2    
    73   35   37 1    
    74   37   38 1    
    75   37   39 1    
    76   37  160 1    
    77   38  161 1    
    78   38  162 1    
    79   38  163 1    
    80   39   40 am   BACKBONE|DICT|INTERRES
    81   39  164 1    
    82   40   41 2    
    83   40   42 1    
    84   42   43 1    
    85   42   44 1    
    86   42  165 1    
    87   43  166 1    
    88   43  167 1    
    89   43  168 1    
    90   44   45 am   BACKBONE|DICT|INTERRES
    91   44  169 1    
    92   45   46 2    
    93   45   47 1    
    94   47   48 1    
    95   47   49 1    
    96   47  170 1    
    97   48  171 1    
    98   48  172 1    
    99   48  173 1    
   100   49   50 am   BACKBONE|DICT|INTERRES
   101   49  174 1    
   102   50   51 2    
   103   50   52 1    
   104   52   53 1    
   105   52   54 1    
   106   52  175 1    
   107   53  176 1    
   108   53  177 1    
   109   53  178 1    
   110   54   55 am   BACKBONE|DICT|INTERRES
   111   54  179 1    
   112   55   56 2    
   113   55   57 1    
   114   57   58 1    
   115   57   59 1    
   116   57  180 1    
   117   58  181 1    
   118   58  182 1    
   119   58  183 1    
   120   59   60 am   BACKBONE|DICT|INTERRES
   121   59  184 1    
   122   60   61 2    
   123   60   62 1    
   124   62   63 1    
   125   62   64 1    
   126   62  185 1    
   127   63  186 1    
   128   63  187 1    
   129   63  188 1    
   130   64   65 am   BACKBONE|DICT|INTERRES
   131   64  189 1    
   132   65   66 2    
   133   67   68 2    
   134   67   69 am   BACKBONE|DICT|INTERRES
   135   69   70 1    
   136   69  190 1    
   137   70   71 1    
   138   70   72 1    
   139   70  191 1    
   140   71  192 1    
   141   71  193 1    
   142   71  194 1    
   143   72   73 2    
   144   72   74 am   BACKBONE|DICT|INTERRES
   145   74   75 1    
   146   74  195 1    
   147   75   76 1    
   148   75   77 1    
   149   75  196 1    
   150   76  197 1    
   151   76  198 1    
   152   76  199 1    
   153   77   78 2    
   154   77   79 am   BACKBONE|DICT|INTERRES
   155   79   80 1    
   156   79  200 1    
   157   80   81 1    
   158   80   82 1    
   159   80  201 1    
   160   81  202 1    
   161   81  203 1    
   162   81  204 1    
   163   82   83 2    
   164   82   84 am   BACKBONE|DICT|INTERRES
   165   84   85 1    
   166   84  205 1    
   167   85   86 1    
   168   85   87 1    
   169   85  206 1    
   170   86  207 1    
   171   86  208 1    
   172   86  209 1    
   173   87   88 2    
   174   87   89 am   BACKBONE|DICT|INTERRES
   175   89   90 1    
   176   89  210 1    
   177   90   91 1    
   178   90   92 1    
   179   90  211 1    
   180   91  212 1    
   181   91  213 1    
   182   91  214 1    
   183   92   93 2    
   184   92   94 am   BACKBONE|DICT|INTERRES
   185   94   95 1    
   186   94  215 1    
   187   95   96 1    
   188   95   97 1    
   189   95  216 1    
   190   96  217 1    
   191   96  218 1    
   192   96  219 1    
   193   97   98 2    
   194   97   99 am   BACKBONE|DICT|INTERRES
   195   99  100 1    
   196   99  220 1    
   197  100  101 1    
   198  100  102 1    
   199  100  221 1    
   200  101  222 1    
   201  101  223 1    
   202  101  224 1    
   203  102  103 2    
   204  102  104 am   BACKBONE|DICT|INTERRES
   205  104  105 1    
   206  104  225 1    
   207  105  106 1    
   208  105  107 1    
   209  105  226 1    
   210  106  227 1    
   211  106  228 1    
   212  106  229 1    
   213  107  108 2    
   214  107  109 am   BACKBONE|DICT|INTERRES
   215  109  110 1    
   216  109  230 1    
   217  110  111 1    
   218  110  112 1    
   219  110  231 1    
   220  111  232 1    
   221  111  233 1    
   222  111  234 1    
   223  112  113 2    
   224  112  114 am   BACKBONE|DICT|INTERRES
   225  114  115 1    
   226  114  235 1    
   227  115  116 1    
   228  115  117 1    
   229  115  236 1    
   230  116  237 1    
   231  116  238 1    
   232  116  239 1    
   233  117  118 2    
   234  117  119 am   BACKBONE|DICT|INTERRES
   235  119  120 1    
   236  119  240 1    
   237  120  121 1    
   238  120  124 1    
   239  120  241 1    
   240  121  122 am   BACKBONE|DICT|INTERRES
   241  121  123 2    
   242  122  242 1    
   243  122  243 1    
   244  124  125 1    
   245  124  244 1    
   246  124  245 1    
   247  125  126 1    
   248  126  246 1    
   249  126  247 1    
@<TRIPOS>SUBSTRUCTURE
     1 UNK         1 GROUP             0       ****    0 ROOT    
