@<TRIPOS>MOLECULE
3R540
247   249    1
SMALL
USER_CHARGES


@<TRIPOS>ATOM
      1 CA          3.8405  -15.7847  -46.9407 C.3       0 UNK        -0.1800 
      2 C           3.7004  -14.4570  -46.2141 C.2       0 UNK         0.5000 
      3 O           4.2900  -14.2734  -45.1514 O.2       0 UNK        -0.5000 
      4 N           2.9350  -13.5265  -46.7993 N.am      1 UNK        -0.5000 
      5 CA          2.5378  -12.2196  -46.2465 C.3       1 UNK         0.1400 
      6 C6          1.7106  -11.3912  -47.2626 C.3       23 UNK        -0.0398 
      7 S7          0.2898  -12.3069  -47.9456 S.3       23 UNK        -0.2404 
      8 C8          0.9664  -12.9068  -49.5280 C.3       23 UNK        -0.0205 
      9 C9          0.5571  -14.3468  -49.7977 C.ar      23 UNK        -0.0193 
     10 C10        -0.7738  -14.6433  -50.1005 C.ar      23 UNK        -0.1150 
     11 C11        -1.1663  -15.9529  -50.3850 C.ar      23 UNK        -0.0193 
     12 C12        -0.2039  -16.9668  -50.3848 C.ar      23 UNK        -0.1150 
     13 C13         1.1294  -16.6960  -50.0548 C.ar      23 UNK        -0.0193 
     14 C14         1.5019  -15.3789  -49.7647 C.ar      23 UNK        -0.1150 
     15 C15         2.1754  -17.8112  -50.0599 C.3       23 UNK        -0.0205 
     16 S16         2.1059  -18.8891  -48.5822 S.3       23 UNK        -0.2404 
     17 C17         0.5494  -19.7698  -48.9039 C.3       23 UNK        -0.0398 
     18 CA          0.3169  -21.1127  -48.1708 C.3       11 UNK         0.1400 
     19 N           0.3352  -21.0192  -46.7031 N.am      11 UNK        -0.5000 
     20 C           0.1359  -22.0591  -45.8730 C.2       10 UNK         0.5000 
     21 O           0.0320  -23.2253  -46.2537 O.2       10 UNK        -0.5000 
     22 CA         -0.0535  -21.7578  -44.3737 C.3       10 UNK         0.1400 
     23 CB          1.2903  -21.7408  -43.6307 C.3       10 UNK        -0.1800 
     24 N          -0.7943  -20.5183  -44.1318 N.am      10 UNK        -0.5000 
     25 C          -2.0786  -20.3303  -44.4713 C.2       9 UNK         0.5000 
     26 O          -2.7831  -21.2075  -44.9696 O.2       9 UNK        -0.5000 
     27 CA         -2.6632  -18.9183  -44.2736 C.3       9 UNK         0.1400 
     28 CB         -3.1974  -18.7343  -42.8461 C.3       9 UNK        -0.1800 
     29 N          -1.6934  -17.8673  -44.5828 N.am      9 UNK        -0.5000 
     30 C          -1.1995  -17.6387  -45.8078 C.2       8 UNK         0.5000 
     31 O          -1.5988  -18.2250  -46.8141 O.2       8 UNK        -0.5000 
     32 CA         -0.0314  -16.6363  -45.9123 C.3       8 UNK         0.1400 
     33 CB         -0.5495  -15.1975  -46.0167 C.3       8 UNK        -0.1800 
     34 N           0.8986  -16.7404  -44.7824 N.am      8 UNK        -0.5000 
     35 C           1.6525  -17.8206  -44.5311 C.2       7 UNK         0.5000 
     36 O           1.7021  -18.7960  -45.2761 O.2       7 UNK        -0.5000 
     37 CA          2.4126  -17.8618  -43.1932 C.3       7 UNK         0.1400 
     38 CB          3.8007  -17.2174  -43.2983 C.3       7 UNK        -0.1800 
     39 N           1.6485  -17.2294  -42.1193 N.am      7 UNK        -0.5000 
     40 C           0.5964  -17.8031  -41.5185 C.2       6 UNK         0.5000 
     41 O           0.2095  -18.9422  -41.7749 O.2       6 UNK        -0.5000 
     42 CA         -0.1750  -16.9550  -40.4887 C.3       6 UNK         0.1400 
     43 CB          0.4330  -17.1261  -39.0889 C.3       6 UNK        -0.1800 
     44 N          -0.2014  -15.5323  -40.8302 N.am      6 UNK        -0.5000 
     45 C          -0.8190  -15.0134  -41.9016 C.2       5 UNK         0.5000 
     46 O          -1.5054  -15.6782  -42.6757 O.2       5 UNK        -0.5000 
     47 CA         -0.5741  -13.5168  -42.1878 C.3       5 UNK         0.1400 
     48 CB         -1.6670  -12.6562  -41.5379 C.3       5 UNK        -0.1800 
     49 N           0.7431  -13.0625  -41.7272 N.am      5 UNK        -0.5000 
     50 C           1.9042  -13.5178  -42.2153 C.2       4 UNK         0.5000 
     51 O           1.9779  -14.2978  -43.1662 O.2       4 UNK        -0.5000 
     52 CA          3.1664  -13.1324  -41.4340 C.3       4 UNK         0.1400 
     53 CB          3.2771  -14.0303  -40.1816 C.3       4 UNK        -0.1800 
     54 N           4.3527  -13.2830  -42.2754 N.am      4 UNK        -0.5000 
     55 C           5.5866  -12.8804  -41.9384 C.2       3 UNK         0.5000 
     56 O           5.8544  -12.2938  -40.8887 O.2       3 UNK        -0.5000 
     57 CA          6.7117  -13.1540  -42.9471 C.3       3 UNK         0.1400 
     58 CB          6.9764  -14.6613  -43.1023 C.3       3 UNK        -0.1800 
     59 N           6.3772  -12.5694  -44.2407 N.am      3 UNK        -0.5000 
     60 C           6.6875  -11.3199  -44.6123 C.2       2 UNK         0.5000 
     61 O           7.3844  -10.5591  -43.9392 O.2       2 UNK        -0.5000 
     62 CA          6.1259  -10.8249  -45.9604 C.3       2 UNK         0.1400 
     63 CB          7.1649  -11.0113  -47.0768 C.3       2 UNK        -0.1800 
     64 N           4.8839  -11.4913  -46.3531 N.am      2 UNK        -0.5000 
     65 C           3.7065  -11.3544  -45.7267 C.2       1 UNK         0.5000 
     66 O           3.5211  -10.5929  -44.7768 O.2       1 UNK        -0.5000 
     67 C          -1.0268  -21.6834  -48.6685 C.2       11 UNK         0.5000 
     68 O          -1.0372  -22.6606  -49.4151 O.2       11 UNK        -0.5000 
     69 N          -2.1333  -21.0700  -48.2192 N.am      12 UNK        -0.5000 
     70 CA         -3.4964  -21.4708  -48.5618 C.3       12 UNK         0.1400 
     71 CB         -4.4982  -20.4543  -47.9966 C.3       12 UNK        -0.1800 
     72 C          -3.8299  -22.8998  -48.1017 C.2       12 UNK         0.5000 
     73 O          -4.4161  -23.6546  -48.8760 O.2       12 UNK        -0.5000 
     74 N          -3.4142  -23.2619  -46.8805 N.am      13 UNK        -0.5000 
     75 CA         -3.5528  -24.6059  -46.3177 C.3       13 UNK         0.1400 
     76 CB         -3.0987  -24.6046  -44.8509 C.3       13 UNK        -0.1800 
     77 C          -2.7932  -25.6726  -47.1281 C.2       13 UNK         0.5000 
     78 O          -3.3712  -26.7130  -47.4459 O.2       13 UNK        -0.5000 
     79 N          -1.5369  -25.3769  -47.4952 N.am      14 UNK        -0.5000 
     80 CA         -0.7008  -26.2193  -48.3571 C.3       14 UNK         0.1400 
     81 CB          0.7282  -25.6576  -48.3947 C.3       14 UNK        -0.1800 
     82 C          -1.2671  -26.3682  -49.7830 C.2       14 UNK         0.5000 
     83 O          -1.1421  -27.4366  -50.3815 O.2       14 UNK        -0.5000 
     84 N          -1.9284  -25.3134  -50.2741 N.am      15 UNK        -0.5000 
     85 CA         -2.6616  -25.2636  -51.5385 C.3       15 UNK         0.1400 
     86 CB         -2.6743  -23.8097  -52.0392 C.3       15 UNK        -0.1800 
     87 C          -4.0896  -25.8505  -51.4495 C.2       15 UNK         0.5000 
     88 O          -4.9065  -25.5629  -52.3240 O.2       15 UNK        -0.5000 
     89 N          -4.3767  -26.6528  -50.4120 N.am      16 UNK        -0.5000 
     90 CA         -5.6253  -27.3851  -50.1705 C.3       16 UNK         0.1400 
     91 CB         -5.8353  -28.4710  -51.2471 C.3       16 UNK        -0.1800 
     92 C          -6.8415  -26.4522  -50.0040 C.2       16 UNK         0.5000 
     93 O          -7.8639  -26.6353  -50.6669 O.2       16 UNK        -0.5000 
     94 N          -6.6828  -25.4565  -49.1210 N.am      17 UNK        -0.5000 
     95 CA         -7.6104  -24.3538  -48.8445 C.3       17 UNK         0.1400 
     96 CB         -8.9603  -24.8648  -48.2975 C.3       17 UNK        -0.1800 
     97 C          -7.7473  -23.4091  -50.0559 C.2       17 UNK         0.5000 
     98 O          -8.8531  -22.9833  -50.3934 O.2       17 UNK        -0.5000 
     99 N          -6.5956  -23.1069  -50.6737 N.am      18 UNK        -0.5000 
    100 CA        -6.3986  -22.2628  -51.8535 C.3       18 UNK         0.1400 
    101 CB        -6.6428  -20.7816  -51.5000 C.3       18 UNK        -0.1800 
    102 C         -7.2162  -22.7401  -53.0703 C.2       18 UNK         0.5000 
    103 O         -8.0068  -21.9748  -53.6269 O.2       18 UNK        -0.5000 
    104 N         -7.0208  -24.0101  -53.4504 N.am      19 UNK        -0.5000 
    105 CA        -7.6267  -24.6376  -54.6230 C.3       19 UNK         0.1400 
    106 CB        -7.3230  -26.1443  -54.6063 C.3       19 UNK        -0.1800 
    107 C         -7.1156  -23.9685  -55.9122 C.2       19 UNK         0.5000 
    108 O         -5.9378  -24.1066  -56.2465 O.2       19 UNK        -0.5000 
    109 N         -7.9982  -23.2009  -56.5649 N.am      20 UNK        -0.5000 
    110 CA        -7.7742  -22.3005  -57.7052 C.3       20 UNK         0.1400 
    111 CB        -7.1643  -23.0312  -58.9174 C.3       20 UNK        -0.1800 
    112 C         -6.9776  -21.0272  -57.3494 C.2       20 UNK         0.5000 
    113 O         -7.3544  -19.9430  -57.7968 O.2       20 UNK        -0.5000 
    114 N         -5.9224  -21.1602  -56.5401 N.am      21 UNK        -0.5000 
    115 CA        -5.1004  -20.0777  -56.0106 C.3       21 UNK         0.1400 
    116 CB        -4.1070  -19.5951  -57.0841 C.3       21 UNK        -0.1800 
    117 C         -4.3589  -20.5767  -54.7622 C.2       21 UNK         0.5000 
    118 O         -4.2223  -21.7863  -54.5721 O.2       21 UNK        -0.5000 
    119 N         -3.8758  -19.6372  -53.9428 N.am      22 UNK        -0.5000 
    120 CA        -3.0435  -19.9019  -52.7555 C.3       22 UNK         0.1400 
    121 C         -1.5373  -20.1660  -53.0555 C.2       22 UNK         0.5000 
    122 N         -1.0754  -20.0829  -54.2972 N.am      22 UNK        -0.7600 
    123 O         -0.7737  -20.4626  -52.1434 O.2       22 UNK        -0.5000 
    124 C124       -3.2415  -18.8176  -51.6646 C.3       23 UNK        -0.0398 
    125 S125       -2.9103  -17.1143  -52.2404 S.3       23 UNK        -0.2404 
    126 C126       -2.6349  -16.2604  -50.6545 C.3       23 UNK        -0.0205 
    127 H127        2.8612  -16.1837  -47.2024 H         1 UNK         0.0600 
    128 H128        4.3426  -16.5182  -46.3105 H         1 UNK         0.0600 
    129 H129        4.4246  -15.6626  -47.8525 H         1 UNK         0.0600 
    130 H130        2.4675  -13.7659  -47.6605 H         1 UNK         0.3000 
    131 H131        1.9003  -12.4352  -45.3865 H         1 UNK         0.0600 
    132 H132        1.3143  -10.4965  -46.7787 H         1 UNK         0.0800 
    133 H133        2.3372  -11.0323  -48.0813 H         1 UNK         0.0800 
    134 H134        2.0532  -12.8172  -49.5451 H         1 UNK         0.0800 
    135 H135        0.5998  -12.2686  -50.3334 H         1 UNK         0.0800 
    136 H136       -1.5051  -13.8470  -50.1069 H         1 UNK         0.1150 
    137 H137       -0.5007  -17.9705  -50.6454 H         1 UNK         0.1150 
    138 H138        2.5343  -15.1555  -49.5388 H         1 UNK         0.1150 
    139 H139        2.0601  -18.4156  -50.9609 H         1 UNK         0.0800 
    140 H140        3.1761  -17.3807  -50.1185 H         1 UNK         0.0800 
    141 H141        0.5134  -19.9511  -49.9784 H         1 UNK         0.0800 
    142 H142       -0.2596  -19.0775  -48.6855 H         1 UNK         0.0800 
    143 H143        1.1072  -21.8064  -48.4645 H         1 UNK         0.0600 
    144 H144        0.4981  -20.1003  -46.3045 H         1 UNK         0.3000 
    145 H145       -0.6462  -22.5703  -43.9494 H         1 UNK         0.0600 
    146 H146        1.1575  -21.5071  -42.5742 H         1 UNK         0.0600 
    147 H147        1.7726  -22.7172  -43.6893 H         1 UNK         0.0600 
    148 H148        1.9839  -21.0161  -44.0527 H         1 UNK         0.0600 
    149 H149       -0.2947  -19.7677  -43.6708 H         1 UNK         0.3000 
    150 H150       -3.5034  -18.8094  -44.9626 H         1 UNK         0.0600 
    151 H151       -3.9701  -19.4710  -42.6232 H         1 UNK         0.0600 
    152 H152       -3.6406  -17.7469  -42.7150 H         1 UNK         0.0600 
    153 H153       -2.4120  -18.8498  -42.1003 H         1 UNK         0.0600 
    154 H154       -1.3869  -17.2792  -43.8144 H         1 UNK         0.3000 
    155 H155        0.5225  -16.8627  -46.8255 H         1 UNK         0.0600 
    156 H156       -1.2286  -14.9459  -45.2029 H         1 UNK         0.0600 
    157 H157       -1.0902  -15.0495  -46.9523 H         1 UNK         0.0600 
    158 H158        0.2734  -14.4847  -45.9951 H         1 UNK         0.0600 
    159 H159        0.9461  -15.9552  -44.1446 H         1 UNK         0.3000 
    160 H160        2.5638  -18.9120  -42.9354 H         1 UNK         0.0600 
    161 H161        3.7357  -16.1520  -43.5035 H         1 UNK         0.0600 
    162 H162        4.3844  -17.6729  -44.0988 H         1 UNK         0.0600 
    163 H163        4.3637  -17.3422  -42.3734 H         1 UNK         0.0600 
    164 H164        1.8745  -16.2683  -41.9095 H         1 UNK         0.3000 
    165 H165       -1.2048  -17.3170  -40.4628 H         1 UNK         0.0600 
    166 H166       -0.1474  -16.5892  -38.3383 H         1 UNK         0.0600 
    167 H167        0.4475  -18.1769  -38.7960 H         1 UNK         0.0600 
    168 H168        1.4594  -16.7592  -39.0466 H         1 UNK         0.0600 
    169 H169        0.3252  -14.9125  -40.2338 H         1 UNK         0.3000 
    170 H170       -0.6223  -13.3743  -43.2695 H         1 UNK         0.0600 
    171 H171       -2.6570  -12.9591  -41.8815 H         1 UNK         0.0600 
    172 H172       -1.6559  -12.7426  -40.4507 H         1 UNK         0.0600 
    173 H173       -1.5439  -11.6036  -41.7934 H         1 UNK         0.0600 
    174 H174        0.7519  -12.4282  -40.9411 H         1 UNK         0.3000 
    175 H175        3.0807  -12.0859  -41.1348 H         1 UNK         0.0600 
    176 H176        3.4237  -15.0769  -40.4517 H         1 UNK         0.0600 
    177 H177        4.1082  -13.7348  -39.5420 H         1 UNK         0.0600 
    178 H178        2.3780  -13.9716  -39.5674 H         1 UNK         0.0600 
    179 H179        4.1892  -13.7260  -43.1772 H         1 UNK         0.3000 
    180 H180        7.6280  -12.6998  -42.5637 H         1 UNK         0.0600 
    181 H181        6.1076  -15.1963  -43.4845 H         1 UNK         0.0600 
    182 H182        7.2391  -15.1095  -42.1434 H         1 UNK         0.0600 
    183 H183        7.8059  -14.8446  -43.7852 H         1 UNK         0.0600 
    184 H184        5.7354  -13.1097  -44.8145 H         1 UNK         0.3000 
    185 H185        5.9201   -9.7572  -45.8592 H         1 UNK         0.0600 
    186 H186        8.0979  -10.5025  -46.8308 H         1 UNK         0.0600 
    187 H187        7.3979  -12.0647  -47.2374 H         1 UNK         0.0600 
    188 H188        6.8096  -10.5970  -48.0205 H         1 UNK         0.0600 
    189 H189        4.9449  -12.1509  -47.1148 H         1 UNK         0.3000 
    190 H190       -2.0321  -20.2775  -47.5955 H         1 UNK         0.3000 
    191 H191       -3.5793  -21.4504  -49.6499 H         1 UNK         0.0600 
    192 H192       -4.4404  -20.3892  -46.9103 H         1 UNK         0.0600 
    193 H193       -5.5217  -20.7308  -48.2526 H         1 UNK         0.0600 
    194 H194       -4.3181  -19.4577  -48.4006 H         1 UNK         0.0600 
    195 H195       -2.9886  -22.5576  -46.2828 H         1 UNK         0.3000 
    196 H196       -4.6136  -24.8636  -46.3420 H         1 UNK         0.0600 
    197 H197       -3.2463  -25.5849  -44.3964 H         1 UNK         0.0600 
    198 H198       -3.6663  -23.8835  -44.2624 H         1 UNK         0.0600 
    199 H199       -2.0420  -24.3557  -44.7570 H         1 UNK         0.0600 
    200 H200       -1.1205  -24.5065  -47.1748 H         1 UNK         0.3000 
    201 H201       -0.6625  -27.2157  -47.9122 H         1 UNK         0.0600 
    202 H202        1.1646  -25.6250  -47.3963 H         1 UNK         0.0600 
    203 H203        0.7528  -24.6465  -48.8024 H         1 UNK         0.0600 
    204 H204        1.3769  -26.2784  -49.0138 H         1 UNK         0.0600 
    205 H205       -1.9228  -24.4551  -49.7320 H         1 UNK         0.3000 
    206 H206       -2.1241  -25.8622  -52.2762 H         1 UNK         0.0600 
    207 H207       -1.6619  -23.4188  -52.1434 H         1 UNK         0.0600 
    208 H208       -3.1512  -23.7296  -53.0164 H         1 UNK         0.0600 
    209 H209       -3.2116  -23.1577  -51.3522 H         1 UNK         0.0600 
    210 H210       -3.6631  -26.7777  -49.7056 H         1 UNK         0.3000 
    211 H211       -5.4992  -27.8944  -49.2139 H         1 UNK         0.0600 
    212 H212       -6.0026  -28.0392  -52.2343 H         1 UNK         0.0600 
    213 H213       -6.7009  -29.0911  -51.0117 H         1 UNK         0.0600 
    214 H214       -4.9713  -29.1322  -51.3129 H         1 UNK         0.0600 
    215 H215       -5.7640  -25.3475  -48.7086 H         1 UNK         0.3000 
    216 H216       -7.1467  -23.7623  -48.0537 H         1 UNK         0.0600 
    217 H217       -9.5771  -24.0344  -47.9523 H         1 UNK         0.0600 
    218 H218       -8.8143  -25.5343  -47.4499 H         1 UNK         0.0600 
    219 H219       -9.5335  -25.4002  -49.0545 H         1 UNK         0.0600 
    220 H220       -5.7523  -23.5101  -50.2764 H         1 UNK         0.3000 
    221 H221       -5.3505  -22.3659  -52.1328 H         1 UNK         0.0600 
    222 H222       -7.6795  -20.5984  -51.2162 H         1 UNK         0.0600 
    223 H223       -6.0093  -20.4653  -50.6727 H         1 UNK         0.0600 
    224 H224       -6.4174  -20.1349  -52.3485 H         1 UNK         0.0600 
    225 H225       -6.3186  -24.5652  -52.9642 H         1 UNK         0.3000 
    226 H226       -8.7091  -24.5114  -54.5549 H         1 UNK         0.0600 
    227 H227       -7.7104  -26.6131  -53.7012 H         1 UNK         0.0600 
    228 H228       -7.7842  -26.6448  -55.4583 H         1 UNK         0.0600 
    229 H229       -6.2509  -26.3408  -54.6492 H         1 UNK         0.0600 
    230 H230       -8.9192  -23.1211  -56.1557 H         1 UNK         0.3000 
    231 H231       -8.7694  -21.9664  -58.0029 H         1 UNK         0.0600 
    232 H232       -7.7453  -23.9152  -59.1796 H         1 UNK         0.0600 
    233 H233       -6.1364  -23.3449  -58.7347 H         1 UNK         0.0600 
    234 H234       -7.1502  -22.3798  -59.7920 H         1 UNK         0.0600 
    235 H235       -5.6748  -22.0870  -56.2013 H         1 UNK         0.3000 
    236 H236       -5.7504  -19.2522  -55.7128 H         1 UNK         0.0600 
    237 H237       -3.4797  -18.7868  -56.7069 H         1 UNK         0.0600 
    238 H238       -3.4479  -20.4010  -57.4095 H         1 UNK         0.0600 
    239 H239       -4.6254  -19.2132  -57.9636 H         1 UNK         0.0600 
    240 H240       -4.0113  -18.6612  -54.1665 H         1 UNK         0.3000 
    241 H241       -3.3974  -20.8354  -52.3155 H         1 UNK         0.0600 
    242 H242       -0.0994  -20.2622  -54.4717 H         1 UNK         0.3800 
    243 H243       -1.6858  -19.8423  -55.0599 H         1 UNK         0.3800 
    244 H244       -4.2719  -18.8461  -51.3097 H         1 UNK         0.0800 
    245 H245       -2.6277  -19.0396  -50.7898 H         1 UNK         0.0800 
    246 H246       -3.0320  -16.8503  -49.8271 H         1 UNK         0.0800 
    247 H247       -3.2174  -15.3380  -50.6693 H         1 UNK         0.0800 
@<TRIPOS>BOND
     1    1    2 1    
     2    1  127 1    
     3    1  128 1    
     4    1  129 1    
     5    2    3 2    
     6    2    4 am   BACKBONE|DICT|INTERRES
     7    4    5 1    
     8    4  130 1    
     9    5    6 1    
    10    5   65 1    
    11    5  131 1    
    12    6    7 1    
    13    6  132 1    
    14    6  133 1    
    15    7    8 1    
    16    8    9 1    
    17    8  134 1    
    18    8  135 1    
    19    9   10 ar   
    20    9   14 ar   
    21   10   11 ar   
    22   10  136 1    
    23   11   12 ar   
    24   11  126 1    
    25   12   13 ar   
    26   12  137 1    
    27   13   14 ar   
    28   13   15 1    
    29   14  138 1    
    30   15   16 1    
    31   15  139 1    
    32   15  140 1    
    33   16   17 1    
    34   17   18 1    
    35   17  141 1    
    36   17  142 1    
    37   18   19 1    
    38   18   67 1    
    39   18  143 1    
    40   19   20 am   BACKBONE|DICT|INTERRES
    41   19  144 1    
    42   20   21 2    
    43   20   22 1    
    44   22   23 1    
    45   22   24 1    
    46   22  145 1    
    47   23  146 1    
    48   23  147 1    
    49   23  148 1    
    50   24   25 am   BACKBONE|DICT|INTERRES
    51   24  149 1    
    52   25   26 2    
    53   25   27 1    
    54   27   28 1    
    55   27   29 1    
    56   27  150 1    
    57   28  151 1    
    58   28  152 1    
    59   28  153 1    
    60   29   30 am   BACKBONE|DICT|INTERRES
    61   29  154 1    
    62   30   31 2    
    63   30   32 1    
    64   32   33 1    
    65   32   34 1    
    66   32  155 1    
    67   33  156 1    
    68   33  157 1    
    69   33  158 1    
    70   34   35 am   BACKBONE|DICT|INTERRES
    71   34  159 1    
    72   35   36 2    
    73   35   37 1    
    74   37   38 1    
    75   37   39 1    
    76   37  160 1    
    77   38  161 1    
    78   38  162 1    
    79   38  163 1    
    80   39   40 am   BACKBONE|DICT|INTERRES
    81   39  164 1    
    82   40   41 2    
    83   40   42 1    
    84   42   43 1    
    85   42   44 1    
    86   42  165 1    
    87   43  166 1    
    88   43  167 1    
    89   43  168 1    
    90   44   45 am   BACKBONE|DICT|INTERRES
    91   44  169 1    
    92   45   46 2    
    93   45   47 1    
    94   47   48 1    
    95   47   49 1    
    96   47  170 1    
    97   48  171 1    
    98   48  172 1    
    99   48  173 1    
   100   49   50 am   BACKBONE|DICT|INTERRES
   101   49  174 1    
   102   50   51 2    
   103   50   52 1    
   104   52   53 1    
   105   52   54 1    
   106   52  175 1    
   107   53  176 1    
   108   53  177 1    
   109   53  178 1    
   110   54   55 am   BACKBONE|DICT|INTERRES
   111   54  179 1    
   112   55   56 2    
   113   55   57 1    
   114   57   58 1    
   115   57   59 1    
   116   57  180 1    
   117   58  181 1    
   118   58  182 1    
   119   58  183 1    
   120   59   60 am   BACKBONE|DICT|INTERRES
   121   59  184 1    
   122   60   61 2    
   123   60   62 1    
   124   62   63 1    
   125   62   64 1    
   126   62  185 1    
   127   63  186 1    
   128   63  187 1    
   129   63  188 1    
   130   64   65 am   BACKBONE|DICT|INTERRES
   131   64  189 1    
   132   65   66 2    
   133   67   68 2    
   134   67   69 am   BACKBONE|DICT|INTERRES
   135   69   70 1    
   136   69  190 1    
   137   70   71 1    
   138   70   72 1    
   139   70  191 1    
   140   71  192 1    
   141   71  193 1    
   142   71  194 1    
   143   72   73 2    
   144   72   74 am   BACKBONE|DICT|INTERRES
   145   74   75 1    
   146   74  195 1    
   147   75   76 1    
   148   75   77 1    
   149   75  196 1    
   150   76  197 1    
   151   76  198 1    
   152   76  199 1    
   153   77   78 2    
   154   77   79 am   BACKBONE|DICT|INTERRES
   155   79   80 1    
   156   79  200 1    
   157   80   81 1    
   158   80   82 1    
   159   80  201 1    
   160   81  202 1    
   161   81  203 1    
   162   81  204 1    
   163   82   83 2    
   164   82   84 am   BACKBONE|DICT|INTERRES
   165   84   85 1    
   166   84  205 1    
   167   85   86 1    
   168   85   87 1    
   169   85  206 1    
   170   86  207 1    
   171   86  208 1    
   172   86  209 1    
   173   87   88 2    
   174   87   89 am   BACKBONE|DICT|INTERRES
   175   89   90 1    
   176   89  210 1    
   177   90   91 1    
   178   90   92 1    
   179   90  211 1    
   180   91  212 1    
   181   91  213 1    
   182   91  214 1    
   183   92   93 2    
   184   92   94 am   BACKBONE|DICT|INTERRES
   185   94   95 1    
   186   94  215 1    
   187   95   96 1    
   188   95   97 1    
   189   95  216 1    
   190   96  217 1    
   191   96  218 1    
   192   96  219 1    
   193   97   98 2    
   194   97   99 am   BACKBONE|DICT|INTERRES
   195   99  100 1    
   196   99  220 1    
   197  100  101 1    
   198  100  102 1    
   199  100  221 1    
   200  101  222 1    
   201  101  223 1    
   202  101  224 1    
   203  102  103 2    
   204  102  104 am   BACKBONE|DICT|INTERRES
   205  104  105 1    
   206  104  225 1    
   207  105  106 1    
   208  105  107 1    
   209  105  226 1    
   210  106  227 1    
   211  106  228 1    
   212  106  229 1    
   213  107  108 2    
   214  107  109 am   BACKBONE|DICT|INTERRES
   215  109  110 1    
   216  109  230 1    
   217  110  111 1    
   218  110  112 1    
   219  110  231 1    
   220  111  232 1    
   221  111  233 1    
   222  111  234 1    
   223  112  113 2    
   224  112  114 am   BACKBONE|DICT|INTERRES
   225  114  115 1    
   226  114  235 1    
   227  115  116 1    
   228  115  117 1    
   229  115  236 1    
   230  116  237 1    
   231  116  238 1    
   232  116  239 1    
   233  117  118 2    
   234  117  119 am   BACKBONE|DICT|INTERRES
   235  119  120 1    
   236  119  240 1    
   237  120  121 1    
   238  120  124 1    
   239  120  241 1    
   240  121  122 am   BACKBONE|DICT|INTERRES
   241  121  123 2    
   242  122  242 1    
   243  122  243 1    
   244  124  125 1    
   245  124  244 1    
   246  124  245 1    
   247  125  126 1    
   248  126  246 1    
   249  126  247 1    
@<TRIPOS>SUBSTRUCTURE
     1 UNK         1 GROUP             0       ****    0 ROOT    
