@<TRIPOS>MOLECULE
3R540
247   249    1
SMALL
USER_CHARGES


@<TRIPOS>ATOM
      1 CA          7.0359  -12.2382  -46.3658 C.3       0 UNK        -0.1800 
      2 C           6.4146  -13.5861  -46.0282 C.2       0 UNK         0.5000 
      3 O           7.1183  -14.4928  -45.5823 O.2       0 UNK        -0.5000 
      4 N           5.1017  -13.7209  -46.2436 N.am      1 UNK        -0.5000 
      5 CA          4.3050  -14.9009  -45.9007 C.3       1 UNK         0.1400 
      6 C6          2.9357  -14.8737  -46.6237 C.3       23 UNK        -0.0398 
      7 S7          2.3396  -16.5199  -47.1161 S.3       23 UNK        -0.2404 
      8 C8          2.7007  -16.5083  -48.9010 C.3       23 UNK        -0.0205 
      9 C9          1.8202  -17.5032  -49.6349 C.ar      23 UNK        -0.0193 
     10 C10         0.5549  -17.1122  -50.0764 C.ar      23 UNK        -0.1150 
     11 C11        -0.2887  -18.0201  -50.7198 C.ar      23 UNK        -0.0193 
     12 C12         0.1530  -19.3280  -50.9386 C.ar      23 UNK        -0.1150 
     13 C13         1.4285  -19.7262  -50.5217 C.ar      23 UNK        -0.0193 
     14 C14         2.2574  -18.8089  -49.8685 C.ar      23 UNK        -0.1150 
     15 C15         1.9168  -21.1455  -50.7724 C.3       23 UNK        -0.0205 
     16 S16         1.9692  -22.1301  -49.2430 S.3       23 UNK        -0.2404 
     17 C17         0.2014  -22.1761  -48.8062 C.3       23 UNK        -0.0398 
     18 CA         -0.1050  -23.2308  -47.7196 C.3       11 UNK         0.1400 
     19 N           0.6278  -22.9811  -46.4755 N.am      11 UNK        -0.5000 
     20 C           0.6392  -23.7740  -45.3944 C.2       10 UNK         0.5000 
     21 O           0.0011  -24.8241  -45.3071 O.2       10 UNK        -0.5000 
     22 CA          1.4559  -23.2766  -44.1870 C.3       10 UNK         0.1400 
     23 CB          2.8923  -23.8151  -44.2549 C.3       10 UNK        -0.1800 
     24 N           1.4901  -21.8144  -44.0718 N.am      10 UNK        -0.5000 
     25 C           0.4092  -21.0409  -43.8971 C.2       9 UNK         0.5000 
     26 O          -0.7326  -21.4955  -43.7954 O.2       9 UNK        -0.5000 
     27 CA          0.6259  -19.5156  -43.8144 C.3       9 UNK         0.1400 
     28 CB          1.9328  -19.0244  -44.4740 C.3       9 UNK        -0.1800 
     29 N          -0.5327  -18.7789  -44.3303 N.am      9 UNK        -0.5000 
     30 C          -1.0120  -18.7875  -45.5821 C.2       8 UNK         0.5000 
     31 O          -0.4914  -19.3984  -46.5159 O.2       8 UNK        -0.5000 
     32 CA         -2.3357  -18.0386  -45.8318 C.3       8 UNK         0.1400 
     33 CB         -3.0808  -17.5822  -44.5559 C.3       8 UNK        -0.1800 
     34 N          -2.1778  -16.9366  -46.7796 N.am      8 UNK        -0.5000 
     35 C          -1.5231  -15.7801  -46.6113 C.2       7 UNK         0.5000 
     36 O          -0.9327  -15.4397  -45.5818 O.2       7 UNK        -0.5000 
     37 CA         -1.6055  -14.8129  -47.8000 C.3       7 UNK         0.1400 
     38 CB         -2.9491  -14.0601  -47.8131 C.3       7 UNK        -0.1800 
     39 N          -0.5106  -13.8498  -47.7525 N.am      7 UNK        -0.5000 
     40 C          -0.0019  -13.2175  -48.8180 C.2       6 UNK         0.5000 
     41 O          -0.3775  -13.4355  -49.9705 O.2       6 UNK        -0.5000 
     42 CA          1.0950  -12.1630  -48.5698 C.3       6 UNK         0.1400 
     43 CB          0.9261  -10.9241  -49.4686 C.3       6 UNK        -0.1800 
     44 N           1.1298  -11.7361  -47.1716 N.am      6 UNK        -0.5000 
     45 C           2.2230  -11.4426  -46.4641 C.2       5 UNK         0.5000 
     46 O           3.3663  -11.5535  -46.9082 O.2       5 UNK        -0.5000 
     47 CA          2.0278  -10.9647  -45.0105 C.3       5 UNK         0.1400 
     48 CB          1.8532   -9.4358  -44.9640 C.3       5 UNK        -0.1800 
     49 N           0.9657  -11.6365  -44.2447 N.am      5 UNK        -0.5000 
     50 C          -0.3605  -11.6526  -44.4423 C.2       4 UNK         0.5000 
     51 O          -0.9107  -11.1299  -45.4128 O.2       4 UNK        -0.5000 
     52 CA         -1.2073  -12.3914  -43.3845 C.3       4 UNK         0.1400 
     53 CB         -2.6431  -12.6759  -43.8608 C.3       4 UNK        -0.1800 
     54 N          -0.6065  -13.6555  -42.9570 N.am      4 UNK        -0.5000 
     55 C           0.3162  -13.7994  -41.9978 C.2       3 UNK         0.5000 
     56 O           0.8701  -12.8478  -41.4464 O.2       3 UNK        -0.5000 
     57 CA          0.7110  -15.2295  -41.6005 C.3       3 UNK         0.1400 
     58 CB         -0.2549  -16.3075  -42.1325 C.3       3 UNK        -0.1800 
     59 N           2.0721  -15.4585  -42.0675 N.am      3 UNK        -0.5000 
     60 C           2.8707  -16.4824  -41.7557 C.2       2 UNK         0.5000 
     61 O           2.5250  -17.4202  -41.0350 O.2       2 UNK        -0.5000 
     62 CA          4.2965  -16.4455  -42.3542 C.3       2 UNK         0.1400 
     63 CB          5.0875  -17.7386  -42.0844 C.3       2 UNK        -0.1800 
     64 N           4.3243  -16.1735  -43.7961 N.am      2 UNK        -0.5000 
     65 C           4.1308  -14.9803  -44.3715 C.2       1 UNK         0.5000 
     66 O           3.8083  -13.9652  -43.7470 O.2       1 UNK        -0.5000 
     67 C          -1.6267  -23.3379  -47.5135 C.2       11 UNK         0.5000 
     68 O          -2.2765  -24.0386  -48.2896 O.2       11 UNK        -0.5000 
     69 N          -2.1711  -22.6862  -46.4733 N.am      12 UNK        -0.5000 
     70 CA         -3.5833  -22.7630  -46.0887 C.3       12 UNK         0.1400 
     71 CB         -3.8515  -21.8179  -44.9091 C.3       12 UNK        -0.1800 
     72 C          -4.0368  -24.1946  -45.7465 C.2       12 UNK         0.5000 
     73 O          -5.1626  -24.5669  -46.0766 O.2       12 UNK        -0.5000 
     74 N          -3.1394  -24.9714  -45.1269 N.am      13 UNK        -0.5000 
     75 CA         -3.3526  -26.3757  -44.7928 C.3       13 UNK         0.1400 
     76 CB         -2.7176  -26.6672  -43.4237 C.3       13 UNK        -0.1800 
     77 C          -2.7617  -27.3008  -45.8683 C.2       13 UNK         0.5000 
     78 O          -3.4232  -28.2554  -46.2767 O.2       13 UNK        -0.5000 
     79 N          -1.5235  -27.0161  -46.2954 N.am      14 UNK        -0.5000 
     80 CA         -0.7267  -27.8949  -47.1522 C.3       14 UNK         0.1400 
     81 CB          0.7503  -27.4809  -47.0566 C.3       14 UNK        -0.1800 
     82 C          -1.1719  -27.9287  -48.6243 C.2       14 UNK         0.5000 
     83 O          -0.9589  -28.9468  -49.2845 O.2       14 UNK        -0.5000 
     84 N          -1.7474  -26.8268  -49.1221 N.am      15 UNK        -0.5000 
     85 CA         -2.0702  -26.6387  -50.5385 C.3       15 UNK         0.1400 
     86 CB         -0.9717  -25.7690  -51.1788 C.3       15 UNK        -0.1800 
     87 C          -3.4686  -26.0346  -50.7542 C.2       15 UNK         0.5000 
     88 O          -3.7612  -25.5931  -51.8659 O.2       15 UNK        -0.5000 
     89 N          -4.2982  -25.9852  -49.7000 N.am      16 UNK        -0.5000 
     90 CA         -5.6357  -25.3759  -49.6685 C.3       16 UNK         0.1400 
     91 CB         -6.6309  -26.2112  -50.5008 C.3       16 UNK        -0.1800 
     92 C          -5.6146  -23.8864  -50.0781 C.2       16 UNK         0.5000 
     93 O          -6.4202  -23.4522  -50.9037 O.2       16 UNK        -0.5000 
     94 N          -4.6388  -23.1485  -49.5287 N.am      17 UNK        -0.5000 
     95 CA         -4.3173  -21.7453  -49.8133 C.3       17 UNK         0.1400 
     96 CB         -5.4824  -20.8242  -49.3995 C.3       17 UNK        -0.1800 
     97 C          -3.8463  -21.5485  -51.2686 C.2       17 UNK         0.5000 
     98 O          -4.2134  -20.5659  -51.9148 O.2       17 UNK        -0.5000 
     99 N          -3.0683  -22.5311  -51.7529 N.am      18 UNK        -0.5000 
    100 CA        -2.6114  -22.7180  -53.1340 C.3       18 UNK         0.1400 
    101 CB        -1.5573  -21.6604  -53.5147 C.3       18 UNK        -0.1800 
    102 C         -3.7932  -22.8094  -54.1191 C.2       18 UNK         0.5000 
    103 O         -3.8353  -22.0829  -55.1105 O.2       18 UNK        -0.5000 
    104 N         -4.7585  -23.6789  -53.7865 N.am      19 UNK        -0.5000 
    105 CA        -6.0574  -23.8531  -54.4465 C.3       19 UNK         0.1400 
    106 CB        -5.8802  -24.4972  -55.8369 C.3       19 UNK        -0.1800 
    107 C         -6.8712  -22.5402  -54.4799 C.2       19 UNK         0.5000 
    108 O         -7.3848  -22.1473  -55.5291 O.2       19 UNK        -0.5000 
    109 N         -6.9391  -21.8791  -53.3159 N.am      20 UNK        -0.5000 
    110 CA        -7.5899  -20.5933  -53.0444 C.3       20 UNK         0.1400 
    111 CB        -9.1148  -20.6942  -53.2553 C.3       20 UNK        -0.1800 
    112 C         -6.9718  -19.3770  -53.7716 C.2       20 UNK         0.5000 
    113 O         -7.6075  -18.3214  -53.8215 O.2       20 UNK        -0.5000 
    114 N         -5.7351  -19.4999  -54.2784 N.am      21 UNK        -0.5000 
    115 CA        -4.9929  -18.4179  -54.9366 C.3       21 UNK         0.1400 
    116 CB        -3.7400  -18.9752  -55.6238 C.3       21 UNK        -0.1800 
    117 C         -4.6229  -17.2500  -54.0011 C.2       21 UNK         0.5000 
    118 O         -4.3742  -16.1490  -54.4948 O.2       21 UNK        -0.5000 
    119 N         -4.6322  -17.4828  -52.6801 N.am      22 UNK        -0.5000 
    120 CA        -4.5834  -16.4198  -51.6613 C.3       22 UNK         0.1400 
    121 C         -5.8231  -15.4693  -51.6633 C.2       22 UNK         0.5000 
    122 N         -6.9441  -15.8164  -52.2877 N.am      22 UNK        -0.7600 
    123 O         -5.7640  -14.3900  -51.0812 O.2       22 UNK        -0.5000 
    124 C124       -4.3769  -16.9797  -50.2289 C.3       23 UNK        -0.0398 
    125 S125       -2.9007  -18.0053  -49.8789 S.3       23 UNK        -0.2404 
    126 C126       -1.6781  -17.5841  -51.1576 C.3       23 UNK        -0.0205 
    127 H127        6.2955  -11.5377  -46.7535 H         1 UNK         0.0600 
    128 H128        7.4856  -11.7988  -45.4755 H         1 UNK         0.0600 
    129 H129        7.8146  -12.3611  -47.1184 H         1 UNK         0.0600 
    130 H130        4.5713  -12.9139  -46.5652 H         1 UNK         0.3000 
    131 H131        4.8671  -15.7744  -46.2391 H         1 UNK         0.0600 
    132 H132        2.1618  -14.3981  -46.0180 H         1 UNK         0.0800 
    133 H133        3.0077  -14.2649  -47.5228 H         1 UNK         0.0800 
    134 H134        2.5325  -15.5152  -49.3197 H         1 UNK         0.0800 
    135 H135        3.7556  -16.7369  -49.0596 H         1 UNK         0.0800 
    136 H136        0.2249  -16.0989  -49.9068 H         1 UNK         0.1150 
    137 H137       -0.5035  -20.0337  -51.4239 H         1 UNK         0.1150 
    138 H138        3.2366  -19.1173  -49.5300 H         1 UNK         0.1150 
    139 H139        1.2897  -21.6507  -51.5076 H         1 UNK         0.0800 
    140 H140        2.9188  -21.1087  -51.2021 H         1 UNK         0.0800 
    141 H141       -0.3653  -22.3867  -49.7155 H         1 UNK         0.0800 
    142 H142       -0.1019  -21.1807  -48.4764 H         1 UNK         0.0800 
    143 H143        0.2246  -24.2021  -48.0937 H         1 UNK         0.0600 
    144 H144        1.1662  -22.1272  -46.4477 H         1 UNK         0.3000 
    145 H145        0.9825  -23.6728  -43.2863 H         1 UNK         0.0600 
    146 H146        3.4587  -23.5429  -43.3641 H         1 UNK         0.0600 
    147 H147        2.8978  -24.9040  -44.3218 H         1 UNK         0.0600 
    148 H148        3.4264  -23.4302  -45.1246 H         1 UNK         0.0600 
    149 H149        2.3962  -21.3753  -44.1442 H         1 UNK         0.3000 
    150 H150        0.6892  -19.2829  -42.7511 H         1 UNK         0.0600 
    151 H151        2.8106  -19.4234  -43.9664 H         1 UNK         0.0600 
    152 H152        2.0028  -17.9381  -44.4226 H         1 UNK         0.0600 
    153 H153        1.9954  -19.3101  -45.5247 H         1 UNK         0.0600 
    154 H154       -1.0691  -18.2825  -43.6351 H         1 UNK         0.3000 
    155 H155       -2.9834  -18.7587  -46.3338 H         1 UNK         0.0600 
    156 H156       -4.0525  -17.1581  -44.8088 H         1 UNK         0.0600 
    157 H157       -2.5317  -16.8248  -43.9980 H         1 UNK         0.0600 
    158 H158       -3.2663  -18.4225  -43.8856 H         1 UNK         0.0600 
    159 H159       -2.5663  -17.1245  -47.6945 H         1 UNK         0.3000 
    160 H160       -1.5317  -15.4081  -48.7106 H         1 UNK         0.0600 
    161 H161       -3.0029  -13.3200  -47.0150 H         1 UNK         0.0600 
    162 H162       -3.7929  -14.7386  -47.6858 H         1 UNK         0.0600 
    163 H163       -3.0950  -13.5372  -48.7585 H         1 UNK         0.0600 
    164 H164       -0.1258  -13.6933  -46.8312 H         1 UNK         0.3000 
    165 H165        2.0393  -12.6411  -48.8336 H         1 UNK         0.0600 
    166 H166       -0.0198  -10.4172  -49.2746 H         1 UNK         0.0600 
    167 H167        1.7304  -10.2064  -49.3059 H         1 UNK         0.0600 
    168 H168        0.9462  -11.1947  -50.5249 H         1 UNK         0.0600 
    169 H169        0.2295  -11.5721  -46.7225 H         1 UNK         0.3000 
    170 H170        2.9546  -11.2031  -44.4858 H         1 UNK         0.0600 
    171 H171        2.6905   -8.9331  -45.4500 H         1 UNK         0.0600 
    172 H172        0.9427   -9.1144  -45.4706 H         1 UNK         0.0600 
    173 H173        1.8107   -9.0751  -43.9363 H         1 UNK         0.0600 
    174 H174        1.2885  -12.1082  -43.4077 H         1 UNK         0.3000 
    175 H175       -1.2765  -11.7238  -42.5232 H         1 UNK         0.0600 
    176 H176       -3.2387  -13.1228  -43.0647 H         1 UNK         0.0600 
    177 H177       -3.1511  -11.7603  -44.1663 H         1 UNK         0.0600 
    178 H178       -2.6544  -13.3613  -44.7075 H         1 UNK         0.0600 
    179 H179       -0.9252  -14.4804  -43.4501 H         1 UNK         0.3000 
    180 H180        0.7077  -15.2688  -40.5096 H         1 UNK         0.0600 
    181 H181       -0.1806  -16.3931  -43.2153 H         1 UNK         0.0600 
    182 H182       -1.2899  -16.0775  -41.8762 H         1 UNK         0.0600 
    183 H183       -0.0368  -17.2819  -41.6984 H         1 UNK         0.0600 
    184 H184        2.4733  -14.7168  -42.6367 H         1 UNK         0.3000 
    185 H185        4.8219  -15.6333  -41.8474 H         1 UNK         0.0600 
    186 H186        5.1569  -17.9411  -41.0148 H         1 UNK         0.0600 
    187 H187        4.6189  -18.6041  -42.5530 H         1 UNK         0.0600 
    188 H188        6.1073  -17.6633  -42.4624 H         1 UNK         0.0600 
    189 H189        4.5483  -16.9619  -44.3857 H         1 UNK         0.3000 
    190 H190       -1.5647  -22.1549  -45.8603 H         1 UNK         0.3000 
    191 H191       -4.1803  -22.4165  -46.9318 H         1 UNK         0.0600 
    192 H192       -3.5487  -20.7979  -45.1404 H         1 UNK         0.0600 
    193 H193       -4.9140  -21.7940  -44.6640 H         1 UNK         0.0600 
    194 H194       -3.3170  -22.1314  -44.0119 H         1 UNK         0.0600 
    195 H195       -2.2196  -24.5945  -44.9377 H         1 UNK         0.3000 
    196 H196       -4.4215  -26.5867  -44.7165 H         1 UNK         0.0600 
    197 H197       -2.8538  -27.7127  -43.1443 H         1 UNK         0.0600 
    198 H198       -3.1750  -26.0601  -42.6424 H         1 UNK         0.0600 
    199 H199       -1.6461  -26.4624  -43.4209 H         1 UNK         0.0600 
    200 H200       -1.0352  -26.2141  -45.9032 H         1 UNK         0.3000 
    201 H201       -0.8134  -28.9118  -46.7633 H         1 UNK         0.0600 
    202 H202        1.1034  -27.5119  -46.0257 H         1 UNK         0.0600 
    203 H203        0.9111  -26.4712  -47.4349 H         1 UNK         0.0600 
    204 H204        1.3838  -28.1529  -47.6371 H         1 UNK         0.0600 
    205 H205       -1.8858  -26.0194  -48.5242 H         1 UNK         0.3000 
    206 H206       -2.0866  -27.6000  -51.0555 H         1 UNK         0.0600 
    207 H207       -1.1172  -25.6791  -52.2555 H         1 UNK         0.0600 
    208 H208       -0.9577  -24.7632  -50.7581 H         1 UNK         0.0600 
    209 H209        0.0151  -26.2068  -51.0271 H         1 UNK         0.0600 
    210 H210       -3.9727  -26.3774  -48.8283 H         1 UNK         0.3000 
    211 H211       -5.9676  -25.4037  -48.6299 H         1 UNK         0.0600 
    212 H212       -6.3867  -26.1962  -51.5635 H         1 UNK         0.0600 
    213 H213       -7.6464  -25.8279  -50.3943 H         1 UNK         0.0600 
    214 H214       -6.6414  -27.2510  -50.1742 H         1 UNK         0.0600 
    215 H215       -3.9667  -23.6292  -48.9360 H         1 UNK         0.3000 
    216 H216       -3.4616  -21.4853  -49.1890 H         1 UNK         0.0600 
    217 H217       -5.7506  -20.9753  -48.3541 H         1 UNK         0.0600 
    218 H218       -6.3748  -20.9940  -49.9992 H         1 UNK         0.0600 
    219 H219       -5.2108  -19.7781  -49.5120 H         1 UNK         0.0600 
    220 H220       -2.8894  -23.3110  -51.1380 H         1 UNK         0.3000 
    221 H221       -2.1199  -23.6901  -53.1761 H         1 UNK         0.0600 
    222 H222       -1.9187  -20.6457  -53.3539 H         1 UNK         0.0600 
    223 H223       -0.6530  -21.7922  -52.9233 H         1 UNK         0.0600 
    224 H224       -1.2663  -21.7473  -54.5621 H         1 UNK         0.0600 
    225 H225       -4.5981  -24.2639  -52.9702 H         1 UNK         0.3000 
    226 H226       -6.6244  -24.5506  -53.8280 H         1 UNK         0.0600 
    227 H227       -5.3222  -25.4310  -55.7692 H         1 UNK         0.0600 
    228 H228       -6.8471  -24.7286  -56.2851 H         1 UNK         0.0600 
    229 H229       -5.3500  -23.8387  -56.5255 H         1 UNK         0.0600 
    230 H230       -6.5145  -22.3226  -52.5054 H         1 UNK         0.3000 
    231 H231       -7.4264  -20.4042  -51.9839 H         1 UNK         0.0600 
    232 H232       -9.5322  -21.5429  -52.7134 H         1 UNK         0.0600 
    233 H233       -9.3722  -20.8075  -54.3086 H         1 UNK         0.0600 
    234 H234       -9.6218  -19.7998  -52.8913 H         1 UNK         0.0600 
    235 H235       -5.2461  -20.3783  -54.1590 H         1 UNK         0.3000 
    236 H236       -5.6401  -18.0066  -55.7139 H         1 UNK         0.0600 
    237 H237       -3.1913  -18.1868  -56.1404 H         1 UNK         0.0600 
    238 H238       -3.0601  -19.4291  -54.9050 H         1 UNK         0.0600 
    239 H239       -4.0006  -19.7270  -56.3686 H         1 UNK         0.0600 
    240 H240       -4.7727  -18.4315  -52.3529 H         1 UNK         0.3000 
    241 H241       -3.7344  -15.7796  -51.9018 H         1 UNK         0.0600 
    242 H242       -7.0275  -16.6958  -52.7864 H         1 UNK         0.3800 
    243 H243       -7.7273  -15.1827  -52.2744 H         1 UNK         0.3800 
    244 H244       -4.3346  -16.1508  -49.5218 H         1 UNK         0.0800 
    245 H245       -5.2548  -17.5566  -49.9371 H         1 UNK         0.0800 
    246 H246       -1.9460  -18.0668  -52.0985 H         1 UNK         0.0800 
    247 H247       -1.6778  -16.5087  -51.3374 H         1 UNK         0.0800 
@<TRIPOS>BOND
     1    1    2 1    
     2    1  127 1    
     3    1  128 1    
     4    1  129 1    
     5    2    3 2    
     6    2    4 am   BACKBONE|DICT|INTERRES
     7    4    5 1    
     8    4  130 1    
     9    5    6 1    
    10    5   65 1    
    11    5  131 1    
    12    6    7 1    
    13    6  132 1    
    14    6  133 1    
    15    7    8 1    
    16    8    9 1    
    17    8  134 1    
    18    8  135 1    
    19    9   10 ar   
    20    9   14 ar   
    21   10   11 ar   
    22   10  136 1    
    23   11   12 ar   
    24   11  126 1    
    25   12   13 ar   
    26   12  137 1    
    27   13   14 ar   
    28   13   15 1    
    29   14  138 1    
    30   15   16 1    
    31   15  139 1    
    32   15  140 1    
    33   16   17 1    
    34   17   18 1    
    35   17  141 1    
    36   17  142 1    
    37   18   19 1    
    38   18   67 1    
    39   18  143 1    
    40   19   20 am   BACKBONE|DICT|INTERRES
    41   19  144 1    
    42   20   21 2    
    43   20   22 1    
    44   22   23 1    
    45   22   24 1    
    46   22  145 1    
    47   23  146 1    
    48   23  147 1    
    49   23  148 1    
    50   24   25 am   BACKBONE|DICT|INTERRES
    51   24  149 1    
    52   25   26 2    
    53   25   27 1    
    54   27   28 1    
    55   27   29 1    
    56   27  150 1    
    57   28  151 1    
    58   28  152 1    
    59   28  153 1    
    60   29   30 am   BACKBONE|DICT|INTERRES
    61   29  154 1    
    62   30   31 2    
    63   30   32 1    
    64   32   33 1    
    65   32   34 1    
    66   32  155 1    
    67   33  156 1    
    68   33  157 1    
    69   33  158 1    
    70   34   35 am   BACKBONE|DICT|INTERRES
    71   34  159 1    
    72   35   36 2    
    73   35   37 1    
    74   37   38 1    
    75   37   39 1    
    76   37  160 1    
    77   38  161 1    
    78   38  162 1    
    79   38  163 1    
    80   39   40 am   BACKBONE|DICT|INTERRES
    81   39  164 1    
    82   40   41 2    
    83   40   42 1    
    84   42   43 1    
    85   42   44 1    
    86   42  165 1    
    87   43  166 1    
    88   43  167 1    
    89   43  168 1    
    90   44   45 am   BACKBONE|DICT|INTERRES
    91   44  169 1    
    92   45   46 2    
    93   45   47 1    
    94   47   48 1    
    95   47   49 1    
    96   47  170 1    
    97   48  171 1    
    98   48  172 1    
    99   48  173 1    
   100   49   50 am   BACKBONE|DICT|INTERRES
   101   49  174 1    
   102   50   51 2    
   103   50   52 1    
   104   52   53 1    
   105   52   54 1    
   106   52  175 1    
   107   53  176 1    
   108   53  177 1    
   109   53  178 1    
   110   54   55 am   BACKBONE|DICT|INTERRES
   111   54  179 1    
   112   55   56 2    
   113   55   57 1    
   114   57   58 1    
   115   57   59 1    
   116   57  180 1    
   117   58  181 1    
   118   58  182 1    
   119   58  183 1    
   120   59   60 am   BACKBONE|DICT|INTERRES
   121   59  184 1    
   122   60   61 2    
   123   60   62 1    
   124   62   63 1    
   125   62   64 1    
   126   62  185 1    
   127   63  186 1    
   128   63  187 1    
   129   63  188 1    
   130   64   65 am   BACKBONE|DICT|INTERRES
   131   64  189 1    
   132   65   66 2    
   133   67   68 2    
   134   67   69 am   BACKBONE|DICT|INTERRES
   135   69   70 1    
   136   69  190 1    
   137   70   71 1    
   138   70   72 1    
   139   70  191 1    
   140   71  192 1    
   141   71  193 1    
   142   71  194 1    
   143   72   73 2    
   144   72   74 am   BACKBONE|DICT|INTERRES
   145   74   75 1    
   146   74  195 1    
   147   75   76 1    
   148   75   77 1    
   149   75  196 1    
   150   76  197 1    
   151   76  198 1    
   152   76  199 1    
   153   77   78 2    
   154   77   79 am   BACKBONE|DICT|INTERRES
   155   79   80 1    
   156   79  200 1    
   157   80   81 1    
   158   80   82 1    
   159   80  201 1    
   160   81  202 1    
   161   81  203 1    
   162   81  204 1    
   163   82   83 2    
   164   82   84 am   BACKBONE|DICT|INTERRES
   165   84   85 1    
   166   84  205 1    
   167   85   86 1    
   168   85   87 1    
   169   85  206 1    
   170   86  207 1    
   171   86  208 1    
   172   86  209 1    
   173   87   88 2    
   174   87   89 am   BACKBONE|DICT|INTERRES
   175   89   90 1    
   176   89  210 1    
   177   90   91 1    
   178   90   92 1    
   179   90  211 1    
   180   91  212 1    
   181   91  213 1    
   182   91  214 1    
   183   92   93 2    
   184   92   94 am   BACKBONE|DICT|INTERRES
   185   94   95 1    
   186   94  215 1    
   187   95   96 1    
   188   95   97 1    
   189   95  216 1    
   190   96  217 1    
   191   96  218 1    
   192   96  219 1    
   193   97   98 2    
   194   97   99 am   BACKBONE|DICT|INTERRES
   195   99  100 1    
   196   99  220 1    
   197  100  101 1    
   198  100  102 1    
   199  100  221 1    
   200  101  222 1    
   201  101  223 1    
   202  101  224 1    
   203  102  103 2    
   204  102  104 am   BACKBONE|DICT|INTERRES
   205  104  105 1    
   206  104  225 1    
   207  105  106 1    
   208  105  107 1    
   209  105  226 1    
   210  106  227 1    
   211  106  228 1    
   212  106  229 1    
   213  107  108 2    
   214  107  109 am   BACKBONE|DICT|INTERRES
   215  109  110 1    
   216  109  230 1    
   217  110  111 1    
   218  110  112 1    
   219  110  231 1    
   220  111  232 1    
   221  111  233 1    
   222  111  234 1    
   223  112  113 2    
   224  112  114 am   BACKBONE|DICT|INTERRES
   225  114  115 1    
   226  114  235 1    
   227  115  116 1    
   228  115  117 1    
   229  115  236 1    
   230  116  237 1    
   231  116  238 1    
   232  116  239 1    
   233  117  118 2    
   234  117  119 am   BACKBONE|DICT|INTERRES
   235  119  120 1    
   236  119  240 1    
   237  120  121 1    
   238  120  124 1    
   239  120  241 1    
   240  121  122 am   BACKBONE|DICT|INTERRES
   241  121  123 2    
   242  122  242 1    
   243  122  243 1    
   244  124  125 1    
   245  124  244 1    
   246  124  245 1    
   247  125  126 1    
   248  126  246 1    
   249  126  247 1    
@<TRIPOS>SUBSTRUCTURE
     1 UNK         1 GROUP             0       ****    0 ROOT    
