@<TRIPOS>MOLECULE
3R540
247   249    1
SMALL
USER_CHARGES


@<TRIPOS>ATOM
      1 CA         -5.1223  -14.9979  -46.6952 C.3       0 UNK        -0.1800 
      2 C          -4.1232  -14.1531  -47.4738 C.2       0 UNK         0.5000 
      3 O          -4.1675  -12.9255  -47.3871 O.2       0 UNK        -0.5000 
      4 N          -3.2376  -14.8037  -48.2377 N.am      1 UNK        -0.5000 
      5 CA         -2.1404  -14.1794  -48.9849 C.3       1 UNK         0.1400 
      6 C6         -1.8943  -14.9149  -50.3317 C.3       23 UNK        -0.0398 
      7 S7         -1.3391  -16.6509  -50.1683 S.3       23 UNK        -0.2404 
      8 C8          0.1528  -16.6439  -51.2114 C.3       23 UNK        -0.0205 
      9 C9          0.7712  -18.0278  -51.3263 C.ar      23 UNK        -0.0193 
     10 C10         0.5978  -18.7902  -52.4863 C.ar      23 UNK        -0.1150 
     11 C11         1.2106  -20.0446  -52.6159 C.ar      23 UNK        -0.0193 
     12 C12         1.9764  -20.5320  -51.5493 C.ar      23 UNK        -0.1150 
     13 C13         2.1469  -19.7896  -50.3752 C.ar      23 UNK        -0.0193 
     14 C14         1.5514  -18.5283  -50.2815 C.ar      23 UNK        -0.1150 
     15 C15         3.0175  -20.3454  -49.2459 C.3       23 UNK        -0.0205 
     16 S16         2.4079  -19.9859  -47.5582 S.3       23 UNK        -0.2404 
     17 C17         0.8484  -20.9280  -47.5209 C.3       23 UNK        -0.0398 
     18 CA          0.8861  -22.1476  -46.5722 C.3       11 UNK         0.1400 
     19 N           1.0175  -21.7666  -45.1604 N.am      11 UNK        -0.5000 
     20 C           1.2183  -22.6256  -44.1492 C.2       10 UNK         0.5000 
     21 O           1.3684  -23.8382  -44.3028 O.2       10 UNK        -0.5000 
     22 CA          1.1906  -22.0423  -42.7248 C.3       10 UNK         0.1400 
     23 CB          2.5264  -21.3757  -42.3609 C.3       10 UNK        -0.1800 
     24 N           0.0901  -21.0912  -42.5657 N.am      10 UNK        -0.5000 
     25 C          -1.1945  -21.4546  -42.4408 C.2       9 UNK         0.5000 
     26 O          -1.5588  -22.6246  -42.3246 O.2       9 UNK        -0.5000 
     27 CA         -2.2586  -20.3394  -42.4706 C.3       9 UNK         0.1400 
     28 CB         -2.6176  -19.8991  -41.0438 C.3       9 UNK        -0.1800 
     29 N          -1.8607  -19.1688  -43.2539 N.am      9 UNK        -0.5000 
     30 C          -1.6586  -19.1626  -44.5791 C.2       8 UNK         0.5000 
     31 O          -1.8303  -20.1435  -45.2982 O.2       8 UNK        -0.5000 
     32 CA         -1.1135  -17.8608  -45.1943 C.3       8 UNK         0.1400 
     33 CB         -2.2590  -16.8759  -45.4551 C.3       8 UNK        -0.1800 
     34 N          -0.0866  -17.2335  -44.3572 N.am      8 UNK        -0.5000 
     35 C           1.0755  -17.8199  -44.0316 C.2       7 UNK         0.5000 
     36 O           1.4162  -18.9253  -44.4489 O.2       7 UNK        -0.5000 
     37 CA          1.9670  -17.0962  -43.0090 C.3       7 UNK         0.1400 
     38 CB          2.8595  -16.0388  -43.6770 C.3       7 UNK        -0.1800 
     39 N           1.1652  -16.4819  -41.9518 N.am      7 UNK        -0.5000 
     40 C           0.6121  -17.1651  -40.9392 C.2       6 UNK         0.5000 
     41 O           0.7854  -18.3700  -40.7560 O.2       6 UNK        -0.5000 
     42 CA         -0.3131  -16.3793  -39.9889 C.3       6 UNK         0.1400 
     43 CB          0.4989  -15.7445  -38.8501 C.3       6 UNK        -0.1800 
     44 N          -1.0801  -15.3357  -40.6717 N.am      6 UNK        -0.5000 
     45 C          -2.0371  -15.5673  -41.5817 C.2       5 UNK         0.5000 
     46 O          -2.4179  -16.6938  -41.8937 O.2       5 UNK        -0.5000 
     47 CA         -2.6293  -14.3401  -42.3047 C.3       5 UNK         0.1400 
     48 CB         -3.8841  -13.8388  -41.5756 C.3       5 UNK        -0.1800 
     49 N          -1.6809  -13.2319  -42.4586 N.am      5 UNK        -0.5000 
     50 C          -0.5159  -13.3133  -43.1141 C.2       4 UNK         0.5000 
     51 O          -0.1079  -14.3449  -43.6564 O.2       4 UNK        -0.5000 
     52 CA          0.3716  -12.0623  -43.0888 C.3       4 UNK         0.1400 
     53 CB          0.9892  -11.8754  -41.6876 C.3       4 UNK        -0.1800 
     54 N           1.4217  -12.2328  -44.0844 N.am      4 UNK        -0.5000 
     55 C           2.2736  -11.2993  -44.5211 C.2       3 UNK         0.5000 
     56 O           2.2634  -10.1282  -44.1397 O.2       3 UNK        -0.5000 
     57 CA          3.3236  -11.7502  -45.5554 C.3       3 UNK         0.1400 
     58 CB          4.6422  -12.1094  -44.8527 C.3       3 UNK        -0.1800 
     59 N           2.8873  -12.8981  -46.3539 N.am      3 UNK        -0.5000 
     60 C           1.9745  -12.8389  -47.3322 C.2       2 UNK         0.5000 
     61 O           1.4517  -11.7864  -47.7077 O.2       2 UNK        -0.5000 
     62 CA          1.6255  -14.1695  -48.0358 C.3       2 UNK         0.1400 
     63 CB          1.7444  -15.4074  -47.1166 C.3       2 UNK        -0.1800 
     64 N           0.3096  -14.1515  -48.6814 N.am      2 UNK        -0.5000 
     65 C          -0.8854  -14.0104  -48.0881 C.2       1 UNK         0.5000 
     66 O          -1.0179  -13.7623  -46.8879 O.2       1 UNK        -0.5000 
     67 C          -0.3363  -23.0581  -46.8239 C.2       11 UNK         0.5000 
     68 O          -0.2375  -23.9815  -47.6302 O.2       11 UNK        -0.5000 
     69 N          -1.4421  -22.8267  -46.0996 N.am      12 UNK        -0.5000 
     70 CA         -2.7115  -23.5624  -46.1703 C.3       12 UNK         0.1400 
     71 CB         -3.7137  -22.9394  -45.1863 C.3       12 UNK        -0.1800 
     72 C          -2.6207  -25.0845  -45.9354 C.2       12 UNK         0.5000 
     73 O          -3.5614  -25.8001  -46.2816 O.2       12 UNK        -0.5000 
     74 N          -1.4875  -25.5716  -45.4091 N.am      13 UNK        -0.5000 
     75 CA         -1.1250  -26.9905  -45.3674 C.3       13 UNK         0.1400 
     76 CB          0.2039  -27.1425  -44.6132 C.3       13 UNK        -0.1800 
     77 C          -1.0297  -27.6374  -46.7681 C.2       13 UNK         0.5000 
     78 O          -1.2504  -28.8424  -46.8905 O.2       13 UNK        -0.5000 
     79 N          -0.7490  -26.8247  -47.7976 N.am      14 UNK        -0.5000 
     80 CA         -0.7602  -27.1966  -49.2122 C.3       14 UNK         0.1400 
     81 CB          0.5184  -26.6597  -49.8803 C.3       14 UNK        -0.1800 
     82 C          -2.0562  -26.7309  -49.9160 C.2       14 UNK         0.5000 
     83 O          -2.0334  -26.4400  -51.1130 O.2       14 UNK        -0.5000 
     84 N          -3.1695  -26.6892  -49.1671 N.am      15 UNK        -0.5000 
     85 CA         -4.5467  -26.4382  -49.6034 C.3       15 UNK         0.1400 
     86 CB         -5.0601  -27.6117  -50.4673 C.3       15 UNK        -0.1800 
     87 C          -4.7278  -25.0584  -50.2656 C.2       15 UNK         0.5000 
     88 O          -4.8096  -24.0566  -49.5534 O.2       15 UNK        -0.5000 
     89 N          -4.7777  -25.0241  -51.6070 N.am      16 UNK        -0.5000 
     90 CA         -4.9790  -23.8339  -52.4451 C.3       16 UNK         0.1400 
     91 CB         -4.9889  -24.2567  -53.9219 C.3       16 UNK        -0.1800 
     92 C          -3.9477  -22.7117  -52.2188 C.2       16 UNK         0.5000 
     93 O          -4.2547  -21.5477  -52.4687 O.2       16 UNK        -0.5000 
     94 N          -2.7732  -23.0797  -51.6915 N.am      17 UNK        -0.5000 
     95 CA         -1.7118  -22.2023  -51.1974 C.3       17 UNK         0.1400 
     96 CB         -0.5367  -23.0927  -50.7846 C.3       17 UNK        -0.1800 
     97 C          -2.1287  -21.2322  -50.0684 C.2       17 UNK         0.5000 
     98 O          -1.3811  -20.3038  -49.7771 O.2       17 UNK        -0.5000 
     99 N          -3.3125  -21.4222  -49.4675 N.am      18 UNK        -0.5000 
    100 CA        -3.9458  -20.4491  -48.5743 C.3       18 UNK         0.1400 
    101 CB        -5.2123  -21.0809  -47.9758 C.3       18 UNK        -0.1800 
    102 C         -4.3216  -19.1233  -49.2752 C.2       18 UNK         0.5000 
    103 O         -4.3858  -18.0886  -48.6092 O.2       18 UNK        -0.5000 
    104 N         -4.5921  -19.1837  -50.5864 N.am      19 UNK        -0.5000 
    105 CA        -4.9865  -18.0575  -51.4271 C.3       19 UNK         0.1400 
    106 CB        -6.2829  -18.4361  -52.1618 C.3       19 UNK        -0.1800 
    107 C         -3.8796  -17.7358  -52.4423 C.2       19 UNK         0.5000 
    108 O         -3.0263  -18.5780  -52.7205 O.2       19 UNK        -0.5000 
    109 N         -3.9280  -16.5193  -53.0028 N.am      20 UNK        -0.5000 
    110 CA        -2.9634  -16.0334  -53.9945 C.3       20 UNK         0.1400 
    111 CB        -3.1439  -14.5191  -54.1786 C.3       20 UNK        -0.1800 
    112 C         -3.0612  -16.7608  -55.3489 C.2       20 UNK         0.5000 
    113 O         -2.0472  -16.9251  -56.0277 O.2       20 UNK        -0.5000 
    114 N         -4.2704  -17.2135  -55.7048 N.am      21 UNK        -0.5000 
    115 CA        -4.5659  -18.0033  -56.9010 C.3       21 UNK         0.1400 
    116 CB        -6.0156  -17.7164  -57.3329 C.3       21 UNK        -0.1800 
    117 C         -4.3014  -19.5041  -56.6538 C.2       21 UNK         0.5000 
    118 O         -5.1899  -20.3339  -56.8556 O.2       21 UNK        -0.5000 
    119 N         -3.0889  -19.8217  -56.1876 N.am      22 UNK        -0.5000 
    120 CA        -2.6590  -21.1726  -55.7991 C.3       22 UNK         0.1400 
    121 C         -2.2852  -22.1235  -56.9739 C.2       22 UNK         0.5000 
    122 N         -2.2196  -21.6572  -58.2152 N.am      22 UNK        -0.7600 
    123 O         -2.0678  -23.3122  -56.7564 O.2       22 UNK        -0.5000 
    124 C124       -1.5660  -21.1210  -54.7044 C.3       23 UNK        -0.0398 
    125 S125       -0.0071  -20.3124  -55.2029 S.3       23 UNK        -0.2404 
    126 C126        1.1349  -20.8904  -53.8932 C.3       23 UNK        -0.0205 
    127 H127       -6.1403  -14.6778  -46.9169 H         1 UNK         0.0600 
    128 H128       -4.9524  -14.8854  -45.6244 H         1 UNK         0.0600 
    129 H129       -5.0398  -16.0560  -46.9429 H         1 UNK         0.0600 
    130 H130       -3.2560  -15.8152  -48.2665 H         1 UNK         0.3000 
    131 H131       -2.4419  -13.1632  -49.2469 H         1 UNK         0.0600 
    132 H132       -2.8251  -14.9265  -50.8987 H         1 UNK         0.0800 
    133 H133       -1.1972  -14.3521  -50.9539 H         1 UNK         0.0800 
    134 H134       -0.0961  -16.2612  -52.2013 H         1 UNK         0.0800 
    135 H135        0.8912  -15.9590  -50.7945 H         1 UNK         0.0800 
    136 H136       -0.0013  -18.3860  -53.2888 H         1 UNK         0.1150 
    137 H137        2.4580  -21.4955  -51.6419 H         1 UNK         0.1150 
    138 H138        1.6889  -17.9320  -49.3915 H         1 UNK         0.1150 
    139 H139        3.1275  -21.4262  -49.3477 H         1 UNK         0.0800 
    140 H140        4.0179  -19.9236  -49.3479 H         1 UNK         0.0800 
    141 H141        0.0389  -20.2488  -47.2510 H         1 UNK         0.0800 
    142 H142        0.6354  -21.2547  -48.5363 H         1 UNK         0.0800 
    143 H143        1.7688  -22.7382  -46.8266 H         1 UNK         0.0600 
    144 H144        0.9644  -20.7731  -44.9542 H         1 UNK         0.3000 
    145 H145        1.0359  -22.8686  -42.0275 H         1 UNK         0.0600 
    146 H146        2.4927  -20.9458  -41.3596 H         1 UNK         0.0600 
    147 H147        3.3370  -22.1051  -42.3757 H         1 UNK         0.0600 
    148 H148        2.7945  -20.5816  -43.0565 H         1 UNK         0.0600 
    149 H149        0.3155  -20.1097  -42.6518 H         1 UNK         0.3000 
    150 H150       -3.1559  -20.7563  -42.9320 H         1 UNK         0.0600 
    151 H151       -2.9402  -20.7490  -40.4411 H         1 UNK         0.0600 
    152 H152       -3.4335  -19.1762  -41.0479 H         1 UNK         0.0600 
    153 H153       -1.7669  -19.4415  -40.5386 H         1 UNK         0.0600 
    154 H154       -1.7764  -18.2927  -42.7460 H         1 UNK         0.3000 
    155 H155       -0.6503  -18.1043  -46.1529 H         1 UNK         0.0600 
    156 H156       -1.8834  -15.9208  -45.8148 H         1 UNK         0.0600 
    157 H157       -2.8474  -16.6872  -44.5581 H         1 UNK         0.0600 
    158 H158       -2.9370  -17.2698  -46.2129 H         1 UNK         0.0600 
    159 H159       -0.2768  -16.2995  -44.0084 H         1 UNK         0.3000 
    160 H160        2.6244  -17.8435  -42.5589 H         1 UNK         0.0600 
    161 H161        2.2784  -15.2359  -44.1261 H         1 UNK         0.0600 
    162 H162        3.4671  -16.4863  -44.4644 H         1 UNK         0.0600 
    163 H163        3.5424  -15.5902  -42.9554 H         1 UNK         0.0600 
    164 H164        0.9135  -15.5121  -42.0837 H         1 UNK         0.3000 
    165 H165       -1.0194  -17.0885  -39.5519 H         1 UNK         0.0600 
    166 H166        1.2083  -15.0050  -39.2239 H         1 UNK         0.0600 
    167 H167       -0.1526  -15.2510  -38.1287 H         1 UNK         0.0600 
    168 H168        1.0679  -16.5011  -38.3081 H         1 UNK         0.0600 
    169 H169       -0.8325  -14.3790  -40.4680 H         1 UNK         0.3000 
    170 H170       -2.9234  -14.6592  -43.3061 H         1 UNK         0.0600 
    171 H171       -4.6185  -14.6383  -41.4682 H         1 UNK         0.0600 
    172 H172       -3.6495  -13.4717  -40.5756 H         1 UNK         0.0600 
    173 H173       -4.3647  -13.0306  -42.1272 H         1 UNK         0.0600 
    174 H174       -1.9406  -12.3564  -42.0274 H         1 UNK         0.3000 
    175 H175       -0.2358  -11.1948  -43.3536 H         1 UNK         0.0600 
    176 H176        1.6053  -10.9779  -41.6368 H         1 UNK         0.0600 
    177 H177        0.2176  -11.7717  -40.9240 H         1 UNK         0.0600 
    178 H178        1.6153  -12.7244  -41.4097 H         1 UNK         0.0600 
    179 H179        1.4452  -13.1601  -44.4894 H         1 UNK         0.3000 
    180 H180        3.5120  -10.9093  -46.2263 H         1 UNK         0.0600 
    181 H181        5.4174  -12.3669  -45.5747 H         1 UNK         0.0600 
    182 H182        5.0135  -11.2683  -44.2656 H         1 UNK         0.0600 
    183 H183        4.5199  -12.9545  -44.1737 H         1 UNK         0.0600 
    184 H184        3.2971  -13.7908  -46.1228 H         1 UNK         0.3000 
    185 H185        2.3530  -14.2852  -48.8403 H         1 UNK         0.0600 
    186 H186        1.4226  -16.3125  -47.6316 H         1 UNK         0.0600 
    187 H187        2.7728  -15.5761  -46.7972 H         1 UNK         0.0600 
    188 H188        1.1260  -15.3055  -46.2245 H         1 UNK         0.0600 
    189 H189        0.3249  -14.2977  -49.6785 H         1 UNK         0.3000 
    190 H190       -1.4545  -21.9872  -45.5265 H         1 UNK         0.3000 
    191 H191       -3.0937  -23.4278  -47.1836 H         1 UNK         0.0600 
    192 H192       -4.6973  -23.3999  -45.2875 H         1 UNK         0.0600 
    193 H193       -3.8396  -21.8717  -45.3624 H         1 UNK         0.0600 
    194 H194       -3.3972  -23.0753  -44.1530 H         1 UNK         0.0600 
    195 H195       -0.7632  -24.9154  -45.1493 H         1 UNK         0.3000 
    196 H196       -1.9017  -27.5183  -44.8105 H         1 UNK         0.0600 
    197 H197        0.4898  -28.1918  -44.5309 H         1 UNK         0.0600 
    198 H198        0.1315  -26.7443  -43.6009 H         1 UNK         0.0600 
    199 H199        1.0148  -26.6186  -45.1212 H         1 UNK         0.0600 
    200 H200       -0.5875  -25.8370  -47.6106 H         1 UNK         0.3000 
    201 H201       -0.7411  -28.2836  -49.3102 H         1 UNK         0.0600 
    202 H202        1.4065  -27.0965  -49.4238 H         1 UNK         0.0600 
    203 H203        0.6020  -25.5780  -49.7887 H         1 UNK         0.0600 
    204 H204        0.5491  -26.9073  -50.9420 H         1 UNK         0.0600 
    205 H205       -3.0703  -26.8526  -48.1730 H         1 UNK         0.3000 
    206 H206       -5.1522  -26.4160  -48.6960 H         1 UNK         0.0600 
    207 H207       -5.0468  -28.5429  -49.9008 H         1 UNK         0.0600 
    208 H208       -6.0906  -27.4450  -50.7840 H         1 UNK         0.0600 
    209 H209       -4.4578  -27.7661  -51.3630 H         1 UNK         0.0600 
    210 H210       -4.6552  -25.8971  -52.0996 H         1 UNK         0.3000 
    211 H211       -5.9602  -23.4243  -52.1974 H         1 UNK         0.0600 
    212 H212       -4.0317  -24.6841  -54.2240 H         1 UNK         0.0600 
    213 H213       -5.1867  -23.4030  -54.5717 H         1 UNK         0.0600 
    214 H214       -5.7653  -24.9966  -54.1169 H         1 UNK         0.0600 
    215 H215       -2.6365  -24.0687  -51.5272 H         1 UNK         0.3000 
    216 H216       -1.3710  -21.5729  -52.0145 H         1 UNK         0.0600 
    217 H217        0.2822  -22.5148  -50.3605 H         1 UNK         0.0600 
    218 H218       -0.1370  -23.6390  -51.6390 H         1 UNK         0.0600 
    219 H219       -0.8557  -23.8224  -50.0442 H         1 UNK         0.0600 
    220 H220       -3.8602  -22.2414  -49.7081 H         1 UNK         0.3000 
    221 H221       -3.2473  -20.2244  -47.7654 H         1 UNK         0.0600 
    222 H222       -5.9738  -21.2491  -48.7387 H         1 UNK         0.0600 
    223 H223       -5.0038  -22.0418  -47.5101 H         1 UNK         0.0600 
    224 H224       -5.6469  -20.4340  -47.2127 H         1 UNK         0.0600 
    225 H225       -4.4133  -20.0483  -51.0880 H         1 UNK         0.3000 
    226 H226       -5.1680  -17.1680  -50.8204 H         1 UNK         0.0600 
    227 H227       -7.0785  -18.6761  -51.4562 H         1 UNK         0.0600 
    228 H228       -6.6396  -17.6151  -52.7847 H         1 UNK         0.0600 
    229 H229       -6.1383  -19.3024  -52.8095 H         1 UNK         0.0600 
    230 H230       -4.6650  -15.8816  -52.7388 H         1 UNK         0.3000 
    231 H231       -1.9604  -16.2112  -53.6039 H         1 UNK         0.0600 
    232 H232       -2.4241  -14.1255  -54.8976 H         1 UNK         0.0600 
    233 H233       -2.9890  -13.9840  -53.2419 H         1 UNK         0.0600 
    234 H234       -4.1413  -14.2739  -54.5456 H         1 UNK         0.0600 
    235 H235       -5.0364  -17.0690  -55.0643 H         1 UNK         0.3000 
    236 H236       -3.9093  -17.6882  -57.7147 H         1 UNK         0.0600 
    237 H237       -6.7318  -18.0174  -56.5673 H         1 UNK         0.0600 
    238 H238       -6.1642  -16.6550  -57.5321 H         1 UNK         0.0600 
    239 H239       -6.2655  -18.2543  -58.2483 H         1 UNK         0.0600 
    240 H240       -2.4127  -19.0804  -56.0485 H         1 UNK         0.3000 
    241 H241       -3.5227  -21.6470  -55.3296 H         1 UNK         0.0600 
    242 H242       -1.9834  -22.2825  -58.9696 H         1 UNK         0.3800 
    243 H243       -2.3932  -20.6835  -58.4055 H         1 UNK         0.3800 
    244 H244       -1.3533  -22.1291  -54.3456 H         1 UNK         0.0800 
    245 H245       -1.9587  -20.5706  -53.8523 H         1 UNK         0.0800 
    246 H246        0.8925  -21.9215  -53.6321 H         1 UNK         0.0800 
    247 H247        2.1356  -20.9190  -54.3261 H         1 UNK         0.0800 
@<TRIPOS>BOND
     1    1    2 1    
     2    1  127 1    
     3    1  128 1    
     4    1  129 1    
     5    2    3 2    
     6    2    4 am   BACKBONE|DICT|INTERRES
     7    4    5 1    
     8    4  130 1    
     9    5    6 1    
    10    5   65 1    
    11    5  131 1    
    12    6    7 1    
    13    6  132 1    
    14    6  133 1    
    15    7    8 1    
    16    8    9 1    
    17    8  134 1    
    18    8  135 1    
    19    9   10 ar   
    20    9   14 ar   
    21   10   11 ar   
    22   10  136 1    
    23   11   12 ar   
    24   11  126 1    
    25   12   13 ar   
    26   12  137 1    
    27   13   14 ar   
    28   13   15 1    
    29   14  138 1    
    30   15   16 1    
    31   15  139 1    
    32   15  140 1    
    33   16   17 1    
    34   17   18 1    
    35   17  141 1    
    36   17  142 1    
    37   18   19 1    
    38   18   67 1    
    39   18  143 1    
    40   19   20 am   BACKBONE|DICT|INTERRES
    41   19  144 1    
    42   20   21 2    
    43   20   22 1    
    44   22   23 1    
    45   22   24 1    
    46   22  145 1    
    47   23  146 1    
    48   23  147 1    
    49   23  148 1    
    50   24   25 am   BACKBONE|DICT|INTERRES
    51   24  149 1    
    52   25   26 2    
    53   25   27 1    
    54   27   28 1    
    55   27   29 1    
    56   27  150 1    
    57   28  151 1    
    58   28  152 1    
    59   28  153 1    
    60   29   30 am   BACKBONE|DICT|INTERRES
    61   29  154 1    
    62   30   31 2    
    63   30   32 1    
    64   32   33 1    
    65   32   34 1    
    66   32  155 1    
    67   33  156 1    
    68   33  157 1    
    69   33  158 1    
    70   34   35 am   BACKBONE|DICT|INTERRES
    71   34  159 1    
    72   35   36 2    
    73   35   37 1    
    74   37   38 1    
    75   37   39 1    
    76   37  160 1    
    77   38  161 1    
    78   38  162 1    
    79   38  163 1    
    80   39   40 am   BACKBONE|DICT|INTERRES
    81   39  164 1    
    82   40   41 2    
    83   40   42 1    
    84   42   43 1    
    85   42   44 1    
    86   42  165 1    
    87   43  166 1    
    88   43  167 1    
    89   43  168 1    
    90   44   45 am   BACKBONE|DICT|INTERRES
    91   44  169 1    
    92   45   46 2    
    93   45   47 1    
    94   47   48 1    
    95   47   49 1    
    96   47  170 1    
    97   48  171 1    
    98   48  172 1    
    99   48  173 1    
   100   49   50 am   BACKBONE|DICT|INTERRES
   101   49  174 1    
   102   50   51 2    
   103   50   52 1    
   104   52   53 1    
   105   52   54 1    
   106   52  175 1    
   107   53  176 1    
   108   53  177 1    
   109   53  178 1    
   110   54   55 am   BACKBONE|DICT|INTERRES
   111   54  179 1    
   112   55   56 2    
   113   55   57 1    
   114   57   58 1    
   115   57   59 1    
   116   57  180 1    
   117   58  181 1    
   118   58  182 1    
   119   58  183 1    
   120   59   60 am   BACKBONE|DICT|INTERRES
   121   59  184 1    
   122   60   61 2    
   123   60   62 1    
   124   62   63 1    
   125   62   64 1    
   126   62  185 1    
   127   63  186 1    
   128   63  187 1    
   129   63  188 1    
   130   64   65 am   BACKBONE|DICT|INTERRES
   131   64  189 1    
   132   65   66 2    
   133   67   68 2    
   134   67   69 am   BACKBONE|DICT|INTERRES
   135   69   70 1    
   136   69  190 1    
   137   70   71 1    
   138   70   72 1    
   139   70  191 1    
   140   71  192 1    
   141   71  193 1    
   142   71  194 1    
   143   72   73 2    
   144   72   74 am   BACKBONE|DICT|INTERRES
   145   74   75 1    
   146   74  195 1    
   147   75   76 1    
   148   75   77 1    
   149   75  196 1    
   150   76  197 1    
   151   76  198 1    
   152   76  199 1    
   153   77   78 2    
   154   77   79 am   BACKBONE|DICT|INTERRES
   155   79   80 1    
   156   79  200 1    
   157   80   81 1    
   158   80   82 1    
   159   80  201 1    
   160   81  202 1    
   161   81  203 1    
   162   81  204 1    
   163   82   83 2    
   164   82   84 am   BACKBONE|DICT|INTERRES
   165   84   85 1    
   166   84  205 1    
   167   85   86 1    
   168   85   87 1    
   169   85  206 1    
   170   86  207 1    
   171   86  208 1    
   172   86  209 1    
   173   87   88 2    
   174   87   89 am   BACKBONE|DICT|INTERRES
   175   89   90 1    
   176   89  210 1    
   177   90   91 1    
   178   90   92 1    
   179   90  211 1    
   180   91  212 1    
   181   91  213 1    
   182   91  214 1    
   183   92   93 2    
   184   92   94 am   BACKBONE|DICT|INTERRES
   185   94   95 1    
   186   94  215 1    
   187   95   96 1    
   188   95   97 1    
   189   95  216 1    
   190   96  217 1    
   191   96  218 1    
   192   96  219 1    
   193   97   98 2    
   194   97   99 am   BACKBONE|DICT|INTERRES
   195   99  100 1    
   196   99  220 1    
   197  100  101 1    
   198  100  102 1    
   199  100  221 1    
   200  101  222 1    
   201  101  223 1    
   202  101  224 1    
   203  102  103 2    
   204  102  104 am   BACKBONE|DICT|INTERRES
   205  104  105 1    
   206  104  225 1    
   207  105  106 1    
   208  105  107 1    
   209  105  226 1    
   210  106  227 1    
   211  106  228 1    
   212  106  229 1    
   213  107  108 2    
   214  107  109 am   BACKBONE|DICT|INTERRES
   215  109  110 1    
   216  109  230 1    
   217  110  111 1    
   218  110  112 1    
   219  110  231 1    
   220  111  232 1    
   221  111  233 1    
   222  111  234 1    
   223  112  113 2    
   224  112  114 am   BACKBONE|DICT|INTERRES
   225  114  115 1    
   226  114  235 1    
   227  115  116 1    
   228  115  117 1    
   229  115  236 1    
   230  116  237 1    
   231  116  238 1    
   232  116  239 1    
   233  117  118 2    
   234  117  119 am   BACKBONE|DICT|INTERRES
   235  119  120 1    
   236  119  240 1    
   237  120  121 1    
   238  120  124 1    
   239  120  241 1    
   240  121  122 am   BACKBONE|DICT|INTERRES
   241  121  123 2    
   242  122  242 1    
   243  122  243 1    
   244  124  125 1    
   245  124  244 1    
   246  124  245 1    
   247  125  126 1    
   248  126  246 1    
   249  126  247 1    
@<TRIPOS>SUBSTRUCTURE
     1 UNK         1 GROUP             0       ****    0 ROOT    
