@<TRIPOS>MOLECULE
3R540
247   249    1
SMALL
USER_CHARGES


@<TRIPOS>ATOM
      1 CA          1.1827  -12.6065  -51.1235 C.3       0 UNK        -0.1800 
      2 C           1.8322  -12.1037  -49.8420 C.2       0 UNK         0.5000 
      3 O           1.9797  -10.8953  -49.6573 O.2       0 UNK        -0.5000 
      4 N           2.2076  -13.0229  -48.9455 N.am      1 UNK        -0.5000 
      5 CA          2.8467  -12.7751  -47.6468 C.3       1 UNK         0.1400 
      6 C6          3.6898  -13.9960  -47.1776 C.3       23 UNK        -0.0398 
      7 S7          2.7975  -15.5927  -47.2446 S.3       23 UNK        -0.2404 
      8 C8          3.5277  -16.3192  -48.7426 C.3       23 UNK        -0.0205 
      9 C9          2.6328  -17.3841  -49.3558 C.ar      23 UNK        -0.0193 
     10 C10         1.4600  -17.0106  -50.0178 C.ar      23 UNK        -0.1150 
     11 C11         0.6741  -17.9671  -50.6638 C.ar      23 UNK        -0.0193 
     12 C12         1.0676  -19.3074  -50.6436 C.ar      23 UNK        -0.1150 
     13 C13         2.2276  -19.7002  -49.9665 C.ar      23 UNK        -0.0193 
     14 C14         3.0024  -18.7319  -49.3190 C.ar      23 UNK        -0.1150 
     15 C15         2.6788  -21.1580  -49.9683 C.3       23 UNK        -0.0205 
     16 S16         1.3394  -22.3348  -49.5878 S.3       23 UNK        -0.2404 
     17 C17         0.8214  -21.7516  -47.9407 C.3       23 UNK        -0.0398 
     18 CA          0.3223  -22.8973  -47.0313 C.3       11 UNK         0.1400 
     19 N           0.3598  -22.5214  -45.6157 N.am      11 UNK        -0.5000 
     20 C           0.1058  -23.3521  -44.5953 C.2       10 UNK         0.5000 
     21 O          -0.1432  -24.5486  -44.7374 O.2       10 UNK        -0.5000 
     22 CA          0.0601  -22.7317  -43.1882 C.3       10 UNK         0.1400 
     23 CB          1.4759  -22.5569  -42.6197 C.3       10 UNK        -0.1800 
     24 N          -0.6471  -21.4502  -43.1723 N.am      10 UNK        -0.5000 
     25 C          -1.9535  -21.3051  -43.4399 C.2       9 UNK         0.5000 
     26 O          -2.7143  -22.2489  -43.6499 O.2       9 UNK        -0.5000 
     27 CA         -2.4946  -19.8666  -43.5345 C.3       9 UNK         0.1400 
     28 CB         -2.7946  -19.3024  -42.1384 C.3       9 UNK        -0.1800 
     29 N          -1.5876  -18.9657  -44.2469 N.am      9 UNK        -0.5000 
     30 C          -1.2406  -19.0923  -45.5360 C.2       8 UNK         0.5000 
     31 O          -1.6840  -19.9655  -46.2803 O.2       8 UNK        -0.5000 
     32 CA         -0.1790  -18.1133  -46.0679 C.3       8 UNK         0.1400 
     33 CB         -0.8152  -16.7680  -46.4508 C.3       8 UNK        -0.1800 
     34 N           0.8995  -17.9036  -45.1011 N.am      8 UNK        -0.5000 
     35 C           1.7720  -18.8520  -44.7310 C.2       7 UNK         0.5000 
     36 O           1.7824  -19.9904  -45.1988 O.2       7 UNK        -0.5000 
     37 CA          2.7588  -18.4871  -43.6089 C.3       7 UNK         0.1400 
     38 CB          3.9511  -17.6930  -44.1625 C.3       7 UNK        -0.1800 
     39 N           2.1136  -17.7307  -42.5350 N.am      7 UNK        -0.5000 
     40 C           1.2131  -18.2498  -41.6857 C.2       6 UNK         0.5000 
     41 O           0.8763  -19.4329  -41.6955 O.2       6 UNK        -0.5000 
     42 CA          0.5386  -17.2868  -40.6860 C.3       6 UNK         0.1400 
     43 CB          1.3509  -17.2077  -39.3854 C.3       6 UNK        -0.1800 
     44 N           0.3529  -15.9370  -41.2185 N.am      6 UNK        -0.5000 
     45 C          -0.3459  -15.6353  -42.3208 C.2       5 UNK         0.5000 
     46 O          -1.0261  -16.4565  -42.9353 O.2       5 UNK        -0.5000 
     47 CA         -0.2304  -14.1982  -42.8664 C.3       5 UNK         0.1400 
     48 CB         -1.5065  -13.4027  -42.5551 C.3       5 UNK        -0.1800 
     49 N           0.9337  -13.4271  -42.4106 N.am      5 UNK        -0.5000 
     50 C           2.2238  -13.7796  -42.5273 C.2       4 UNK         0.5000 
     51 O           2.6030  -14.8932  -42.8929 O.2       4 UNK        -0.5000 
     52 CA          3.2450  -12.6757  -42.2151 C.3       4 UNK         0.1400 
     53 CB          4.6977  -13.0910  -42.5140 C.3       4 UNK        -0.1800 
     54 N           2.9031  -11.4974  -43.0062 N.am      4 UNK        -0.5000 
     55 C           2.9652  -10.2274  -42.5875 C.2       3 UNK         0.5000 
     56 O           3.3358   -9.9032  -41.4585 O.2       3 UNK        -0.5000 
     57 CA          2.5558   -9.1247  -43.5884 C.3       3 UNK         0.1400 
     58 CB          3.7960   -8.3627  -44.0818 C.3       3 UNK        -0.1800 
     59 N           1.8246   -9.6273  -44.7536 N.am      3 UNK        -0.5000 
     60 C           0.5542  -10.0538  -44.7437 C.2       2 UNK         0.5000 
     61 O          -0.1704  -10.0140  -43.7494 O.2       2 UNK        -0.5000 
     62 CA          0.0149  -10.6587  -46.0571 C.3       2 UNK         0.1400 
     63 CB         -0.7569   -9.6019  -46.8610 C.3       2 UNK        -0.1800 
     64 N           1.0486  -11.2497  -46.9158 N.am      2 UNK        -0.5000 
     65 C           1.8382  -12.2796  -46.5827 C.2       1 UNK         0.5000 
     66 O           1.7952  -12.8117  -45.4759 O.2       1 UNK        -0.5000 
     67 C          -1.0741  -23.4013  -47.4561 C.2       11 UNK         0.5000 
     68 O          -1.1686  -24.4476  -48.0935 O.2       11 UNK        -0.5000 
     69 N          -2.1282  -22.6857  -47.0397 N.am      12 UNK        -0.5000 
     70 CA         -3.5324  -23.0353  -47.2666 C.3       12 UNK         0.1400 
     71 CB         -4.4093  -21.8288  -46.9015 C.3       12 UNK        -0.1800 
     72 C          -4.0070  -24.2975  -46.5164 C.2       12 UNK         0.5000 
     73 O          -5.0266  -24.8730  -46.8988 O.2       12 UNK        -0.5000 
     74 N          -3.2847  -24.7050  -45.4652 N.am      13 UNK        -0.5000 
     75 CA         -3.5037  -25.9674  -44.7627 C.3       13 UNK         0.1400 
     76 CB         -3.0722  -25.8224  -43.2948 C.3       13 UNK        -0.1800 
     77 C          -2.7506  -27.1205  -45.4499 C.2       13 UNK         0.5000 
     78 O          -3.3007  -28.2153  -45.5755 O.2       13 UNK        -0.5000 
     79 N          -1.5074  -26.8580  -45.8758 N.am      14 UNK        -0.5000 
     80 CA         -0.6186  -27.8248  -46.5199 C.3       14 UNK         0.1400 
     81 CB          0.8139  -27.2688  -46.5096 C.3       14 UNK        -0.1800 
     82 C          -1.0374  -28.1951  -47.9550 C.2       14 UNK         0.5000 
     83 O          -0.8695  -29.3493  -48.3524 O.2       14 UNK        -0.5000 
     84 N          -1.5558  -27.2202  -48.7077 N.am      15 UNK        -0.5000 
     85 CA         -1.9570  -27.3464  -50.1050 C.3       15 UNK         0.1400 
     86 CB         -0.7791  -26.9191  -50.9990 C.3       15 UNK        -0.1800 
     87 C          -3.1941  -26.4775  -50.3725 C.2       15 UNK         0.5000 
     88 O          -3.5679  -25.6511  -49.5409 O.2       15 UNK        -0.5000 
     89 N          -3.7973  -26.6386  -51.5555 N.am      16 UNK        -0.5000 
     90 CA         -4.9919  -25.9171  -52.0113 C.3       16 UNK         0.1400 
     91 CB         -5.6509  -26.7384  -53.1343 C.3       16 UNK        -0.1800 
     92 C          -4.7198  -24.4533  -52.4385 C.2       16 UNK         0.5000 
     93 O          -5.3473  -23.9625  -53.3782 O.2       16 UNK        -0.5000 
     94 N          -3.7961  -23.7701  -51.7484 N.am      17 UNK        -0.5000 
     95 CA         -3.3277  -22.4159  -52.0538 C.3       17 UNK         0.1400 
     96 CB         -2.1637  -22.0557  -51.1183 C.3       17 UNK        -0.1800 
     97 C          -4.4317  -21.3470  -51.9770 C.2       17 UNK         0.5000 
     98 O          -4.4317  -20.4199  -52.7870 O.2       17 UNK        -0.5000 
     99 N          -5.3647  -21.5114  -51.0287 N.am      18 UNK        -0.5000 
    100 CA        -6.5243  -20.6360  -50.8552 C.3       18 UNK         0.1400 
    101 CB        -7.1577  -20.8850  -49.4789 C.3       18 UNK        -0.1800 
    102 C         -7.5661  -20.8082  -51.9744 C.2       18 UNK         0.5000 
    103 O         -8.1219  -19.8139  -52.4401 O.2       18 UNK        -0.5000 
    104 N         -7.7850  -22.0564  -52.4131 N.am      19 UNK        -0.5000 
    105 CA        -8.6852  -22.3990  -53.5184 C.3       19 UNK         0.1400 
    106 CB        -8.9574  -23.9101  -53.5104 C.3       19 UNK        -0.1800 
    107 C         -8.1247  -21.9494  -54.8797 C.2       19 UNK         0.5000 
    108 O         -8.8840  -21.4947  -55.7355 O.2       19 UNK        -0.5000 
    109 N         -6.7966  -22.0387  -55.0303 N.am      20 UNK        -0.5000 
    110 CA        -6.0357  -21.5190  -56.1667 C.3       20 UNK         0.1400 
    111 CB        -4.6507  -22.1858  -56.1695 C.3       20 UNK        -0.1800 
    112 C         -5.8880  -19.9823  -56.1575 C.2       20 UNK         0.5000 
    113 O         -5.3836  -19.4271  -57.1345 O.2       20 UNK        -0.5000 
    114 N         -6.2826  -19.3269  -55.0537 N.am      21 UNK        -0.5000 
    115 CA        -6.1866  -17.8877  -54.7800 C.3       21 UNK         0.1400 
    116 CB        -7.1810  -17.1067  -55.6631 C.3       21 UNK        -0.1800 
    117 C         -4.7408  -17.3546  -54.8812 C.2       21 UNK         0.5000 
    118 O         -4.5183  -16.2439  -55.3665 O.2       21 UNK        -0.5000 
    119 N         -3.7823  -18.1820  -54.4444 N.am      22 UNK        -0.5000 
    120 CA        -2.3313  -17.9867  -54.5807 C.3       22 UNK         0.1400 
    121 C         -1.7933  -18.0603  -56.0476 C.2       22 UNK         0.5000 
    122 N         -2.5705  -18.5050  -57.0291 N.am      22 UNK        -0.7600 
    123 O         -0.6377  -17.7385  -56.3080 O.2       22 UNK        -0.5000 
    124 C124       -1.8307  -16.7397  -53.7947 C.3       23 UNK        -0.0398 
    125 S125       -0.1674  -16.9730  -53.0837 S.3       23 UNK        -0.2404 
    126 C126       -0.5810  -17.5470  -51.4093 C.3       23 UNK        -0.0205 
    127 H127        1.1404  -13.6954  -51.1585 H         1 UNK         0.0600 
    128 H128        1.7468  -12.2614  -51.9899 H         1 UNK         0.0600 
    129 H129        0.1653  -12.2238  -51.2033 H         1 UNK         0.0600 
    130 H130        2.0147  -13.9962  -49.1302 H         1 UNK         0.3000 
    131 H131        3.5501  -11.9502  -47.7785 H         1 UNK         0.0600 
    132 H132        4.0625  -13.8505  -46.1620 H         1 UNK         0.0800 
    133 H133        4.5867  -14.0672  -47.7939 H         1 UNK         0.0800 
    134 H134        4.5081  -16.7292  -48.4955 H         1 UNK         0.0800 
    135 H135        3.7007  -15.5427  -49.4891 H         1 UNK         0.0800 
    136 H136        1.1699  -15.9707  -50.0529 H         1 UNK         0.1150 
    137 H137        0.4746  -20.0462  -51.1633 H         1 UNK         0.1150 
    138 H138        3.9115  -19.0228  -48.8116 H         1 UNK         0.1150 
    139 H139        3.0840  -21.3953  -50.9526 H         1 UNK         0.0800 
    140 H140        3.4904  -21.3124  -49.2555 H         1 UNK         0.0800 
    141 H141        0.0687  -20.9705  -48.0573 H         1 UNK         0.0800 
    142 H142        1.6835  -21.2709  -47.4776 H         1 UNK         0.0800 
    143 H143        1.0145  -23.7354  -47.1380 H         1 UNK         0.0600 
    144 H144        0.6053  -21.5577  -45.4096 H         1 UNK         0.3000 
    145 H145       -0.4821  -23.4223  -42.5388 H         1 UNK         0.0600 
    146 H146        1.4446  -22.1981  -41.5909 H         1 UNK         0.0600 
    147 H147        2.0615  -21.8463  -43.2032 H         1 UNK         0.0600 
    148 H148        2.0155  -23.5047  -42.6173 H         1 UNK         0.0600 
    149 H149       -0.0967  -20.6296  -42.9389 H         1 UNK         0.3000 
    150 H150       -3.4314  -19.8998  -44.0941 H         1 UNK         0.0600 
    151 H151       -3.5246  -19.9227  -41.6171 H         1 UNK         0.0600 
    152 H152       -3.2061  -18.2947  -42.1987 H         1 UNK         0.0600 
    153 H153       -1.8985  -19.2626  -41.5200 H         1 UNK         0.0600 
    154 H154       -1.2197  -18.1771  -43.7211 H         1 UNK         0.3000 
    155 H155        0.2578  -18.5480  -46.9701 H         1 UNK         0.0600 
    156 H156       -1.6033  -16.9101  -47.1912 H         1 UNK         0.0600 
    157 H157       -0.0821  -16.0919  -46.8886 H         1 UNK         0.0600 
    158 H158       -1.2604  -16.2675  -45.5911 H         1 UNK         0.0600 
    159 H159        0.9449  -17.0010  -44.6522 H         1 UNK         0.3000 
    160 H160        3.1419  -19.4186  -43.1868 H         1 UNK         0.0600 
    161 H161        3.6397  -16.7339  -44.5765 H         1 UNK         0.0600 
    162 H162        4.4533  -18.2452  -44.9578 H         1 UNK         0.0600 
    163 H163        4.6885  -17.4958  -43.3844 H         1 UNK         0.0600 
    164 H164        2.3103  -16.7329  -42.5038 H         1 UNK         0.3000 
    165 H165       -0.4480  -17.6886  -40.4494 H         1 UNK         0.0600 
    166 H166        0.8446  -16.5941  -38.6400 H         1 UNK         0.0600 
    167 H167        1.4880  -18.1987  -38.9504 H         1 UNK         0.0600 
    168 H168        2.3414  -16.7833  -39.5549 H         1 UNK         0.0600 
    169 H169        0.8919  -15.2010  -40.7874 H         1 UNK         0.3000 
    170 H170       -0.1435  -14.2849  -43.9514 H         1 UNK         0.0600 
    171 H171       -1.6240  -13.2366  -41.4837 H         1 UNK         0.0600 
    172 H172       -1.4954  -12.4302  -43.0477 H         1 UNK         0.0600 
    173 H173       -2.3942  -13.9309  -42.9058 H         1 UNK         0.0600 
    174 H174        0.7375  -12.4832  -42.1098 H         1 UNK         0.3000 
    175 H175        3.1569  -12.4566  -41.1491 H         1 UNK         0.0600 
    176 H176        4.8338  -13.3395  -43.5673 H         1 UNK         0.0600 
    177 H177        5.3953  -12.2913  -42.2653 H         1 UNK         0.0600 
    178 H178        4.9835  -13.9657  -41.9286 H         1 UNK         0.0600 
    179 H179        2.5352  -11.6993  -43.9309 H         1 UNK         0.3000 
    180 H180        1.9128   -8.4220  -43.0543 H         1 UNK         0.0600 
    181 H181        3.5176   -7.5380  -44.7382 H         1 UNK         0.0600 
    182 H182        4.4769   -9.0149  -44.6303 H         1 UNK         0.0600 
    183 H183        4.3523   -7.9362  -43.2460 H         1 UNK         0.0600 
    184 H184        2.3412   -9.6938  -45.6181 H         1 UNK         0.3000 
    185 H185       -0.6799  -11.4554  -45.7833 H         1 UNK         0.0600 
    186 H186       -0.1040   -8.7929  -47.1911 H         1 UNK         0.0600 
    187 H187       -1.2214  -10.0402  -47.7446 H         1 UNK         0.0600 
    188 H188       -1.5536   -9.1587  -46.2620 H         1 UNK         0.0600 
    189 H189        1.1582  -10.8589  -47.8465 H         1 UNK         0.3000 
    190 H190       -1.9580  -21.8063  -46.5572 H         1 UNK         0.3000 
    191 H191       -3.6587  -23.2335  -48.3320 H         1 UNK         0.0600 
    192 H192       -4.1655  -20.9633  -47.5180 H         1 UNK         0.0600 
    193 H193       -4.2816  -21.5435  -45.8572 H         1 UNK         0.0600 
    194 H194       -5.4658  -22.0529  -47.0516 H         1 UNK         0.0600 
    195 H195       -2.4921  -24.1479  -45.1756 H         1 UNK         0.3000 
    196 H196       -4.5688  -26.2085  -44.7703 H         1 UNK         0.0600 
    197 H197       -3.6166  -25.0158  -42.8033 H         1 UNK         0.0600 
    198 H198       -2.0075  -25.6109  -43.1998 H         1 UNK         0.0600 
    199 H199       -3.2740  -26.7387  -42.7388 H         1 UNK         0.0600 
    200 H200       -1.1116  -25.9421  -45.6862 H         1 UNK         0.3000 
    201 H201       -0.6295  -28.7409  -45.9256 H         1 UNK         0.0600 
    202 H202        1.1556  -27.0775  -45.4921 H         1 UNK         0.0600 
    203 H203        0.8844  -26.3339  -47.0670 H         1 UNK         0.0600 
    204 H204        1.5121  -27.9750  -46.9607 H         1 UNK         0.0600 
    205 H205       -1.6638  -26.2847  -48.3189 H         1 UNK         0.3000 
    206 H206       -2.2271  -28.3813  -50.3246 H         1 UNK         0.0600 
    207 H207       -0.4961  -25.8813  -50.8153 H         1 UNK         0.0600 
    208 H208        0.0982  -27.5403  -50.8178 H         1 UNK         0.0600 
    209 H209       -1.0263  -27.0115  -52.0570 H         1 UNK         0.0600 
    210 H210       -3.4112  -27.3052  -52.2083 H         1 UNK         0.3000 
    211 H211       -5.6987  -25.8701  -51.1803 H         1 UNK         0.0600 
    212 H212       -5.0153  -26.7897  -54.0191 H         1 UNK         0.0600 
    213 H213       -6.6028  -26.3040  -53.4387 H         1 UNK         0.0600 
    214 H214       -5.8573  -27.7583  -52.8091 H         1 UNK         0.0600 
    215 H215       -3.3785  -24.2352  -50.9497 H         1 UNK         0.3000 
    216 H216       -2.9500  -22.4235  -53.0781 H         1 UNK         0.0600 
    217 H217       -1.7598  -21.0720  -51.3598 H         1 UNK         0.0600 
    218 H218       -1.3476  -22.7729  -51.2086 H         1 UNK         0.0600 
    219 H219       -2.4738  -22.0333  -50.0736 H         1 UNK         0.0600 
    220 H220       -5.2900  -22.3061  -50.4118 H         1 UNK         0.3000 
    221 H221       -6.1793  -19.5999  -50.8844 H         1 UNK         0.0600 
    222 H222       -7.4356  -21.9306  -49.3417 H         1 UNK         0.0600 
    223 H223       -6.4718  -20.6080  -48.6794 H         1 UNK         0.0600 
    224 H224       -8.0593  -20.2849  -49.3483 H         1 UNK         0.0600 
    225 H225       -7.2540  -22.8135  -52.0099 H         1 UNK         0.3000 
    226 H226       -9.6342  -21.8822  -53.3597 H         1 UNK         0.0600 
    227 H227       -9.3829  -24.2312  -52.5596 H         1 UNK         0.0600 
    228 H228       -9.6670  -24.1814  -54.2930 H         1 UNK         0.0600 
    229 H229       -8.0466  -24.4823  -53.6830 H         1 UNK         0.0600 
    230 H230       -6.2588  -22.5047  -54.3049 H         1 UNK         0.3000 
    231 H231       -6.5532  -21.7943  -57.0877 H         1 UNK         0.0600 
    232 H232       -4.0645  -21.8734  -57.0347 H         1 UNK         0.0600 
    233 H233       -4.7353  -23.2720  -56.2096 H         1 UNK         0.0600 
    234 H234       -4.0808  -21.9277  -55.2764 H         1 UNK         0.0600 
    235 H235       -6.6577  -19.8811  -54.2963 H         1 UNK         0.3000 
    236 H236       -6.4884  -17.7529  -53.7405 H         1 UNK         0.0600 
    237 H237       -6.9113  -17.1578  -56.7185 H         1 UNK         0.0600 
    238 H238       -8.1926  -17.4984  -55.5561 H         1 UNK         0.0600 
    239 H239       -7.2107  -16.0532  -55.3828 H         1 UNK         0.0600 
    240 H240       -4.0670  -19.0595  -54.0139 H         1 UNK         0.3000 
    241 H241       -1.9134  -18.8704  -54.0973 H         1 UNK         0.0600 
    242 H242       -3.5383  -18.7649  -56.8705 H         1 UNK         0.3800 
    243 H243       -2.1963  -18.5519  -57.9633 H         1 UNK         0.3800 
    244 H244       -2.5129  -16.5033  -52.9768 H         1 UNK         0.0800 
    245 H245       -1.8254  -15.8541  -54.4322 H         1 UNK         0.0800 
    246 H246       -1.0905  -16.7513  -50.8635 H         1 UNK         0.0800 
    247 H247       -1.2814  -18.3818  -51.4702 H         1 UNK         0.0800 
@<TRIPOS>BOND
     1    1    2 1    
     2    1  127 1    
     3    1  128 1    
     4    1  129 1    
     5    2    3 2    
     6    2    4 am   BACKBONE|DICT|INTERRES
     7    4    5 1    
     8    4  130 1    
     9    5    6 1    
    10    5   65 1    
    11    5  131 1    
    12    6    7 1    
    13    6  132 1    
    14    6  133 1    
    15    7    8 1    
    16    8    9 1    
    17    8  134 1    
    18    8  135 1    
    19    9   10 ar   
    20    9   14 ar   
    21   10   11 ar   
    22   10  136 1    
    23   11   12 ar   
    24   11  126 1    
    25   12   13 ar   
    26   12  137 1    
    27   13   14 ar   
    28   13   15 1    
    29   14  138 1    
    30   15   16 1    
    31   15  139 1    
    32   15  140 1    
    33   16   17 1    
    34   17   18 1    
    35   17  141 1    
    36   17  142 1    
    37   18   19 1    
    38   18   67 1    
    39   18  143 1    
    40   19   20 am   BACKBONE|DICT|INTERRES
    41   19  144 1    
    42   20   21 2    
    43   20   22 1    
    44   22   23 1    
    45   22   24 1    
    46   22  145 1    
    47   23  146 1    
    48   23  147 1    
    49   23  148 1    
    50   24   25 am   BACKBONE|DICT|INTERRES
    51   24  149 1    
    52   25   26 2    
    53   25   27 1    
    54   27   28 1    
    55   27   29 1    
    56   27  150 1    
    57   28  151 1    
    58   28  152 1    
    59   28  153 1    
    60   29   30 am   BACKBONE|DICT|INTERRES
    61   29  154 1    
    62   30   31 2    
    63   30   32 1    
    64   32   33 1    
    65   32   34 1    
    66   32  155 1    
    67   33  156 1    
    68   33  157 1    
    69   33  158 1    
    70   34   35 am   BACKBONE|DICT|INTERRES
    71   34  159 1    
    72   35   36 2    
    73   35   37 1    
    74   37   38 1    
    75   37   39 1    
    76   37  160 1    
    77   38  161 1    
    78   38  162 1    
    79   38  163 1    
    80   39   40 am   BACKBONE|DICT|INTERRES
    81   39  164 1    
    82   40   41 2    
    83   40   42 1    
    84   42   43 1    
    85   42   44 1    
    86   42  165 1    
    87   43  166 1    
    88   43  167 1    
    89   43  168 1    
    90   44   45 am   BACKBONE|DICT|INTERRES
    91   44  169 1    
    92   45   46 2    
    93   45   47 1    
    94   47   48 1    
    95   47   49 1    
    96   47  170 1    
    97   48  171 1    
    98   48  172 1    
    99   48  173 1    
   100   49   50 am   BACKBONE|DICT|INTERRES
   101   49  174 1    
   102   50   51 2    
   103   50   52 1    
   104   52   53 1    
   105   52   54 1    
   106   52  175 1    
   107   53  176 1    
   108   53  177 1    
   109   53  178 1    
   110   54   55 am   BACKBONE|DICT|INTERRES
   111   54  179 1    
   112   55   56 2    
   113   55   57 1    
   114   57   58 1    
   115   57   59 1    
   116   57  180 1    
   117   58  181 1    
   118   58  182 1    
   119   58  183 1    
   120   59   60 am   BACKBONE|DICT|INTERRES
   121   59  184 1    
   122   60   61 2    
   123   60   62 1    
   124   62   63 1    
   125   62   64 1    
   126   62  185 1    
   127   63  186 1    
   128   63  187 1    
   129   63  188 1    
   130   64   65 am   BACKBONE|DICT|INTERRES
   131   64  189 1    
   132   65   66 2    
   133   67   68 2    
   134   67   69 am   BACKBONE|DICT|INTERRES
   135   69   70 1    
   136   69  190 1    
   137   70   71 1    
   138   70   72 1    
   139   70  191 1    
   140   71  192 1    
   141   71  193 1    
   142   71  194 1    
   143   72   73 2    
   144   72   74 am   BACKBONE|DICT|INTERRES
   145   74   75 1    
   146   74  195 1    
   147   75   76 1    
   148   75   77 1    
   149   75  196 1    
   150   76  197 1    
   151   76  198 1    
   152   76  199 1    
   153   77   78 2    
   154   77   79 am   BACKBONE|DICT|INTERRES
   155   79   80 1    
   156   79  200 1    
   157   80   81 1    
   158   80   82 1    
   159   80  201 1    
   160   81  202 1    
   161   81  203 1    
   162   81  204 1    
   163   82   83 2    
   164   82   84 am   BACKBONE|DICT|INTERRES
   165   84   85 1    
   166   84  205 1    
   167   85   86 1    
   168   85   87 1    
   169   85  206 1    
   170   86  207 1    
   171   86  208 1    
   172   86  209 1    
   173   87   88 2    
   174   87   89 am   BACKBONE|DICT|INTERRES
   175   89   90 1    
   176   89  210 1    
   177   90   91 1    
   178   90   92 1    
   179   90  211 1    
   180   91  212 1    
   181   91  213 1    
   182   91  214 1    
   183   92   93 2    
   184   92   94 am   BACKBONE|DICT|INTERRES
   185   94   95 1    
   186   94  215 1    
   187   95   96 1    
   188   95   97 1    
   189   95  216 1    
   190   96  217 1    
   191   96  218 1    
   192   96  219 1    
   193   97   98 2    
   194   97   99 am   BACKBONE|DICT|INTERRES
   195   99  100 1    
   196   99  220 1    
   197  100  101 1    
   198  100  102 1    
   199  100  221 1    
   200  101  222 1    
   201  101  223 1    
   202  101  224 1    
   203  102  103 2    
   204  102  104 am   BACKBONE|DICT|INTERRES
   205  104  105 1    
   206  104  225 1    
   207  105  106 1    
   208  105  107 1    
   209  105  226 1    
   210  106  227 1    
   211  106  228 1    
   212  106  229 1    
   213  107  108 2    
   214  107  109 am   BACKBONE|DICT|INTERRES
   215  109  110 1    
   216  109  230 1    
   217  110  111 1    
   218  110  112 1    
   219  110  231 1    
   220  111  232 1    
   221  111  233 1    
   222  111  234 1    
   223  112  113 2    
   224  112  114 am   BACKBONE|DICT|INTERRES
   225  114  115 1    
   226  114  235 1    
   227  115  116 1    
   228  115  117 1    
   229  115  236 1    
   230  116  237 1    
   231  116  238 1    
   232  116  239 1    
   233  117  118 2    
   234  117  119 am   BACKBONE|DICT|INTERRES
   235  119  120 1    
   236  119  240 1    
   237  120  121 1    
   238  120  124 1    
   239  120  241 1    
   240  121  122 am   BACKBONE|DICT|INTERRES
   241  121  123 2    
   242  122  242 1    
   243  122  243 1    
   244  124  125 1    
   245  124  244 1    
   246  124  245 1    
   247  125  126 1    
   248  126  246 1    
   249  126  247 1    
@<TRIPOS>SUBSTRUCTURE
     1 UNK         1 GROUP             0       ****    0 ROOT    
