@<TRIPOS>MOLECULE
3R540
247   249    1
SMALL
USER_CHARGES


@<TRIPOS>ATOM
      1 CA          5.2258  -18.5721  -45.3043 C.3       0 UNK        -0.1800 
      2 C           4.5006  -17.6928  -46.3121 C.2       0 UNK         0.5000 
      3 O           3.3214  -17.4028  -46.1326 O.2       0 UNK        -0.5000 
      4 N           5.1942  -17.2683  -47.3734 N.am      1 UNK        -0.5000 
      5 CA          4.6625  -16.4139  -48.4368 C.3       1 UNK         0.1400 
      6 C6          5.4990  -16.5738  -49.7319 C.3       23 UNK        -0.0398 
      7 S7          4.6206  -15.9683  -51.2132 S.3       23 UNK        -0.2404 
      8 C8          4.5019  -17.4786  -52.2208 C.3       23 UNK        -0.0205 
      9 C9          3.4559  -18.4461  -51.6883 C.ar      23 UNK        -0.0193 
     10 C10         2.1045  -18.2377  -51.9803 C.ar      23 UNK        -0.1150 
     11 C11         1.1327  -19.1501  -51.5528 C.ar      23 UNK        -0.0193 
     12 C12         1.5319  -20.2628  -50.8077 C.ar      23 UNK        -0.1150 
     13 C13         2.8759  -20.4738  -50.4889 C.ar      23 UNK        -0.0193 
     14 C14         3.8359  -19.5637  -50.9381 C.ar      23 UNK        -0.1150 
     15 C15         3.2880  -21.7086  -49.6984 C.3       23 UNK        -0.0205 
     16 S16         3.6108  -21.3719  -47.9344 S.3       23 UNK        -0.2404 
     17 C17         1.9980  -20.7757  -47.3244 C.3       23 UNK        -0.0398 
     18 CA          1.0810  -21.8787  -46.7357 C.3       11 UNK         0.1400 
     19 N           0.1015  -21.3137  -45.8022 N.am      11 UNK        -0.5000 
     20 C          -0.7742  -22.0120  -45.0662 C.2       10 UNK         0.5000 
     21 O          -0.7748  -23.2397  -44.9962 O.2       10 UNK        -0.5000 
     22 CA         -1.8756  -21.2084  -44.3481 C.3       10 UNK         0.1400 
     23 CB         -1.3980  -20.6999  -42.9796 C.3       10 UNK        -0.1800 
     24 N          -2.3440  -20.0857  -45.1649 N.am      10 UNK        -0.5000 
     25 C          -3.1104  -20.2197  -46.2579 C.2       9 UNK         0.5000 
     26 O          -3.5903  -21.2926  -46.6233 O.2       9 UNK        -0.5000 
     27 CA         -3.3433  -18.9585  -47.1123 C.3       9 UNK         0.1400 
     28 CB         -4.6106  -18.2144  -46.6663 C.3       9 UNK        -0.1800 
     29 N          -2.1923  -18.0506  -47.0863 N.am      9 UNK        -0.5000 
     30 C          -1.0452  -18.2971  -47.7375 C.2       8 UNK         0.5000 
     31 O          -0.8803  -19.2858  -48.4476 O.2       8 UNK        -0.5000 
     32 CA          0.1318  -17.3238  -47.5304 C.3       8 UNK         0.1400 
     33 CB          0.1230  -16.2188  -48.5943 C.3       8 UNK        -0.1800 
     34 N           0.1666  -16.7234  -46.1979 N.am      8 UNK        -0.5000 
     35 C           0.3112  -17.4142  -45.0593 C.2       7 UNK         0.5000 
     36 O           0.4356  -18.6370  -45.0192 O.2       7 UNK        -0.5000 
     37 CA          0.2250  -16.6252  -43.7402 C.3       7 UNK         0.1400 
     38 CB          1.6028  -16.0784  -43.3415 C.3       7 UNK        -0.1800 
     39 N          -0.7582  -15.5368  -43.7563 N.am      7 UNK        -0.5000 
     40 C          -2.0604  -15.6795  -44.0540 C.2       6 UNK         0.5000 
     41 O          -2.5600  -16.7515  -44.4004 O.2       6 UNK        -0.5000 
     42 CA         -2.9468  -14.4186  -43.9559 C.3       6 UNK         0.1400 
     43 CB         -4.4534  -14.7444  -43.8894 C.3       6 UNK        -0.1800 
     44 N          -2.5564  -13.5264  -42.8608 N.am      6 UNK        -0.5000 
     45 C          -2.4893  -13.8210  -41.5514 C.2       5 UNK         0.5000 
     46 O          -2.8729  -14.8891  -41.0718 O.2       5 UNK        -0.5000 
     47 CA         -1.8792  -12.7454  -40.6206 C.3       5 UNK         0.1400 
     48 CB         -1.0882  -13.3670  -39.4503 C.3       5 UNK        -0.1800 
     49 N          -1.0588  -11.7429  -41.3159 N.am      5 UNK        -0.5000 
     50 C           0.0370  -11.9669  -42.0552 C.2       4 UNK         0.5000 
     51 O           0.5357  -13.0786  -42.2423 O.2       4 UNK        -0.5000 
     52 CA          0.6340  -10.7413  -42.7675 C.3       4 UNK         0.1400 
     53 CB          2.0595  -10.4593  -42.2684 C.3       4 UNK        -0.1800 
     54 N           0.6629  -10.9272  -44.2180 N.am      4 UNK        -0.5000 
     55 C          -0.3930  -11.1889  -45.0041 C.2       3 UNK         0.5000 
     56 O          -1.5521  -11.2639  -44.5927 O.2       3 UNK        -0.5000 
     57 CA         -0.1058  -11.4089  -46.5024 C.3       3 UNK         0.1400 
     58 CB         -0.3986  -10.1283  -47.2986 C.3       3 UNK        -0.1800 
     59 N           1.2777  -11.8221  -46.7523 N.am      3 UNK        -0.5000 
     60 C           1.7357  -13.0625  -46.5474 C.2       2 UNK         0.5000 
     61 O           1.0234  -14.0070  -46.2014 O.2       2 UNK        -0.5000 
     62 CA          3.2459  -13.2630  -46.7202 C.3       2 UNK         0.1400 
     63 CB          3.9820  -13.0366  -45.3875 C.3       2 UNK        -0.1800 
     64 N           3.5165  -14.6087  -47.2162 N.am      2 UNK        -0.5000 
     65 C           4.5803  -14.9470  -47.9531 C.2       1 UNK         0.5000 
     66 O           5.4878  -14.1582  -48.2272 O.2       1 UNK        -0.5000 
     67 C           0.3724  -22.6961  -47.8385 C.2       11 UNK         0.5000 
     68 O           0.7370  -23.8469  -48.0837 O.2       11 UNK        -0.5000 
     69 N          -0.6819  -22.1159  -48.4312 N.am      12 UNK        -0.5000 
     70 CA         -1.5362  -22.7433  -49.4397 C.3       12 UNK         0.1400 
     71 CB         -2.5232  -21.7101  -50.0023 C.3       12 UNK        -0.1800 
     72 C          -2.3096  -23.9721  -48.9327 C.2       12 UNK         0.5000 
     73 O          -2.7171  -24.7910  -49.7523 O.2       12 UNK        -0.5000 
     74 N          -2.5199  -24.1006  -47.6163 N.am      13 UNK        -0.5000 
     75 CA         -3.1455  -25.2784  -47.0091 C.3       13 UNK         0.1400 
     76 CB         -3.6271  -24.9438  -45.5899 C.3       13 UNK        -0.1800 
     77 C          -2.2171  -26.5074  -47.0147 C.2       13 UNK         0.5000 
     78 O          -2.7138  -27.6339  -47.0141 O.2       13 UNK        -0.5000 
     79 N          -0.8983  -26.2733  -47.0433 N.am      14 UNK        -0.5000 
     80 CA          0.1213  -27.3081  -47.1889 C.3       14 UNK         0.1400 
     81 CB          1.3549  -26.9235  -46.3562 C.3       14 UNK        -0.1800 
     82 C           0.5013  -27.5065  -48.6661 C.2       14 UNK         0.5000 
     83 O           0.6013  -28.6471  -49.1192 O.2       14 UNK        -0.5000 
     84 N           0.7242  -26.3974  -49.3851 N.am      15 UNK        -0.5000 
     85 CA          1.2347  -26.3934  -50.7575 C.3       15 UNK         0.1400 
     86 CB          1.8848  -25.0303  -51.0379 C.3       15 UNK        -0.1800 
     87 C           0.1788  -26.7104  -51.8328 C.2       15 UNK         0.5000 
     88 O           0.5527  -27.1487  -52.9219 O.2       15 UNK        -0.5000 
     89 N          -1.1019  -26.4672  -51.5355 N.am      16 UNK        -0.5000 
     90 CA         -2.2218  -26.6245  -52.4579 C.3       16 UNK         0.1400 
     91 CB         -2.4746  -25.2868  -53.1886 C.3       16 UNK        -0.1800 
     92 C          -3.4339  -27.1785  -51.6880 C.2       16 UNK         0.5000 
     93 O          -3.3093  -28.2254  -51.0496 O.2       16 UNK        -0.5000 
     94 N          -4.5770  -26.4859  -51.7622 N.am      17 UNK        -0.5000 
     95 CA         -5.8429  -26.8691  -51.1385 C.3       17 UNK         0.1400 
     96 CB         -6.7636  -27.4913  -52.2056 C.3       17 UNK        -0.1800 
     97 C          -6.4838  -25.6729  -50.4094 C.2       17 UNK         0.5000 
     98 O          -7.7005  -25.4935  -50.4797 O.2       17 UNK        -0.5000 
     99 N          -5.6505  -24.8794  -49.7181 N.am      18 UNK        -0.5000 
    100 CA        -6.0183  -23.7218  -48.8891 C.3       18 UNK         0.1400 
    101 CB        -6.8835  -24.1498  -47.6844 C.3       18 UNK        -0.1800 
    102 C         -6.6398  -22.5787  -49.7135 C.2       18 UNK         0.5000 
    103 O         -7.7128  -22.0733  -49.3788 O.2       18 UNK        -0.5000 
    104 N         -5.9443  -22.2057  -50.7960 N.am      19 UNK        -0.5000 
    105 CA        -6.2904  -21.1042  -51.6909 C.3       19 UNK         0.1400 
    106 CB        -5.3982  -21.1789  -52.9425 C.3       19 UNK        -0.1800 
    107 C         -6.1590  -19.7407  -50.9853 C.2       19 UNK         0.5000 
    108 O         -5.0708  -19.1617  -50.9583 O.2       19 UNK        -0.5000 
    109 N         -7.2725  -19.2469  -50.4304 N.am      20 UNK        -0.5000 
    110 CA        -7.3667  -17.9714  -49.7128 C.3       20 UNK         0.1400 
    111 CB        -8.7328  -17.8911  -49.0155 C.3       20 UNK        -0.1800 
    112 C         -7.1361  -16.7325  -50.6020 C.2       20 UNK         0.5000 
    113 O         -6.7787  -15.6752  -50.0827 O.2       20 UNK        -0.5000 
    114 N         -7.3226  -16.8870  -51.9214 N.am      21 UNK        -0.5000 
    115 CA        -6.9930  -15.8825  -52.9352 C.3       21 UNK         0.1400 
    116 CB        -7.6132  -16.3014  -54.2769 C.3       21 UNK        -0.1800 
    117 C         -5.4730  -15.6670  -53.0849 C.2       21 UNK         0.5000 
    118 O         -5.0479  -14.5574  -53.4085 O.2       21 UNK        -0.5000 
    119 N         -4.6909  -16.7244  -52.8334 N.am      22 UNK        -0.5000 
    120 CA        -3.2315  -16.6757  -52.6988 C.3       22 UNK         0.1400 
    121 C         -2.8421  -16.3218  -51.2377 C.2       22 UNK         0.5000 
    122 N         -3.3441  -17.0521  -50.2485 N.am      22 UNK        -0.7600 
    123 O         -2.1056  -15.3694  -51.0008 O.2       22 UNK        -0.5000 
    124 C124       -2.5948  -18.0023  -53.1862 C.3       23 UNK        -0.0398 
    125 S125       -0.7721  -17.9550  -53.2989 S.3       23 UNK        -0.2404 
    126 C126       -0.3557  -18.9728  -51.8440 C.3       23 UNK        -0.0205 
    127 H127        5.2092  -18.1049  -44.3197 H         1 UNK         0.0600 
    128 H128        6.2653  -18.7406  -45.5862 H         1 UNK         0.0600 
    129 H129        4.7309  -19.5407  -45.2321 H         1 UNK         0.0600 
    130 H130        6.1715  -17.5102  -47.4519 H         1 UNK         0.3000 
    131 H131        3.6469  -16.7518  -48.6590 H         1 UNK         0.0600 
    132 H132        5.7429  -17.6256  -49.8802 H         1 UNK         0.0800 
    133 H133        6.4624  -16.0667  -49.6565 H         1 UNK         0.0800 
    134 H134        5.4796  -17.9590  -52.2844 H         1 UNK         0.0800 
    135 H135        4.2409  -17.1957  -53.2417 H         1 UNK         0.0800 
    136 H136        1.8201  -17.3646  -52.5494 H         1 UNK         0.1150 
    137 H137        0.7870  -20.9684  -50.4704 H         1 UNK         0.1150 
    138 H138        4.8788  -19.7349  -50.7118 H         1 UNK         0.1150 
    139 H139        2.5254  -22.4813  -49.7817 H         1 UNK         0.0800 
    140 H140        4.1899  -22.1332  -50.1416 H         1 UNK         0.0800 
    141 H141        1.4937  -20.2008  -48.0973 H         1 UNK         0.0800 
    142 H142        2.2334  -20.0513  -46.5434 H         1 UNK         0.0800 
    143 H143        1.6994  -22.5693  -46.1587 H         1 UNK         0.0600 
    144 H144        0.0889  -20.2997  -45.7166 H         1 UNK         0.3000 
    145 H145       -2.7187  -21.8816  -44.1775 H         1 UNK         0.0600 
    146 H146       -2.1868  -20.1492  -42.4669 H         1 UNK         0.0600 
    147 H147       -0.5327  -20.0434  -43.0642 H         1 UNK         0.0600 
    148 H148       -1.1119  -21.5330  -42.3365 H         1 UNK         0.0600 
    149 H149       -1.9811  -19.1694  -44.9377 H         1 UNK         0.3000 
    150 H150       -3.4995  -19.2823  -48.1437 H         1 UNK         0.0600 
    151 H151       -5.4897  -18.8504  -46.7771 H         1 UNK         0.0600 
    152 H152       -4.7774  -17.3200  -47.2666 H         1 UNK         0.0600 
    153 H153       -4.5589  -17.9128  -45.6203 H         1 UNK         0.0600 
    154 H154       -2.2343  -17.2811  -46.4285 H         1 UNK         0.3000 
    155 H155        1.0527  -17.8953  -47.6557 H         1 UNK         0.0600 
    156 H156        0.0882  -16.6425  -49.5989 H         1 UNK         0.0600 
    157 H157        1.0227  -15.6071  -48.5366 H         1 UNK         0.0600 
    158 H158       -0.7389  -15.5600  -48.4835 H         1 UNK         0.0600 
    159 H159        0.1572  -15.7083  -46.1462 H         1 UNK         0.3000 
    160 H160       -0.0921  -17.3285  -42.9679 H         1 UNK         0.0600 
    161 H161        1.9437  -15.3107  -44.0351 H         1 UNK         0.0600 
    162 H162        2.3526  -16.8707  -43.3369 H         1 UNK         0.0600 
    163 H163        1.5816  -15.6433  -42.3424 H         1 UNK         0.0600 
    164 H164       -0.4193  -14.6283  -43.4611 H         1 UNK         0.3000 
    165 H165       -2.7731  -13.8604  -44.8768 H         1 UNK         0.0600 
    166 H166       -5.0514  -13.8350  -43.8330 H         1 UNK         0.0600 
    167 H167       -4.7754  -15.2882  -44.7784 H         1 UNK         0.0600 
    168 H168       -4.6970  -15.3615  -43.0242 H         1 UNK         0.0600 
    169 H169       -2.2132  -12.6194  -43.1595 H         1 UNK         0.3000 
    170 H170       -2.7254  -12.2038  -40.1958 H         1 UNK         0.0600 
    171 H171       -0.2658  -13.9898  -39.8038 H         1 UNK         0.0600 
    172 H172       -0.6709  -12.5962  -38.8024 H         1 UNK         0.0600 
    173 H173       -1.7299  -13.9949  -38.8312 H         1 UNK         0.0600 
    174 H174       -1.4065  -10.7953  -41.2598 H         1 UNK         0.3000 
    175 H175        0.0163   -9.8660  -42.5568 H         1 UNK         0.0600 
    176 H176        2.7340  -11.2886  -42.4869 H         1 UNK         0.0600 
    177 H177        2.4702   -9.5614  -42.7305 H         1 UNK         0.0600 
    178 H178        2.0707  -10.3032  -41.1890 H         1 UNK         0.0600 
    179 H179        1.5739  -10.9096  -44.6486 H         1 UNK         0.3000 
    180 H180       -0.7797  -12.1921  -46.8569 H         1 UNK         0.0600 
    181 H181       -0.2557  -10.2876  -48.3675 H         1 UNK         0.0600 
    182 H182        0.2475   -9.3050  -46.9914 H         1 UNK         0.0600 
    183 H183       -1.4310   -9.8067  -47.1545 H         1 UNK         0.0600 
    184 H184        1.9173  -11.0998  -47.0515 H         1 UNK         0.3000 
    185 H185        3.5999  -12.5340  -47.4524 H         1 UNK         0.0600 
    186 H186        3.6728  -13.7572  -44.6300 H         1 UNK         0.0600 
    187 H187        5.0612  -13.1268  -45.5115 H         1 UNK         0.0600 
    188 H188        3.7848  -12.0395  -44.9925 H         1 UNK         0.0600 
    189 H189        2.8318  -15.3136  -46.9651 H         1 UNK         0.3000 
    190 H190       -0.8856  -21.1418  -48.2196 H         1 UNK         0.3000 
    191 H191       -0.8903  -23.0750  -50.2545 H         1 UNK         0.0600 
    192 H192       -3.2952  -21.4479  -49.2795 H         1 UNK         0.0600 
    193 H193       -3.0214  -22.1001  -50.8893 H         1 UNK         0.0600 
    194 H194       -2.0236  -20.7896  -50.2936 H         1 UNK         0.0600 
    195 H195       -2.1979  -23.3743  -46.9909 H         1 UNK         0.3000 
    196 H196       -4.0247  -25.5432  -47.5970 H         1 UNK         0.0600 
    197 H197       -4.2391  -24.0414  -45.5810 H         1 UNK         0.0600 
    198 H198       -2.7964  -24.7963  -44.9013 H         1 UNK         0.0600 
    199 H199       -4.2366  -25.7547  -45.1897 H         1 UNK         0.0600 
    200 H200       -0.5747  -25.3142  -47.0540 H         1 UNK         0.3000 
    201 H201       -0.2544  -28.2594  -46.8062 H         1 UNK         0.0600 
    202 H202        1.1014  -26.8309  -45.3000 H         1 UNK         0.0600 
    203 H203        1.7858  -25.9751  -46.6792 H         1 UNK         0.0600 
    204 H204        2.1332  -27.6830  -46.4388 H         1 UNK         0.0600 
    205 H205        0.6628  -25.4929  -48.9235 H         1 UNK         0.3000 
    206 H206        2.0138  -27.1549  -50.8359 H         1 UNK         0.0600 
    207 H207        2.6947  -24.8326  -50.3358 H         1 UNK         0.0600 
    208 H208        2.3107  -24.9963  -52.0415 H         1 UNK         0.0600 
    209 H209        1.1628  -24.2171  -50.9601 H         1 UNK         0.0600 
    210 H210       -1.3503  -26.1308  -50.6126 H         1 UNK         0.3000 
    211 H211       -1.9785  -27.3799  -53.2077 H         1 UNK         0.0600 
    212 H212       -2.7243  -24.4834  -52.4945 H         1 UNK         0.0600 
    213 H213       -3.2848  -25.3750  -53.9133 H         1 UNK         0.0600 
    214 H214       -1.5892  -24.9749  -53.7428 H         1 UNK         0.0600 
    215 H215       -4.5843  -25.6232  -52.2874 H         1 UNK         0.3000 
    216 H216       -5.6670  -27.6217  -50.3672 H         1 UNK         0.0600 
    217 H217       -7.6998  -27.8375  -51.7659 H         1 UNK         0.0600 
    218 H218       -6.2919  -28.3535  -52.6773 H         1 UNK         0.0600 
    219 H219       -7.0106  -26.7741  -52.9891 H         1 UNK         0.0600 
    220 H220       -4.6559  -25.0829  -49.7695 H         1 UNK         0.3000 
    221 H221       -5.0928  -23.3167  -48.4814 H         1 UNK         0.0600 
    222 H222       -7.8674  -24.5043  -47.9924 H         1 UNK         0.0600 
    223 H223       -6.4045  -24.9455  -47.1147 H         1 UNK         0.0600 
    224 H224       -7.0380  -23.3127  -47.0027 H         1 UNK         0.0600 
    225 H225       -5.0826  -22.6879  -50.9978 H         1 UNK         0.3000 
    226 H226       -7.3267  -21.2319  -52.0106 H         1 UNK         0.0600 
    227 H227       -5.5448  -22.1185  -53.4754 H         1 UNK         0.0600 
    228 H228       -5.6340  -20.3722  -53.6377 H         1 UNK         0.0600 
    229 H229       -4.3392  -21.0967  -52.6954 H         1 UNK         0.0600 
    230 H230       -8.1070  -19.8174  -50.4416 H         1 UNK         0.3000 
    231 H231       -6.5910  -17.9644  -48.9452 H         1 UNK         0.0600 
    232 H232       -8.8257  -16.9683  -48.4413 H         1 UNK         0.0600 
    233 H233       -8.8694  -18.7197  -48.3202 H         1 UNK         0.0600 
    234 H234       -9.5530  -17.9155  -49.7340 H         1 UNK         0.0600 
    235 H235       -7.6498  -17.7812  -52.2552 H         1 UNK         0.3000 
    236 H236       -7.4367  -14.9315  -52.6331 H         1 UNK         0.0600 
    237 H237       -7.2181  -17.2573  -54.6232 H         1 UNK         0.0600 
    238 H238       -8.6968  -16.3932  -54.1993 H         1 UNK         0.0600 
    239 H239       -7.4055  -15.5608  -55.0504 H         1 UNK         0.0600 
    240 H240       -5.1281  -17.5753  -52.5080 H         1 UNK         0.3000 
    241 H241       -2.8485  -15.8796  -53.3406 H         1 UNK         0.0600 
    242 H242       -3.1165  -16.8162  -49.2985 H         1 UNK         0.3800 
    243 H243       -3.9536  -17.8431  -50.4466 H         1 UNK         0.3800 
    244 H244       -2.9093  -18.8366  -52.5573 H         1 UNK         0.0800 
    245 H245       -2.9673  -18.2339  -54.1849 H         1 UNK         0.0800 
    246 H246       -0.8003  -19.9557  -52.0011 H         1 UNK         0.0800 
    247 H247       -0.8314  -18.5447  -50.9623 H         1 UNK         0.0800 
@<TRIPOS>BOND
     1    1    2 1    
     2    1  127 1    
     3    1  128 1    
     4    1  129 1    
     5    2    3 2    
     6    2    4 am   BACKBONE|DICT|INTERRES
     7    4    5 1    
     8    4  130 1    
     9    5    6 1    
    10    5   65 1    
    11    5  131 1    
    12    6    7 1    
    13    6  132 1    
    14    6  133 1    
    15    7    8 1    
    16    8    9 1    
    17    8  134 1    
    18    8  135 1    
    19    9   10 ar   
    20    9   14 ar   
    21   10   11 ar   
    22   10  136 1    
    23   11   12 ar   
    24   11  126 1    
    25   12   13 ar   
    26   12  137 1    
    27   13   14 ar   
    28   13   15 1    
    29   14  138 1    
    30   15   16 1    
    31   15  139 1    
    32   15  140 1    
    33   16   17 1    
    34   17   18 1    
    35   17  141 1    
    36   17  142 1    
    37   18   19 1    
    38   18   67 1    
    39   18  143 1    
    40   19   20 am   BACKBONE|DICT|INTERRES
    41   19  144 1    
    42   20   21 2    
    43   20   22 1    
    44   22   23 1    
    45   22   24 1    
    46   22  145 1    
    47   23  146 1    
    48   23  147 1    
    49   23  148 1    
    50   24   25 am   BACKBONE|DICT|INTERRES
    51   24  149 1    
    52   25   26 2    
    53   25   27 1    
    54   27   28 1    
    55   27   29 1    
    56   27  150 1    
    57   28  151 1    
    58   28  152 1    
    59   28  153 1    
    60   29   30 am   BACKBONE|DICT|INTERRES
    61   29  154 1    
    62   30   31 2    
    63   30   32 1    
    64   32   33 1    
    65   32   34 1    
    66   32  155 1    
    67   33  156 1    
    68   33  157 1    
    69   33  158 1    
    70   34   35 am   BACKBONE|DICT|INTERRES
    71   34  159 1    
    72   35   36 2    
    73   35   37 1    
    74   37   38 1    
    75   37   39 1    
    76   37  160 1    
    77   38  161 1    
    78   38  162 1    
    79   38  163 1    
    80   39   40 am   BACKBONE|DICT|INTERRES
    81   39  164 1    
    82   40   41 2    
    83   40   42 1    
    84   42   43 1    
    85   42   44 1    
    86   42  165 1    
    87   43  166 1    
    88   43  167 1    
    89   43  168 1    
    90   44   45 am   BACKBONE|DICT|INTERRES
    91   44  169 1    
    92   45   46 2    
    93   45   47 1    
    94   47   48 1    
    95   47   49 1    
    96   47  170 1    
    97   48  171 1    
    98   48  172 1    
    99   48  173 1    
   100   49   50 am   BACKBONE|DICT|INTERRES
   101   49  174 1    
   102   50   51 2    
   103   50   52 1    
   104   52   53 1    
   105   52   54 1    
   106   52  175 1    
   107   53  176 1    
   108   53  177 1    
   109   53  178 1    
   110   54   55 am   BACKBONE|DICT|INTERRES
   111   54  179 1    
   112   55   56 2    
   113   55   57 1    
   114   57   58 1    
   115   57   59 1    
   116   57  180 1    
   117   58  181 1    
   118   58  182 1    
   119   58  183 1    
   120   59   60 am   BACKBONE|DICT|INTERRES
   121   59  184 1    
   122   60   61 2    
   123   60   62 1    
   124   62   63 1    
   125   62   64 1    
   126   62  185 1    
   127   63  186 1    
   128   63  187 1    
   129   63  188 1    
   130   64   65 am   BACKBONE|DICT|INTERRES
   131   64  189 1    
   132   65   66 2    
   133   67   68 2    
   134   67   69 am   BACKBONE|DICT|INTERRES
   135   69   70 1    
   136   69  190 1    
   137   70   71 1    
   138   70   72 1    
   139   70  191 1    
   140   71  192 1    
   141   71  193 1    
   142   71  194 1    
   143   72   73 2    
   144   72   74 am   BACKBONE|DICT|INTERRES
   145   74   75 1    
   146   74  195 1    
   147   75   76 1    
   148   75   77 1    
   149   75  196 1    
   150   76  197 1    
   151   76  198 1    
   152   76  199 1    
   153   77   78 2    
   154   77   79 am   BACKBONE|DICT|INTERRES
   155   79   80 1    
   156   79  200 1    
   157   80   81 1    
   158   80   82 1    
   159   80  201 1    
   160   81  202 1    
   161   81  203 1    
   162   81  204 1    
   163   82   83 2    
   164   82   84 am   BACKBONE|DICT|INTERRES
   165   84   85 1    
   166   84  205 1    
   167   85   86 1    
   168   85   87 1    
   169   85  206 1    
   170   86  207 1    
   171   86  208 1    
   172   86  209 1    
   173   87   88 2    
   174   87   89 am   BACKBONE|DICT|INTERRES
   175   89   90 1    
   176   89  210 1    
   177   90   91 1    
   178   90   92 1    
   179   90  211 1    
   180   91  212 1    
   181   91  213 1    
   182   91  214 1    
   183   92   93 2    
   184   92   94 am   BACKBONE|DICT|INTERRES
   185   94   95 1    
   186   94  215 1    
   187   95   96 1    
   188   95   97 1    
   189   95  216 1    
   190   96  217 1    
   191   96  218 1    
   192   96  219 1    
   193   97   98 2    
   194   97   99 am   BACKBONE|DICT|INTERRES
   195   99  100 1    
   196   99  220 1    
   197  100  101 1    
   198  100  102 1    
   199  100  221 1    
   200  101  222 1    
   201  101  223 1    
   202  101  224 1    
   203  102  103 2    
   204  102  104 am   BACKBONE|DICT|INTERRES
   205  104  105 1    
   206  104  225 1    
   207  105  106 1    
   208  105  107 1    
   209  105  226 1    
   210  106  227 1    
   211  106  228 1    
   212  106  229 1    
   213  107  108 2    
   214  107  109 am   BACKBONE|DICT|INTERRES
   215  109  110 1    
   216  109  230 1    
   217  110  111 1    
   218  110  112 1    
   219  110  231 1    
   220  111  232 1    
   221  111  233 1    
   222  111  234 1    
   223  112  113 2    
   224  112  114 am   BACKBONE|DICT|INTERRES
   225  114  115 1    
   226  114  235 1    
   227  115  116 1    
   228  115  117 1    
   229  115  236 1    
   230  116  237 1    
   231  116  238 1    
   232  116  239 1    
   233  117  118 2    
   234  117  119 am   BACKBONE|DICT|INTERRES
   235  119  120 1    
   236  119  240 1    
   237  120  121 1    
   238  120  124 1    
   239  120  241 1    
   240  121  122 am   BACKBONE|DICT|INTERRES
   241  121  123 2    
   242  122  242 1    
   243  122  243 1    
   244  124  125 1    
   245  124  244 1    
   246  124  245 1    
   247  125  126 1    
   248  126  246 1    
   249  126  247 1    
@<TRIPOS>SUBSTRUCTURE
     1 UNK         1 GROUP             0       ****    0 ROOT    
