@<TRIPOS>MOLECULE
3R540
247   249    1
SMALL
USER_CHARGES


@<TRIPOS>ATOM
      1 CA          4.7496   -9.1146  -51.5034 C.3       0 UNK        -0.1800 
      2 C           4.5063  -10.6117  -51.6362 C.2       0 UNK         0.5000 
      3 O           5.1153  -11.2576  -52.4899 O.2       0 UNK        -0.5000 
      4 N           3.6143  -11.1617  -50.8030 N.am      1 UNK        -0.5000 
      5 CA          3.3031  -12.5930  -50.7346 C.3       1 UNK         0.1400 
      6 C6          1.9282  -12.8316  -50.0576 C.3       23 UNK        -0.0398 
      7 S7          1.1509  -14.3951  -50.5924 S.3       23 UNK        -0.2404 
      8 C8          0.9203  -15.2430  -49.0015 C.3       23 UNK        -0.0205 
      9 C9          0.5302  -16.6960  -49.2060 C.ar      23 UNK        -0.0193 
     10 C10        -0.7998  -17.0293  -49.4764 C.ar      23 UNK        -0.1150 
     11 C11        -1.1703  -18.3633  -49.6608 C.ar      23 UNK        -0.0193 
     12 C12        -0.2058  -19.3654  -49.5545 C.ar      23 UNK        -0.1150 
     13 C13         1.1281  -19.0467  -49.2949 C.ar      23 UNK        -0.0193 
     14 C14         1.4937  -17.7078  -49.1252 C.ar      23 UNK        -0.1150 
     15 C15         2.1573  -20.1631  -49.1883 C.3       23 UNK        -0.0205 
     16 S16         2.8215  -20.3793  -47.5043 S.3       23 UNK        -0.2404 
     17 C17         1.3409  -20.3249  -46.4375 C.3       23 UNK        -0.0398 
     18 CA          0.7920  -21.7161  -46.0405 C.3       11 UNK         0.1400 
     19 N           0.3420  -21.7209  -44.6409 N.am      11 UNK        -0.5000 
     20 C          -0.0790  -22.7883  -43.9469 C.2       10 UNK         0.5000 
     21 O          -0.1370  -23.9251  -44.4140 O.2       10 UNK        -0.5000 
     22 CA         -0.5606  -22.5282  -42.5097 C.3       10 UNK         0.1400 
     23 CB          0.6270  -22.4730  -41.5364 C.3       10 UNK        -0.1800 
     24 N          -1.3169  -21.2774  -42.4334 N.am      10 UNK        -0.5000 
     25 C          -2.6350  -21.1773  -42.6577 C.2       9 UNK         0.5000 
     26 O          -3.3698  -22.1475  -42.8420 O.2       9 UNK        -0.5000 
     27 CA         -3.2389  -19.7576  -42.7056 C.3       9 UNK         0.1400 
     28 CB         -3.7338  -19.3354  -41.3144 C.3       9 UNK        -0.1800 
     29 N          -2.3137  -18.7415  -43.2104 N.am      9 UNK        -0.5000 
     30 C          -1.8005  -18.7189  -44.4490 C.2       8 UNK         0.5000 
     31 O          -2.0867  -19.5397  -45.3170 O.2       8 UNK        -0.5000 
     32 CA         -0.7320  -17.6484  -44.7447 C.3       8 UNK         0.1400 
     33 CB         -1.3716  -16.3873  -45.3424 C.3       8 UNK        -0.1800 
     34 N           0.0791  -17.2850  -43.5805 N.am      8 UNK        -0.5000 
     35 C           0.7861  -18.1267  -42.8132 C.2       7 UNK         0.5000 
     36 O           0.8451  -19.3402  -43.0135 O.2       7 UNK        -0.5000 
     37 CA          1.5101  -17.5257  -41.5956 C.3       7 UNK         0.1400 
     38 CB          2.9674  -17.1809  -41.9334 C.3       7 UNK        -0.1800 
     39 N           0.8431  -16.3315  -41.0749 N.am      7 UNK        -0.5000 
     40 C          -0.2630  -16.3404  -40.3191 C.2       6 UNK         0.5000 
     41 O          -0.8470  -17.3684  -39.9762 O.2       6 UNK        -0.5000 
     42 CA         -0.8085  -14.9685  -39.8775 C.3       6 UNK         0.1400 
     43 CB         -0.1130  -14.5031  -38.5891 C.3       6 UNK        -0.1800 
     44 N          -0.6457  -13.9419  -40.9091 N.am      6 UNK        -0.5000 
     45 C          -1.4163  -13.8473  -42.0014 C.2       5 UNK         0.5000 
     46 O          -2.3824  -14.5787  -42.2193 O.2       5 UNK        -0.5000 
     47 CA         -1.0282  -12.7737  -43.0407 C.3       5 UNK         0.1400 
     48 CB         -1.7335  -11.4452  -42.7286 C.3       5 UNK        -0.1800 
     49 N           0.4159  -12.5342  -43.1716 N.am      5 UNK        -0.5000 
     50 C           1.3175  -13.4726  -43.4877 C.2       4 UNK         0.5000 
     51 O           1.0349  -14.6650  -43.6037 O.2       4 UNK        -0.5000 
     52 CA          2.7816  -13.0214  -43.6508 C.3       4 UNK         0.1400 
     53 CB          3.4245  -12.7942  -42.2733 C.3       4 UNK        -0.1800 
     54 N           3.5655  -14.0291  -44.3693 N.am      4 UNK        -0.5000 
     55 C           3.4369  -14.3042  -45.6725 C.2       3 UNK         0.5000 
     56 O           2.7653  -13.6295  -46.4584 O.2       3 UNK        -0.5000 
     57 CA          4.1547  -15.5659  -46.1714 C.3       3 UNK         0.1400 
     58 CB          3.2981  -16.8204  -45.9206 C.3       3 UNK        -0.1800 
     59 N           4.3940  -15.4301  -47.6012 N.am      3 UNK        -0.5000 
     60 C           5.4389  -15.9156  -48.2771 C.2       2 UNK         0.5000 
     61 O           6.3370  -16.5760  -47.7531 O.2       2 UNK        -0.5000 
     62 CA          5.4988  -15.6329  -49.7949 C.3       2 UNK         0.1400 
     63 CB          5.3788  -16.9429  -50.5917 C.3       2 UNK        -0.1800 
     64 N           4.4831  -14.6974  -50.2919 N.am      2 UNK        -0.5000 
     65 C           4.4436  -13.3813  -50.0473 C.2       1 UNK         0.5000 
     66 O           5.2458  -12.8040  -49.3087 O.2       1 UNK        -0.5000 
     67 C          -0.2930  -22.2102  -47.0303 C.2       11 UNK         0.5000 
     68 O           0.0372  -22.7691  -48.0769 O.2       11 UNK        -0.5000 
     69 N          -1.5706  -22.0743  -46.6486 N.am      12 UNK        -0.5000 
     70 CA         -2.7464  -22.6441  -47.3097 C.3       12 UNK         0.1400 
     71 CB         -4.0003  -22.2362  -46.5218 C.3       12 UNK        -0.1800 
     72 C          -2.7074  -24.1790  -47.4833 C.2       12 UNK         0.5000 
     73 O          -3.4103  -24.6974  -48.3490 O.2       12 UNK        -0.5000 
     74 N          -1.8912  -24.8863  -46.6857 N.am      13 UNK        -0.5000 
     75 CA         -1.6294  -26.3172  -46.8515 C.3       13 UNK         0.1400 
     76 CB         -0.9910  -26.8746  -45.5709 C.3       13 UNK        -0.1800 
     77 C          -0.7386  -26.6190  -48.0733 C.2       13 UNK         0.5000 
     78 O          -0.8849  -27.6846  -48.6727 O.2       13 UNK        -0.5000 
     79 N           0.1569  -25.6848  -48.4283 N.am      14 UNK        -0.5000 
     80 CA          0.9863  -25.7556  -49.6318 C.3       14 UNK         0.1400 
     81 CB          2.2627  -24.9201  -49.4427 C.3       14 UNK        -0.1800 
     82 C           0.1910  -25.2881  -50.8612 C.2       14 UNK         0.5000 
     83 O           0.2203  -25.9529  -51.8974 O.2       14 UNK        -0.5000 
     84 N          -0.5660  -24.1930  -50.7060 N.am      15 UNK        -0.5000 
     85 CA         -1.5243  -23.6741  -51.6872 C.3       15 UNK         0.1400 
     86 CB         -1.6821  -22.1630  -51.4648 C.3       15 UNK        -0.1800 
     87 C          -2.8672  -24.4354  -51.6197 C.2       15 UNK         0.5000 
     88 O          -3.9278  -23.8250  -51.4561 O.2       15 UNK        -0.5000 
     89 N          -2.7743  -25.7681  -51.7184 N.am      16 UNK        -0.5000 
     90 CA         -3.8541  -26.7389  -51.5585 C.3       16 UNK         0.1400 
     91 CB         -3.2729  -28.1503  -51.7334 C.3       16 UNK        -0.1800 
     92 C          -5.0355  -26.5177  -52.5200 C.2       16 UNK         0.5000 
     93 O          -4.8487  -26.0107  -53.6286 O.2       16 UNK        -0.5000 
     94 N          -6.2288  -26.9192  -52.0597 N.am      17 UNK        -0.5000 
     95 CA         -7.5343  -26.7238  -52.7027 C.3       17 UNK         0.1400 
     96 CB         -7.6168  -27.4686  -54.0527 C.3       17 UNK        -0.1800 
     97 C          -7.9377  -25.2355  -52.7999 C.2       17 UNK         0.5000 
     98 O          -8.6610  -24.8562  -53.7225 O.2       17 UNK        -0.5000 
     99 N          -7.4760  -24.4338  -51.8250 N.am      18 UNK        -0.5000 
    100 CA        -7.7169  -22.9965  -51.6602 C.3       18 UNK         0.1400 
    101 CB        -9.2007  -22.7366  -51.3217 C.3       18 UNK        -0.1800 
    102 C         -7.2145  -22.1764  -52.8655 C.2       18 UNK         0.5000 
    103 O         -7.9770  -21.4108  -53.4600 O.2       18 UNK        -0.5000 
    104 N         -5.9407  -22.3789  -53.2245 N.am      19 UNK        -0.5000 
    105 CA        -5.2784  -21.6542  -54.3062 C.3       19 UNK         0.1400 
    106 CB        -4.0896  -22.4848  -54.8136 C.3       19 UNK        -0.1800 
    107 C         -4.8246  -20.2545  -53.8508 C.2       19 UNK         0.5000 
    108 O         -4.5627  -20.0401  -52.6640 O.2       19 UNK        -0.5000 
    109 N         -4.7115  -19.3359  -54.8202 N.am      20 UNK        -0.5000 
    110 CA        -4.2935  -17.9390  -54.6602 C.3       20 UNK         0.1400 
    111 CB        -2.7910  -17.8704  -54.2973 C.3       20 UNK        -0.1800 
    112 C         -5.2127  -17.1608  -53.6904 C.2       20 UNK         0.5000 
    113 O         -6.4311  -17.3520  -53.7188 O.2       20 UNK        -0.5000 
    114 N         -4.6231  -16.3086  -52.8408 N.am      21 UNK        -0.5000 
    115 CA        -5.3088  -15.4953  -51.8303 C.3       21 UNK         0.1400 
    116 CB        -4.2909  -14.5183  -51.2202 C.3       21 UNK        -0.1800 
    117 C         -6.0001  -16.3118  -50.7171 C.2       21 UNK         0.5000 
    118 O         -6.8463  -15.7686  -50.0060 O.2       21 UNK        -0.5000 
    119 N         -5.6292  -17.5900  -50.5869 N.am      22 UNK        -0.5000 
    120 CA        -6.1905  -18.5517  -49.6303 C.3       22 UNK         0.1400 
    121 C         -7.5136  -19.2081  -50.1210 C.2       22 UNK         0.5000 
    122 N         -7.9687  -18.9643  -51.3452 N.am      22 UNK        -0.7600 
    123 O         -8.1445  -19.9467  -49.3710 O.2       22 UNK        -0.5000 
    124 C124       -5.1481  -19.6295  -49.2315 C.3       23 UNK        -0.0398 
    125 S125       -3.6216  -18.9281  -48.5128 S.3       23 UNK        -0.2404 
    126 C126       -2.6028  -18.7237  -50.0047 C.3       23 UNK        -0.0205 
    127 H127        5.7959   -8.9248  -51.2641 H         1 UNK         0.0600 
    128 H128        4.1358   -8.6717  -50.7186 H         1 UNK         0.0600 
    129 H129        4.5164   -8.6115  -52.4418 H         1 UNK         0.0600 
    130 H130        3.1761  -10.5827  -50.1012 H         1 UNK         0.3000 
    131 H131        3.2378  -12.9482  -51.7659 H         1 UNK         0.0600 
    132 H132        2.0034  -12.7812  -48.9698 H         1 UNK         0.0800 
    133 H133        1.2337  -12.0387  -50.3395 H         1 UNK         0.0800 
    134 H134        0.1542  -14.7279  -48.4197 H         1 UNK         0.0800 
    135 H135        1.8362  -15.1871  -48.4184 H         1 UNK         0.0800 
    136 H136       -1.5443  -16.2494  -49.5506 H         1 UNK         0.1150 
    137 H137       -0.4939  -20.3987  -49.6690 H         1 UNK         0.1150 
    138 H138        2.5238  -17.4589  -48.9142 H         1 UNK         0.1150 
    139 H139        1.7309  -21.1121  -49.5175 H         1 UNK         0.0800 
    140 H140        2.9841  -19.9519  -49.8675 H         1 UNK         0.0800 
    141 H141        0.5595  -19.6996  -46.8659 H         1 UNK         0.0800 
    142 H142        1.6703  -19.7880  -45.5474 H         1 UNK         0.0800 
    143 H143        1.6089  -22.4390  -46.0892 H         1 UNK         0.0600 
    144 H144        0.3941  -20.8333  -44.1506 H         1 UNK         0.3000 
    145 H145       -1.1988  -23.3628  -42.2114 H         1 UNK         0.0600 
    146 H146        0.2886  -22.3142  -40.5124 H         1 UNK         0.0600 
    147 H147        1.1856  -23.4096  -41.5527 H         1 UNK         0.0600 
    148 H148        1.3238  -21.6726  -41.7862 H         1 UNK         0.0600 
    149 H149       -0.7712  -20.4293  -42.3375 H         1 UNK         0.3000 
    150 H150       -4.0971  -19.7892  -43.3801 H         1 UNK         0.0600 
    151 H151       -4.4525  -20.0549  -40.9200 H         1 UNK         0.0600 
    152 H152       -4.2309  -18.3657  -41.3492 H         1 UNK         0.0600 
    153 H153       -2.9124  -19.2657  -40.6000 H         1 UNK         0.0600 
    154 H154       -2.0075  -18.0380  -42.5532 H         1 UNK         0.3000 
    155 H155       -0.0524  -18.0517  -45.4924 H         1 UNK         0.0600 
    156 H156       -2.0411  -15.9011  -44.6326 H         1 UNK         0.0600 
    157 H157       -1.9529  -16.6308  -46.2331 H         1 UNK         0.0600 
    158 H158       -0.6123  -15.6636  -45.6403 H         1 UNK         0.0600 
    159 H159        0.1823  -16.2888  -43.4027 H         1 UNK         0.3000 
    160 H160        1.5184  -18.2902  -40.8157 H         1 UNK         0.0600 
    161 H161        3.5221  -16.9073  -41.0359 H         1 UNK         0.0600 
    162 H162        3.0309  -16.3455  -42.6291 H         1 UNK         0.0600 
    163 H163        3.4796  -18.0314  -42.3855 H         1 UNK         0.0600 
    164 H164        1.2143  -15.4425  -41.3755 H         1 UNK         0.3000 
    165 H165       -1.8731  -15.0862  -39.6632 H         1 UNK         0.0600 
    166 H166       -0.5378  -13.5661  -38.2287 H         1 UNK         0.0600 
    167 H167       -0.2323  -15.2400  -37.7937 H         1 UNK         0.0600 
    168 H168        0.9567  -14.3517  -38.7387 H         1 UNK         0.0600 
    169 H169        0.1196  -13.2932  -40.7996 H         1 UNK         0.3000 
    170 H170       -1.3849  -13.1262  -44.0109 H         1 UNK         0.0600 
    171 H171       -2.8125  -11.5844  -42.6481 H         1 UNK         0.0600 
    172 H172       -1.3866  -11.0171  -41.7873 H         1 UNK         0.0600 
    173 H173       -1.5608  -10.7115  -43.5161 H         1 UNK         0.0600 
    174 H174        0.7216  -11.5773  -43.0683 H         1 UNK         0.3000 
    175 H175        2.8003  -12.0874  -44.2160 H         1 UNK         0.0600 
    176 H176        3.4156  -13.7020  -41.6684 H         1 UNK         0.0600 
    177 H177        4.4601  -12.4681  -42.3717 H         1 UNK         0.0600 
    178 H178        2.8964  -12.0214  -41.7133 H         1 UNK         0.0600 
    179 H179        4.1230  -14.6448  -43.7970 H         1 UNK         0.3000 
    180 H180        5.1058  -15.6565  -45.6425 H         1 UNK         0.0600 
    181 H181        2.3206  -16.7452  -46.3983 H         1 UNK         0.0600 
    182 H182        3.1251  -16.9756  -44.8573 H         1 UNK         0.0600 
    183 H183        3.7891  -17.7157  -46.3011 H         1 UNK         0.0600 
    184 H184        3.7489  -14.8137  -48.0753 H         1 UNK         0.3000 
    185 H185        6.4807  -15.2007  -49.9980 H         1 UNK         0.0600 
    186 H186        6.1404  -17.6614  -50.2861 H         1 UNK         0.0600 
    187 H187        4.4068  -17.4154  -50.4474 H         1 UNK         0.0600 
    188 H188        5.5120  -16.7689  -51.6596 H         1 UNK         0.0600 
    189 H189        3.7694  -15.0964  -50.8859 H         1 UNK         0.3000 
    190 H190       -1.7574  -21.4990  -45.8348 H         1 UNK         0.3000 
    191 H191       -2.8096  -22.2005  -48.3038 H         1 UNK         0.0600 
    192 H192       -3.9944  -22.6569  -45.5157 H         1 UNK         0.0600 
    193 H193       -4.9060  -22.5842  -47.0199 H         1 UNK         0.0600 
    194 H194       -4.0770  -21.1530  -46.4295 H         1 UNK         0.0600 
    195 H195       -1.3533  -24.4074  -45.9704 H         1 UNK         0.3000 
    196 H196       -2.5839  -26.8265  -47.0008 H         1 UNK         0.0600 
    197 H197       -1.6131  -26.6742  -44.6984 H         1 UNK         0.0600 
    198 H198       -0.0074  -26.4400  -45.3892 H         1 UNK         0.0600 
    199 H199       -0.8628  -27.9556  -45.6390 H         1 UNK         0.0600 
    200 H200        0.1732  -24.8051  -47.9263 H         1 UNK         0.3000 
    201 H201        1.2883  -26.7921  -49.7967 H         1 UNK         0.0600 
    202 H202        2.8232  -25.2500  -48.5680 H         1 UNK         0.0600 
    203 H203        2.0471  -23.8587  -49.3206 H         1 UNK         0.0600 
    204 H204        2.9205  -25.0196  -50.3068 H         1 UNK         0.0600 
    205 H205       -0.5266  -23.7115  -49.8141 H         1 UNK         0.3000 
    206 H206       -1.1234  -23.8190  -52.6925 H         1 UNK         0.0600 
    207 H207       -2.3836  -21.7221  -52.1720 H         1 UNK         0.0600 
    208 H208       -2.0533  -21.9493  -50.4638 H         1 UNK         0.0600 
    209 H209       -0.7302  -21.6491  -51.5963 H         1 UNK         0.0600 
    210 H210       -1.8503  -26.1519  -51.8759 H         1 UNK         0.3000 
    211 H211       -4.2200  -26.6374  -50.5346 H         1 UNK         0.0600 
    212 H212       -2.8571  -28.2909  -52.7320 H         1 UNK         0.0600 
    213 H213       -4.0383  -28.9132  -51.5857 H         1 UNK         0.0600 
    214 H214       -2.4804  -28.3432  -51.0097 H         1 UNK         0.0600 
    215 H215       -6.2648  -27.3484  -51.1451 H         1 UNK         0.3000 
    216 H216       -8.2663  -27.1840  -52.0374 H         1 UNK         0.0600 
    217 H217       -8.6379  -27.4683  -54.4356 H         1 UNK         0.0600 
    218 H218       -7.3113  -28.5096  -53.9487 H         1 UNK         0.0600 
    219 H219       -6.9862  -27.0071  -54.8128 H         1 UNK         0.0600 
    220 H220       -6.8598  -24.8475  -51.1402 H         1 UNK         0.3000 
    221 H221       -7.1229  -22.6748  -50.8031 H         1 UNK         0.0600 
    222 H222       -9.8625  -23.0182  -52.1411 H         1 UNK         0.0600 
    223 H223       -9.5059  -23.2948  -50.4367 H         1 UNK         0.0600 
    224 H224       -9.3757  -21.6814  -51.1130 H         1 UNK         0.0600 
    225 H225       -5.3535  -22.9842  -52.6589 H         1 UNK         0.3000 
    226 H226       -5.9833  -21.5372  -55.1322 H         1 UNK         0.0600 
    227 H227       -3.5958  -21.9925  -55.6522 H         1 UNK         0.0600 
    228 H228       -3.3413  -22.6390  -54.0388 H         1 UNK         0.0600 
    229 H229       -4.4156  -23.4664  -55.1586 H         1 UNK         0.0600 
    230 H230       -4.9759  -19.5987  -55.7590 H         1 UNK         0.3000 
    231 H231       -4.4196  -17.4683  -55.6361 H         1 UNK         0.0600 
    232 H232       -2.1951  -18.4529  -55.0001 H         1 UNK         0.0600 
    233 H233       -2.5910  -18.2597  -53.2982 H         1 UNK         0.0600 
    234 H234       -2.4157  -16.8474  -54.3402 H         1 UNK         0.0600 
    235 H235       -3.6192  -16.2111  -52.8840 H         1 UNK         0.3000 
    236 H236       -6.0837  -14.9155  -52.3358 H         1 UNK         0.0600 
    237 H237       -3.8500  -13.8775  -51.9840 H         1 UNK         0.0600 
    238 H238       -4.7653  -13.8656  -50.4861 H         1 UNK         0.0600 
    239 H239       -3.4813  -15.0459  -50.7145 H         1 UNK         0.0600 
    240 H240       -4.9706  -17.9719  -51.2502 H         1 UNK         0.3000 
    241 H241       -6.4517  -18.0062  -48.7216 H         1 UNK         0.0600 
    242 H242       -7.4465  -18.3808  -51.9853 H         1 UNK         0.3800 
    243 H243       -8.8182  -19.4050  -51.6585 H         1 UNK         0.3800 
    244 H244       -5.5728  -20.2994  -48.4822 H         1 UNK         0.0800 
    245 H245       -4.8945  -20.2629  -50.0825 H         1 UNK         0.0800 
    246 H246       -3.0199  -17.9422  -50.6378 H         1 UNK         0.0800 
    247 H247       -2.6280  -19.6376  -50.5972 H         1 UNK         0.0800 
@<TRIPOS>BOND
     1    1    2 1    
     2    1  127 1    
     3    1  128 1    
     4    1  129 1    
     5    2    3 2    
     6    2    4 am   BACKBONE|DICT|INTERRES
     7    4    5 1    
     8    4  130 1    
     9    5    6 1    
    10    5   65 1    
    11    5  131 1    
    12    6    7 1    
    13    6  132 1    
    14    6  133 1    
    15    7    8 1    
    16    8    9 1    
    17    8  134 1    
    18    8  135 1    
    19    9   10 ar   
    20    9   14 ar   
    21   10   11 ar   
    22   10  136 1    
    23   11   12 ar   
    24   11  126 1    
    25   12   13 ar   
    26   12  137 1    
    27   13   14 ar   
    28   13   15 1    
    29   14  138 1    
    30   15   16 1    
    31   15  139 1    
    32   15  140 1    
    33   16   17 1    
    34   17   18 1    
    35   17  141 1    
    36   17  142 1    
    37   18   19 1    
    38   18   67 1    
    39   18  143 1    
    40   19   20 am   BACKBONE|DICT|INTERRES
    41   19  144 1    
    42   20   21 2    
    43   20   22 1    
    44   22   23 1    
    45   22   24 1    
    46   22  145 1    
    47   23  146 1    
    48   23  147 1    
    49   23  148 1    
    50   24   25 am   BACKBONE|DICT|INTERRES
    51   24  149 1    
    52   25   26 2    
    53   25   27 1    
    54   27   28 1    
    55   27   29 1    
    56   27  150 1    
    57   28  151 1    
    58   28  152 1    
    59   28  153 1    
    60   29   30 am   BACKBONE|DICT|INTERRES
    61   29  154 1    
    62   30   31 2    
    63   30   32 1    
    64   32   33 1    
    65   32   34 1    
    66   32  155 1    
    67   33  156 1    
    68   33  157 1    
    69   33  158 1    
    70   34   35 am   BACKBONE|DICT|INTERRES
    71   34  159 1    
    72   35   36 2    
    73   35   37 1    
    74   37   38 1    
    75   37   39 1    
    76   37  160 1    
    77   38  161 1    
    78   38  162 1    
    79   38  163 1    
    80   39   40 am   BACKBONE|DICT|INTERRES
    81   39  164 1    
    82   40   41 2    
    83   40   42 1    
    84   42   43 1    
    85   42   44 1    
    86   42  165 1    
    87   43  166 1    
    88   43  167 1    
    89   43  168 1    
    90   44   45 am   BACKBONE|DICT|INTERRES
    91   44  169 1    
    92   45   46 2    
    93   45   47 1    
    94   47   48 1    
    95   47   49 1    
    96   47  170 1    
    97   48  171 1    
    98   48  172 1    
    99   48  173 1    
   100   49   50 am   BACKBONE|DICT|INTERRES
   101   49  174 1    
   102   50   51 2    
   103   50   52 1    
   104   52   53 1    
   105   52   54 1    
   106   52  175 1    
   107   53  176 1    
   108   53  177 1    
   109   53  178 1    
   110   54   55 am   BACKBONE|DICT|INTERRES
   111   54  179 1    
   112   55   56 2    
   113   55   57 1    
   114   57   58 1    
   115   57   59 1    
   116   57  180 1    
   117   58  181 1    
   118   58  182 1    
   119   58  183 1    
   120   59   60 am   BACKBONE|DICT|INTERRES
   121   59  184 1    
   122   60   61 2    
   123   60   62 1    
   124   62   63 1    
   125   62   64 1    
   126   62  185 1    
   127   63  186 1    
   128   63  187 1    
   129   63  188 1    
   130   64   65 am   BACKBONE|DICT|INTERRES
   131   64  189 1    
   132   65   66 2    
   133   67   68 2    
   134   67   69 am   BACKBONE|DICT|INTERRES
   135   69   70 1    
   136   69  190 1    
   137   70   71 1    
   138   70   72 1    
   139   70  191 1    
   140   71  192 1    
   141   71  193 1    
   142   71  194 1    
   143   72   73 2    
   144   72   74 am   BACKBONE|DICT|INTERRES
   145   74   75 1    
   146   74  195 1    
   147   75   76 1    
   148   75   77 1    
   149   75  196 1    
   150   76  197 1    
   151   76  198 1    
   152   76  199 1    
   153   77   78 2    
   154   77   79 am   BACKBONE|DICT|INTERRES
   155   79   80 1    
   156   79  200 1    
   157   80   81 1    
   158   80   82 1    
   159   80  201 1    
   160   81  202 1    
   161   81  203 1    
   162   81  204 1    
   163   82   83 2    
   164   82   84 am   BACKBONE|DICT|INTERRES
   165   84   85 1    
   166   84  205 1    
   167   85   86 1    
   168   85   87 1    
   169   85  206 1    
   170   86  207 1    
   171   86  208 1    
   172   86  209 1    
   173   87   88 2    
   174   87   89 am   BACKBONE|DICT|INTERRES
   175   89   90 1    
   176   89  210 1    
   177   90   91 1    
   178   90   92 1    
   179   90  211 1    
   180   91  212 1    
   181   91  213 1    
   182   91  214 1    
   183   92   93 2    
   184   92   94 am   BACKBONE|DICT|INTERRES
   185   94   95 1    
   186   94  215 1    
   187   95   96 1    
   188   95   97 1    
   189   95  216 1    
   190   96  217 1    
   191   96  218 1    
   192   96  219 1    
   193   97   98 2    
   194   97   99 am   BACKBONE|DICT|INTERRES
   195   99  100 1    
   196   99  220 1    
   197  100  101 1    
   198  100  102 1    
   199  100  221 1    
   200  101  222 1    
   201  101  223 1    
   202  101  224 1    
   203  102  103 2    
   204  102  104 am   BACKBONE|DICT|INTERRES
   205  104  105 1    
   206  104  225 1    
   207  105  106 1    
   208  105  107 1    
   209  105  226 1    
   210  106  227 1    
   211  106  228 1    
   212  106  229 1    
   213  107  108 2    
   214  107  109 am   BACKBONE|DICT|INTERRES
   215  109  110 1    
   216  109  230 1    
   217  110  111 1    
   218  110  112 1    
   219  110  231 1    
   220  111  232 1    
   221  111  233 1    
   222  111  234 1    
   223  112  113 2    
   224  112  114 am   BACKBONE|DICT|INTERRES
   225  114  115 1    
   226  114  235 1    
   227  115  116 1    
   228  115  117 1    
   229  115  236 1    
   230  116  237 1    
   231  116  238 1    
   232  116  239 1    
   233  117  118 2    
   234  117  119 am   BACKBONE|DICT|INTERRES
   235  119  120 1    
   236  119  240 1    
   237  120  121 1    
   238  120  124 1    
   239  120  241 1    
   240  121  122 am   BACKBONE|DICT|INTERRES
   241  121  123 2    
   242  122  242 1    
   243  122  243 1    
   244  124  125 1    
   245  124  244 1    
   246  124  245 1    
   247  125  126 1    
   248  126  246 1    
   249  126  247 1    
@<TRIPOS>SUBSTRUCTURE
     1 UNK         1 GROUP             0       ****    0 ROOT    
