@<TRIPOS>MOLECULE
3R540
247   249    1
SMALL
USER_CHARGES


@<TRIPOS>ATOM
      1 CA          2.4273   -9.2472  -48.6962 C.3       0 UNK        -0.1800 
      2 C           1.5358  -10.3938  -49.1702 C.2       0 UNK         0.5000 
      3 O           0.3296  -10.2006  -49.3094 O.2       0 UNK        -0.5000 
      4 N           2.0702  -11.5911  -49.4472 N.am      1 UNK        -0.5000 
      5 CA          3.4626  -12.0159  -49.2589 C.3       1 UNK         0.1400 
      6 C6          3.7660  -13.2941  -50.0864 C.3       23 UNK        -0.0398 
      7 S7          2.8919  -14.7873  -49.4988 S.3       23 UNK        -0.2404 
      8 C8          1.8308  -15.2062  -50.9135 C.3       23 UNK        -0.0205 
      9 C9          0.8863  -16.3454  -50.5596 C.ar      23 UNK        -0.0193 
     10 C10        -0.4944  -16.1329  -50.5034 C.ar      23 UNK        -0.1150 
     11 C11        -1.3666  -17.1710  -50.1591 C.ar      23 UNK        -0.0193 
     12 C12        -0.8356  -18.4325  -49.8624 C.ar      23 UNK        -0.1150 
     13 C13         0.5400  -18.6650  -49.9387 C.ar      23 UNK        -0.0193 
     14 C14         1.3948  -17.6187  -50.2912 C.ar      23 UNK        -0.1150 
     15 C15         1.1042  -20.0525  -49.6774 C.3       23 UNK        -0.0205 
     16 S16         2.0045  -20.1465  -48.0993 S.3       23 UNK        -0.2404 
     17 C17         0.6481  -20.1254  -46.8813 C.3       23 UNK        -0.0398 
     18 CA          0.2769  -21.5525  -46.4053 C.3       11 UNK         0.1400 
     19 N          -0.2136  -21.5634  -45.0269 N.am      11 UNK        -0.5000 
     20 C          -0.4102  -22.6722  -44.2996 C.2       10 UNK         0.5000 
     21 O          -0.1156  -23.8048  -44.6815 O.2       10 UNK        -0.5000 
     22 CA         -1.0898  -22.4864  -42.9327 C.3       10 UNK         0.1400 
     23 CB         -0.0535  -22.1541  -41.8497 C.3       10 UNK        -0.1800 
     24 N          -2.1186  -21.4453  -42.9744 N.am      10 UNK        -0.5000 
     25 C          -3.2983  -21.5848  -43.5965 C.2       9 UNK         0.5000 
     26 O          -3.6517  -22.6188  -44.1626 O.2       9 UNK        -0.5000 
     27 CA         -4.2230  -20.3530  -43.6225 C.3       9 UNK         0.1400 
     28 CB         -5.0481  -20.2673  -42.3302 C.3       9 UNK        -0.1800 
     29 N          -3.5027  -19.0942  -43.8222 N.am      9 UNK        -0.5000 
     30 C          -2.8172  -18.7825  -44.9314 C.2       8 UNK         0.5000 
     31 O          -2.7133  -19.5276  -45.9022 O.2       8 UNK        -0.5000 
     32 CA         -2.0646  -17.4414  -44.9330 C.3       8 UNK         0.1400 
     33 CB         -3.0122  -16.3015  -45.3384 C.3       8 UNK        -0.1800 
     34 N          -1.4247  -17.1207  -43.6511 N.am      8 UNK        -0.5000 
     35 C          -0.5438  -17.9068  -43.0167 C.2       7 UNK         0.5000 
     36 O          -0.1405  -18.9803  -43.4711 O.2       7 UNK        -0.5000 
     37 CA         -0.0597  -17.4241  -41.6411 C.3       7 UNK         0.1400 
     38 CB          0.3252  -18.6087  -40.7278 C.3       7 UNK        -0.1800 
     39 N           1.0655  -16.5070  -41.8048 N.am      7 UNK        -0.5000 
     40 C           1.5724  -15.7412  -40.8283 C.2       6 UNK         0.5000 
     41 O           1.1098  -15.6913  -39.6875 O.2       6 UNK        -0.5000 
     42 CA          2.7974  -14.8765  -41.1766 C.3       6 UNK         0.1400 
     43 CB          4.0173  -15.7426  -41.5312 C.3       6 UNK        -0.1800 
     44 N           2.5170  -13.9395  -42.2608 N.am      6 UNK        -0.5000 
     45 C           1.7143  -12.8706  -42.1557 C.2       5 UNK         0.5000 
     46 O           1.1857  -12.5095  -41.1035 O.2       5 UNK        -0.5000 
     47 CA          1.4364  -12.0796  -43.4486 C.3       5 UNK         0.1400 
     48 CB          2.5248  -11.0230  -43.6907 C.3       5 UNK        -0.1800 
     49 N           1.3278  -12.9420  -44.6242 N.am      5 UNK        -0.5000 
     50 C           0.3757  -13.8676  -44.8055 C.2       4 UNK         0.5000 
     51 O          -0.5634  -14.0510  -44.0304 O.2       4 UNK        -0.5000 
     52 CA          0.5252  -14.7663  -46.0429 C.3       4 UNK         0.1400 
     53 CB         -0.0382  -14.0790  -47.2939 C.3       4 UNK        -0.1800 
     54 N           1.9122  -15.1679  -46.2708 N.am      4 UNK        -0.5000 
     55 C           2.5975  -16.0034  -45.4775 C.2       3 UNK         0.5000 
     56 O           2.1184  -16.5512  -44.4853 O.2       3 UNK        -0.5000 
     57 CA          4.0818  -16.2249  -45.8190 C.3       3 UNK         0.1400 
     58 CB          4.2427  -17.3229  -46.8801 C.3       3 UNK        -0.1800 
     59 N           4.7402  -14.9962  -46.2679 N.am      3 UNK        -0.5000 
     60 C           4.9968  -13.9511  -45.4670 C.2       2 UNK         0.5000 
     61 O           4.7323  -13.9346  -44.2655 O.2       2 UNK        -0.5000 
     62 CA          5.6106  -12.6973  -46.1222 C.3       2 UNK         0.1400 
     63 CB          7.1418  -12.8076  -46.1673 C.3       2 UNK        -0.1800 
     64 N           5.1024  -12.4312  -47.4717 N.am      2 UNK        -0.5000 
     65 C           3.8153  -12.1973  -47.7621 C.2       1 UNK         0.5000 
     66 O           2.9284  -12.1662  -46.9054 O.2       1 UNK        -0.5000 
     67 C          -0.7275  -22.2387  -47.3551 C.2       11 UNK         0.5000 
     68 O          -0.3463  -23.1358  -48.1078 O.2       11 UNK        -0.5000 
     69 N          -2.0050  -21.8447  -47.2613 N.am      12 UNK        -0.5000 
     70 CA         -3.1224  -22.3946  -48.0262 C.3       12 UNK         0.1400 
     71 CB         -4.3973  -21.6059  -47.7100 C.3       12 UNK        -0.1800 
     72 C          -3.3611  -23.8930  -47.7893 C.2       12 UNK         0.5000 
     73 O          -3.7348  -24.5889  -48.7299 O.2       12 UNK        -0.5000 
     74 N          -3.1126  -24.3770  -46.5651 N.am      13 UNK        -0.5000 
     75 CA         -3.1954  -25.7962  -46.2123 C.3       13 UNK         0.1400 
     76 CB         -3.0356  -25.9575  -44.6930 C.3       13 UNK        -0.1800 
     77 C          -2.1768  -26.6775  -46.9651 C.2       13 UNK         0.5000 
     78 O          -2.4594  -27.8531  -47.2004 O.2       13 UNK        -0.5000 
     79 N          -1.0278  -26.0986  -47.3396 N.am      14 UNK        -0.5000 
     80 CA          0.0006  -26.7521  -48.1447 C.3       14 UNK         0.1400 
     81 CB          1.3838  -26.2431  -47.7073 C.3       14 UNK        -0.1800 
     82 C          -0.2213  -26.5090  -49.6480 C.2       14 UNK         0.5000 
     83 O          -0.1554  -27.4557  -50.4329 O.2       14 UNK        -0.5000 
     84 N          -0.4546  -25.2446  -50.0239 N.am      15 UNK        -0.5000 
     85 CA         -0.5371  -24.7906  -51.4133 C.3       15 UNK         0.1400 
     86 CB         -0.3072  -23.2745  -51.4417 C.3       15 UNK        -0.1800 
     87 C          -1.8554  -25.1497  -52.1233 C.2       15 UNK         0.5000 
     88 O          -1.8458  -25.3439  -53.3402 O.2       15 UNK        -0.5000 
     89 N          -2.9605  -25.2211  -51.3675 N.am      16 UNK        -0.5000 
     90 CA         -4.3210  -25.5303  -51.8131 C.3       16 UNK         0.1400 
     91 CB         -4.4384  -27.0360  -52.1396 C.3       16 UNK        -0.1800 
     92 C          -4.7871  -24.5932  -52.9475 C.2       16 UNK         0.5000 
     93 O          -4.8907  -23.3821  -52.7328 O.2       16 UNK        -0.5000 
     94 N          -5.0340  -25.1593  -54.1360 N.am      17 UNK        -0.5000 
     95 CA         -5.4784  -24.4615  -55.3417 C.3       17 UNK         0.1400 
     96 CB         -5.7927  -25.4966  -56.4317 C.3       17 UNK        -0.1800 
     97 C          -4.4811  -23.4123  -55.8676 C.2       17 UNK         0.5000 
     98 O          -4.9168  -22.4352  -56.4758 O.2       17 UNK        -0.5000 
     99 N          -3.1787  -23.5897  -55.5944 N.am      18 UNK        -0.5000 
    100 CA        -2.1290  -22.6328  -55.9646 C.3       18 UNK         0.1400 
    101 CB        -0.7508  -23.2937  -55.8133 C.3       18 UNK        -0.1800 
    102 C         -2.1984  -21.3216  -55.1554 C.2       18 UNK         0.5000 
    103 O         -1.7619  -20.2810  -55.6474 O.2       18 UNK        -0.5000 
    104 N         -2.7713  -21.3931  -53.9472 N.am      19 UNK        -0.5000 
    105 CA        -3.0672  -20.2499  -53.0838 C.3       19 UNK         0.1400 
    106 CB        -2.8205  -20.6773  -51.6303 C.3       19 UNK        -0.1800 
    107 C         -4.5153  -19.7518  -53.2444 C.2       19 UNK         0.5000 
    108 O         -4.8787  -18.7568  -52.6183 O.2       19 UNK        -0.5000 
    109 N         -5.3305  -20.4787  -54.0243 N.am      20 UNK        -0.5000 
    110 CA        -6.7836  -20.3352  -54.1653 C.3       20 UNK         0.1400 
    111 CB        -7.1384  -19.0116  -54.8741 C.3       20 UNK        -0.1800 
    112 C         -7.5373  -20.5271  -52.8286 C.2       20 UNK         0.5000 
    113 O         -8.6055  -19.9429  -52.6395 O.2       20 UNK        -0.5000 
    114 N         -6.9596  -21.3462  -51.9327 N.am      21 UNK        -0.5000 
    115 CA        -7.4262  -21.6640  -50.5803 C.3       21 UNK         0.1400 
    116 CB        -8.6632  -22.5826  -50.6487 C.3       21 UNK        -0.1800 
    117 C         -7.6462  -20.4106  -49.6997 C.2       21 UNK         0.5000 
    118 O         -8.7205  -20.2463  -49.1190 O.2       21 UNK        -0.5000 
    119 N         -6.6281  -19.5401  -49.6284 N.am      22 UNK        -0.5000 
    120 CA        -6.6583  -18.2500  -48.9092 C.3       22 UNK         0.1400 
    121 C         -6.7789  -18.3012  -47.3525 C.2       22 UNK         0.5000 
    122 N         -6.7919  -19.4628  -46.7124 N.am      22 UNK        -0.7600 
    123 O         -6.8885  -17.2594  -46.7116 O.2       22 UNK        -0.5000 
    124 C124       -5.5249  -17.2983  -49.3778 C.3       23 UNK        -0.0398 
    125 S125       -3.8362  -17.8581  -48.9611 S.3       23 UNK        -0.2404 
    126 C126       -2.8724  -16.9128  -50.1866 C.3       23 UNK        -0.0205 
    127 H127        2.7945   -9.4336  -47.6873 H         1 UNK         0.0600 
    128 H128        1.8655   -8.3131  -48.6760 H         1 UNK         0.0600 
    129 H129        3.2771   -9.1029  -49.3626 H         1 UNK         0.0600 
    130 H130        1.4453  -12.3316  -49.7277 H         1 UNK         0.3000 
    131 H131        4.1094  -11.2265  -49.6445 H         1 UNK         0.0600 
    132 H132        3.5224  -13.1181  -51.1351 H         1 UNK         0.0800 
    133 H133        4.8357  -13.5083  -50.0769 H         1 UNK         0.0800 
    134 H134        1.2703  -14.3225  -51.2220 H         1 UNK         0.0800 
    135 H135        2.4518  -15.4981  -51.7616 H         1 UNK         0.0800 
    136 H136       -0.8930  -15.1547  -50.7335 H         1 UNK         0.1150 
    137 H137       -1.4915  -19.2443  -49.5871 H         1 UNK         0.1150 
    138 H138        2.4605  -17.7924  -50.3442 H         1 UNK         0.1150 
    139 H139        0.3150  -20.8042  -49.6989 H         1 UNK         0.0800 
    140 H140        1.7891  -20.3136  -50.4852 H         1 UNK         0.0800 
    141 H141        1.0101  -19.5350  -46.0377 H         1 UNK         0.0800 
    142 H142       -0.2147  -19.5788  -47.2657 H         1 UNK         0.0800 
    143 H143        1.1849  -22.1599  -46.4047 H         1 UNK         0.0600 
    144 H144       -0.4389  -20.6655  -44.6115 H         1 UNK         0.3000 
    145 H145       -1.5686  -23.4307  -42.6644 H         1 UNK         0.0600 
    146 H146       -0.5258  -22.0116  -40.8777 H         1 UNK         0.0600 
    147 H147        0.6692  -22.9641  -41.7448 H         1 UNK         0.0600 
    148 H148        0.5056  -21.2503  -42.0913 H         1 UNK         0.0600 
    149 H149       -1.8749  -20.5468  -42.5851 H         1 UNK         0.3000 
    150 H150       -4.9134  -20.4777  -44.4589 H         1 UNK         0.0600 
    151 H151       -5.6118  -21.1867  -42.1660 H         1 UNK         0.0600 
    152 H152       -5.7682  -19.4501  -42.3756 H         1 UNK         0.0600 
    153 H153       -4.4149  -20.1097  -41.4562 H         1 UNK         0.0600 
    154 H154       -3.5291  -18.4259  -43.0667 H         1 UNK         0.3000 
    155 H155       -1.2801  -17.5267  -45.6866 H         1 UNK         0.0600 
    156 H156       -2.4779  -15.3613  -45.4665 H         1 UNK         0.0600 
    157 H157       -3.7931  -16.1434  -44.5938 H         1 UNK         0.0600 
    158 H158       -3.5060  -16.5211  -46.2855 H         1 UNK         0.0600 
    159 H159       -1.6584  -16.2246  -43.2451 H         1 UNK         0.3000 
    160 H160       -0.8841  -16.8843  -41.1706 H         1 UNK         0.0600 
    161 H161        1.2173  -19.1203  -41.0907 H         1 UNK         0.0600 
    162 H162       -0.4811  -19.3410  -40.6770 H         1 UNK         0.0600 
    163 H163        0.5210  -18.2853  -39.7060 H         1 UNK         0.0600 
    164 H164        1.4818  -16.4842  -42.7354 H         1 UNK         0.3000 
    165 H165        3.0558  -14.2956  -40.2886 H         1 UNK         0.0600 
    166 H166        3.8590  -16.3198  -42.4417 H         1 UNK         0.0600 
    167 H167        4.9050  -15.1273  -41.6786 H         1 UNK         0.0600 
    168 H168        4.2404  -16.4483  -40.7301 H         1 UNK         0.0600 
    169 H169        2.9678  -14.1238  -43.1494 H         1 UNK         0.3000 
    170 H170        0.4820  -11.5638  -43.3249 H         1 UNK         0.0600 
    171 H171        2.3089  -10.4303  -44.5800 H         1 UNK         0.0600 
    172 H172        2.5944  -10.3345  -42.8479 H         1 UNK         0.0600 
    173 H173        3.5057  -11.4795  -43.8236 H         1 UNK         0.0600 
    174 H174        2.0260  -12.8139  -45.3521 H         1 UNK         0.3000 
    175 H175       -0.0523  -15.6716  -45.8691 H         1 UNK         0.0600 
    176 H176       -1.0873  -13.8155  -47.1555 H         1 UNK         0.0600 
    177 H177        0.5016  -13.1627  -47.5319 H         1 UNK         0.0600 
    178 H178        0.0189  -14.7372  -48.1586 H         1 UNK         0.0600 
    179 H179        2.3831  -14.7459  -47.0588 H         1 UNK         0.3000 
    180 H180        4.5844  -16.5633  -44.9103 H         1 UNK         0.0600 
    181 H181        3.7228  -17.0775  -47.8062 H         1 UNK         0.0600 
    182 H182        3.8339  -18.2671  -46.5188 H         1 UNK         0.0600 
    183 H183        5.2924  -17.4948  -47.1177 H         1 UNK         0.0600 
    184 H184        4.9726  -14.9302  -47.2478 H         1 UNK         0.3000 
    185 H185        5.3508  -11.8409  -45.4967 H         1 UNK         0.0600 
    186 H186        7.5930  -11.8885  -46.5414 H         1 UNK         0.0600 
    187 H187        7.5495  -12.9857  -45.1712 H         1 UNK         0.0600 
    188 H188        7.4686  -13.6281  -46.8073 H         1 UNK         0.0600 
    189 H189        5.7857  -12.4407  -48.2150 H         1 UNK         0.3000 
    190 H190       -2.2355  -21.0693  -46.6403 H         1 UNK         0.3000 
    191 H191       -2.8910  -22.2635  -49.0841 H         1 UNK         0.0600 
    192 H192       -5.2518  -22.0082  -48.2518 H         1 UNK         0.0600 
    193 H193       -4.2903  -20.5601  -47.9920 H         1 UNK         0.0600 
    194 H194       -4.6358  -21.6427  -46.6471 H         1 UNK         0.0600 
    195 H195       -2.8802  -23.7308  -45.8198 H         1 UNK         0.3000 
    196 H196       -4.1930  -26.1464  -46.4855 H         1 UNK         0.0600 
    197 H197       -3.1295  -27.0037  -44.3996 H         1 UNK         0.0600 
    198 H198       -3.8014  -25.3999  -44.1538 H         1 UNK         0.0600 
    199 H199       -2.0619  -25.6078  -44.3507 H         1 UNK         0.0600 
    200 H200       -0.8825  -25.1206  -47.1229 H         1 UNK         0.3000 
    201 H201       -0.0239  -27.8302  -47.9713 H         1 UNK         0.0600 
    202 H202        1.5692  -26.4663  -46.6565 H         1 UNK         0.0600 
    203 H203        1.4830  -25.1652  -47.8401 H         1 UNK         0.0600 
    204 H204        2.1759  -26.7197  -48.2862 H         1 UNK         0.0600 
    205 H205       -0.4655  -24.5177  -49.3115 H         1 UNK         0.3000 
    206 H206        0.2701  -25.2621  -51.9779 H         1 UNK         0.0600 
    207 H207        0.7013  -23.0245  -51.1119 H         1 UNK         0.0600 
    208 H208       -0.4351  -22.8642  -52.4438 H         1 UNK         0.0600 
    209 H209       -1.0068  -22.7674  -50.7795 H         1 UNK         0.0600 
    210 H210       -2.8892  -25.0142  -50.3755 H         1 UNK         0.3000 
    211 H211       -4.9815  -25.3257  -50.9698 H         1 UNK         0.0600 
    212 H212       -3.7796  -27.3356  -52.9555 H         1 UNK         0.0600 
    213 H213       -5.4596  -27.3041  -52.4137 H         1 UNK         0.0600 
    214 H214       -4.1744  -27.6389  -51.2705 H         1 UNK         0.0600 
    215 H215       -4.8906  -26.1548  -54.2234 H         1 UNK         0.3000 
    216 H216       -6.4025  -23.9349  -55.0940 H         1 UNK         0.0600 
    217 H217       -4.9098  -26.0781  -56.7004 H         1 UNK         0.0600 
    218 H218       -6.5670  -26.1913  -56.1055 H         1 UNK         0.0600 
    219 H219       -6.1552  -25.0116  -57.3392 H         1 UNK         0.0600 
    220 H220       -2.8907  -24.3960  -55.0511 H         1 UNK         0.3000 
    221 H221       -2.2635  -22.3754  -57.0174 H         1 UNK         0.0600 
    222 H222       -0.6852  -24.2107  -56.3991 H         1 UNK         0.0600 
    223 H223        0.0395  -22.6279  -56.1619 H         1 UNK         0.0600 
    224 H224       -0.5318  -23.5421  -54.7755 H         1 UNK         0.0600 
    225 H225       -3.1269  -22.2874  -53.6337 H         1 UNK         0.3000 
    226 H226       -2.4076  -19.4105  -53.3135 H         1 UNK         0.0600 
    227 H227       -3.2875  -21.6354  -51.4016 H         1 UNK         0.0600 
    228 H228       -1.7526  -20.7592  -51.4387 H         1 UNK         0.0600 
    229 H229       -3.2181  -19.9493  -50.9251 H         1 UNK         0.0600 
    230 H230       -4.9259  -21.2589  -54.5232 H         1 UNK         0.3000 
    231 H231       -7.1061  -21.1518  -54.8126 H         1 UNK         0.0600 
    232 H232       -8.2003  -18.9714  -55.1188 H         1 UNK         0.0600 
    233 H233       -6.5875  -18.9060  -55.8087 H         1 UNK         0.0600 
    234 H234       -6.9143  -18.1448  -54.2519 H         1 UNK         0.0600 
    235 H235       -6.1047  -21.8155  -52.2148 H         1 UNK         0.3000 
    236 H236       -6.6250  -22.2365  -50.1127 H         1 UNK         0.0600 
    237 H237       -8.4561  -23.4774  -51.2358 H         1 UNK         0.0600 
    238 H238       -8.9623  -22.9111  -49.6526 H         1 UNK         0.0600 
    239 H239       -9.5187  -22.0775  -51.0983 H         1 UNK         0.0600 
    240 H240       -5.7868  -19.7242  -50.1551 H         1 UNK         0.3000 
    241 H241       -7.5887  -17.7733  -49.2238 H         1 UNK         0.0600 
    242 H242       -6.8980  -19.4690  -45.7117 H         1 UNK         0.3800 
    243 H243       -6.7529  -20.3266  -47.2250 H         1 UNK         0.3800 
    244 H244       -5.5944  -17.1703  -50.4589 H         1 UNK         0.0800 
    245 H245       -5.6665  -16.3013  -48.9574 H         1 UNK         0.0800 
    246 H246       -3.0708  -15.8519  -50.0267 H         1 UNK         0.0800 
    247 H247       -3.2365  -17.1516  -51.1862 H         1 UNK         0.0800 
@<TRIPOS>BOND
     1    1    2 1    
     2    1  127 1    
     3    1  128 1    
     4    1  129 1    
     5    2    3 2    
     6    2    4 am   BACKBONE|DICT|INTERRES
     7    4    5 1    
     8    4  130 1    
     9    5    6 1    
    10    5   65 1    
    11    5  131 1    
    12    6    7 1    
    13    6  132 1    
    14    6  133 1    
    15    7    8 1    
    16    8    9 1    
    17    8  134 1    
    18    8  135 1    
    19    9   10 ar   
    20    9   14 ar   
    21   10   11 ar   
    22   10  136 1    
    23   11   12 ar   
    24   11  126 1    
    25   12   13 ar   
    26   12  137 1    
    27   13   14 ar   
    28   13   15 1    
    29   14  138 1    
    30   15   16 1    
    31   15  139 1    
    32   15  140 1    
    33   16   17 1    
    34   17   18 1    
    35   17  141 1    
    36   17  142 1    
    37   18   19 1    
    38   18   67 1    
    39   18  143 1    
    40   19   20 am   BACKBONE|DICT|INTERRES
    41   19  144 1    
    42   20   21 2    
    43   20   22 1    
    44   22   23 1    
    45   22   24 1    
    46   22  145 1    
    47   23  146 1    
    48   23  147 1    
    49   23  148 1    
    50   24   25 am   BACKBONE|DICT|INTERRES
    51   24  149 1    
    52   25   26 2    
    53   25   27 1    
    54   27   28 1    
    55   27   29 1    
    56   27  150 1    
    57   28  151 1    
    58   28  152 1    
    59   28  153 1    
    60   29   30 am   BACKBONE|DICT|INTERRES
    61   29  154 1    
    62   30   31 2    
    63   30   32 1    
    64   32   33 1    
    65   32   34 1    
    66   32  155 1    
    67   33  156 1    
    68   33  157 1    
    69   33  158 1    
    70   34   35 am   BACKBONE|DICT|INTERRES
    71   34  159 1    
    72   35   36 2    
    73   35   37 1    
    74   37   38 1    
    75   37   39 1    
    76   37  160 1    
    77   38  161 1    
    78   38  162 1    
    79   38  163 1    
    80   39   40 am   BACKBONE|DICT|INTERRES
    81   39  164 1    
    82   40   41 2    
    83   40   42 1    
    84   42   43 1    
    85   42   44 1    
    86   42  165 1    
    87   43  166 1    
    88   43  167 1    
    89   43  168 1    
    90   44   45 am   BACKBONE|DICT|INTERRES
    91   44  169 1    
    92   45   46 2    
    93   45   47 1    
    94   47   48 1    
    95   47   49 1    
    96   47  170 1    
    97   48  171 1    
    98   48  172 1    
    99   48  173 1    
   100   49   50 am   BACKBONE|DICT|INTERRES
   101   49  174 1    
   102   50   51 2    
   103   50   52 1    
   104   52   53 1    
   105   52   54 1    
   106   52  175 1    
   107   53  176 1    
   108   53  177 1    
   109   53  178 1    
   110   54   55 am   BACKBONE|DICT|INTERRES
   111   54  179 1    
   112   55   56 2    
   113   55   57 1    
   114   57   58 1    
   115   57   59 1    
   116   57  180 1    
   117   58  181 1    
   118   58  182 1    
   119   58  183 1    
   120   59   60 am   BACKBONE|DICT|INTERRES
   121   59  184 1    
   122   60   61 2    
   123   60   62 1    
   124   62   63 1    
   125   62   64 1    
   126   62  185 1    
   127   63  186 1    
   128   63  187 1    
   129   63  188 1    
   130   64   65 am   BACKBONE|DICT|INTERRES
   131   64  189 1    
   132   65   66 2    
   133   67   68 2    
   134   67   69 am   BACKBONE|DICT|INTERRES
   135   69   70 1    
   136   69  190 1    
   137   70   71 1    
   138   70   72 1    
   139   70  191 1    
   140   71  192 1    
   141   71  193 1    
   142   71  194 1    
   143   72   73 2    
   144   72   74 am   BACKBONE|DICT|INTERRES
   145   74   75 1    
   146   74  195 1    
   147   75   76 1    
   148   75   77 1    
   149   75  196 1    
   150   76  197 1    
   151   76  198 1    
   152   76  199 1    
   153   77   78 2    
   154   77   79 am   BACKBONE|DICT|INTERRES
   155   79   80 1    
   156   79  200 1    
   157   80   81 1    
   158   80   82 1    
   159   80  201 1    
   160   81  202 1    
   161   81  203 1    
   162   81  204 1    
   163   82   83 2    
   164   82   84 am   BACKBONE|DICT|INTERRES
   165   84   85 1    
   166   84  205 1    
   167   85   86 1    
   168   85   87 1    
   169   85  206 1    
   170   86  207 1    
   171   86  208 1    
   172   86  209 1    
   173   87   88 2    
   174   87   89 am   BACKBONE|DICT|INTERRES
   175   89   90 1    
   176   89  210 1    
   177   90   91 1    
   178   90   92 1    
   179   90  211 1    
   180   91  212 1    
   181   91  213 1    
   182   91  214 1    
   183   92   93 2    
   184   92   94 am   BACKBONE|DICT|INTERRES
   185   94   95 1    
   186   94  215 1    
   187   95   96 1    
   188   95   97 1    
   189   95  216 1    
   190   96  217 1    
   191   96  218 1    
   192   96  219 1    
   193   97   98 2    
   194   97   99 am   BACKBONE|DICT|INTERRES
   195   99  100 1    
   196   99  220 1    
   197  100  101 1    
   198  100  102 1    
   199  100  221 1    
   200  101  222 1    
   201  101  223 1    
   202  101  224 1    
   203  102  103 2    
   204  102  104 am   BACKBONE|DICT|INTERRES
   205  104  105 1    
   206  104  225 1    
   207  105  106 1    
   208  105  107 1    
   209  105  226 1    
   210  106  227 1    
   211  106  228 1    
   212  106  229 1    
   213  107  108 2    
   214  107  109 am   BACKBONE|DICT|INTERRES
   215  109  110 1    
   216  109  230 1    
   217  110  111 1    
   218  110  112 1    
   219  110  231 1    
   220  111  232 1    
   221  111  233 1    
   222  111  234 1    
   223  112  113 2    
   224  112  114 am   BACKBONE|DICT|INTERRES
   225  114  115 1    
   226  114  235 1    
   227  115  116 1    
   228  115  117 1    
   229  115  236 1    
   230  116  237 1    
   231  116  238 1    
   232  116  239 1    
   233  117  118 2    
   234  117  119 am   BACKBONE|DICT|INTERRES
   235  119  120 1    
   236  119  240 1    
   237  120  121 1    
   238  120  124 1    
   239  120  241 1    
   240  121  122 am   BACKBONE|DICT|INTERRES
   241  121  123 2    
   242  122  242 1    
   243  122  243 1    
   244  124  125 1    
   245  124  244 1    
   246  124  245 1    
   247  125  126 1    
   248  126  246 1    
   249  126  247 1    
@<TRIPOS>SUBSTRUCTURE
     1 UNK         1 GROUP             0       ****    0 ROOT    
