@<TRIPOS>MOLECULE
3R540
247   249    1
SMALL
USER_CHARGES


@<TRIPOS>ATOM
      1 CA         -3.5436  -16.5931  -47.7161 C.3       0 UNK        -0.1800 
      2 C          -3.6126  -15.0848  -47.5554 C.2       0 UNK         0.5000 
      3 O          -3.2212  -14.5550  -46.5166 O.2       0 UNK        -0.5000 
      4 N          -4.0840  -14.3831  -48.5923 N.am      1 UNK        -0.5000 
      5 CA         -4.2461  -12.9214  -48.6166 C.3       1 UNK         0.1400 
      6 C6         -5.0839  -12.4356  -49.8268 C.3       23 UNK        -0.0398 
      7 S7         -6.6445  -13.3620  -50.0526 S.3       23 UNK        -0.2404 
      8 C8         -6.3693  -14.1884  -51.6544 C.3       23 UNK        -0.0205 
      9 C9         -5.3643  -15.3295  -51.5638 C.ar      23 UNK        -0.0193 
     10 C10        -4.0093  -15.0986  -51.8140 C.ar      23 UNK        -0.1150 
     11 C11        -3.0852  -16.1448  -51.7623 C.ar      23 UNK        -0.0193 
     12 C12        -3.5256  -17.4393  -51.4670 C.ar      23 UNK        -0.1150 
     13 C13        -4.8832  -17.6897  -51.2377 C.ar      23 UNK        -0.0193 
     14 C14        -5.7936  -16.6279  -51.2741 C.ar      23 UNK        -0.1150 
     15 C15        -5.3853  -19.1082  -51.0024 C.3       23 UNK        -0.0205 
     16 S16        -5.7009  -19.4476  -49.2428 S.3       23 UNK        -0.2404 
     17 C17        -4.0425  -19.9271  -48.6567 C.3       23 UNK        -0.0398 
     18 CA         -3.9018  -21.4592  -48.4868 C.3       11 UNK         0.1400 
     19 N          -2.5101  -21.8808  -48.6621 N.am      11 UNK        -0.5000 
     20 C          -2.0319  -23.1282  -48.5409 C.2       10 UNK         0.5000 
     21 O          -2.7426  -24.1256  -48.4068 O.2       10 UNK        -0.5000 
     22 CA         -0.4989  -23.2651  -48.4363 C.3       10 UNK         0.1400 
     23 CB          0.1182  -23.8375  -49.7176 C.3       10 UNK        -0.1800 
     24 N           0.1609  -22.0012  -48.0781 N.am      10 UNK        -0.5000 
     25 C           0.0367  -21.4139  -46.8803 C.2       9 UNK         0.5000 
     26 O          -0.6046  -21.9065  -45.9463 O.2       9 UNK        -0.5000 
     27 CA          0.6375  -20.0140  -46.7172 C.3       9 UNK         0.1400 
     28 CB         -0.3620  -18.9538  -47.2142 C.3       9 UNK        -0.1800 
     29 N           0.9104  -19.8299  -45.2982 N.am      9 UNK        -0.5000 
     30 C           1.6953  -18.9074  -44.7380 C.2       8 UNK         0.5000 
     31 O           2.2489  -17.9954  -45.3576 O.2       8 UNK        -0.5000 
     32 CA          1.8895  -19.0412  -43.2187 C.3       8 UNK         0.1400 
     33 CB          3.3721  -19.0081  -42.8183 C.3       8 UNK        -0.1800 
     34 N           1.1696  -17.9920  -42.5023 N.am      8 UNK        -0.5000 
     35 C          -0.1171  -18.0862  -42.1438 C.2       7 UNK         0.5000 
     36 O          -0.8344  -19.0410  -42.4455 O.2       7 UNK        -0.5000 
     37 CA         -0.7062  -16.9563  -41.2861 C.3       7 UNK         0.1400 
     38 CB         -0.3155  -17.1348  -39.8089 C.3       7 UNK        -0.1800 
     39 N          -0.3155  -15.6185  -41.7353 N.am      7 UNK        -0.5000 
     40 C          -1.1252  -14.5489  -41.6683 C.2       6 UNK         0.5000 
     41 O          -2.2994  -14.6136  -41.2984 O.2       6 UNK        -0.5000 
     42 CA         -0.5365  -13.1768  -42.0725 C.3       6 UNK         0.1400 
     43 CB         -1.2754  -11.9883  -41.4218 C.3       6 UNK        -0.1800 
     44 N           0.9081  -13.0726  -41.8508 N.am      6 UNK        -0.5000 
     45 C           1.5746  -13.1954  -40.6899 C.2       5 UNK         0.5000 
     46 O           1.0231  -13.2998  -39.5933 O.2       5 UNK        -0.5000 
     47 CA          3.1210  -13.2330  -40.7754 C.3       5 UNK         0.1400 
     48 CB          3.7412  -14.1614  -39.7100 C.3       5 UNK        -0.1800 
     49 N           3.6321  -13.5736  -42.1127 N.am      5 UNK        -0.5000 
     50 C           3.3695  -14.6904  -42.8060 C.2       4 UNK         0.5000 
     51 O           2.7005  -15.6314  -42.3694 O.2       4 UNK        -0.5000 
     52 CA          3.8425  -14.7080  -44.2690 C.3       4 UNK         0.1400 
     53 CB          5.0485  -15.6343  -44.4794 C.3       4 UNK        -0.1800 
     54 N           2.7457  -15.1161  -45.1440 N.am      4 UNK        -0.5000 
     55 C           1.6567  -14.3734  -45.3754 C.2       3 UNK         0.5000 
     56 O           1.4825  -13.2456  -44.9039 O.2       3 UNK        -0.5000 
     57 CA          0.5594  -15.0236  -46.2362 C.3       3 UNK         0.1400 
     58 CB         -0.4748  -15.7090  -45.3311 C.3       3 UNK        -0.1800 
     59 N          -0.1260  -14.0704  -47.1145 N.am      3 UNK        -0.5000 
     60 C           0.4679  -13.3260  -48.0625 C.2       2 UNK         0.5000 
     61 O           1.6717  -13.3889  -48.3164 O.2       2 UNK        -0.5000 
     62 CA         -0.4277  -12.3715  -48.8799 C.3       2 UNK         0.1400 
     63 CB          0.0799  -12.1897  -50.3228 C.3       2 UNK        -0.1800 
     64 N          -1.8070  -12.8541  -48.9237 N.am      2 UNK        -0.5000 
     65 C          -2.8972  -12.1655  -48.5602 C.2       1 UNK         0.5000 
     66 O          -2.8750  -10.9926  -48.1855 O.2       1 UNK        -0.5000 
     67 C          -4.5044  -21.9412  -47.1442 C.2       11 UNK         0.5000 
     68 O          -5.6699  -22.3353  -47.1051 O.2       11 UNK        -0.5000 
     69 N          -3.6792  -21.9480  -46.0876 N.am      12 UNK        -0.5000 
     70 CA         -4.0114  -22.5047  -44.7816 C.3       12 UNK         0.1400 
     71 CB         -3.4887  -21.5625  -43.6841 C.3       12 UNK        -0.1800 
     72 C          -3.4147  -23.9133  -44.6292 C.2       12 UNK         0.5000 
     73 O          -4.1510  -24.8591  -44.3484 O.2       12 UNK        -0.5000 
     74 N          -2.0920  -24.0297  -44.8172 N.am      13 UNK        -0.5000 
     75 CA         -1.2944  -25.2088  -44.4674 C.3       13 UNK         0.1400 
     76 CB          0.1965  -24.8408  -44.5273 C.3       13 UNK        -0.1800 
     77 C          -1.5759  -26.4674  -45.3091 C.2       13 UNK         0.5000 
     78 O          -1.3567  -27.5741  -44.8148 O.2       13 UNK        -0.5000 
     79 N          -2.0553  -26.2879  -46.5453 N.am      14 UNK        -0.5000 
     80 CA         -2.4312  -27.3639  -47.4647 C.3       14 UNK         0.1400 
     81 CB         -1.4982  -27.3300  -48.6883 C.3       14 UNK        -0.1800 
     82 C          -3.9092  -27.2457  -47.8800 C.2       14 UNK         0.5000 
     83 O          -4.3016  -27.8444  -48.8818 O.2       14 UNK        -0.5000 
     84 N          -4.6970  -26.4569  -47.1303 N.am      15 UNK        -0.5000 
     85 CA         -6.1245  -26.1805  -47.3323 C.3       15 UNK         0.1400 
     86 CB         -6.9613  -27.4231  -46.9645 C.3       15 UNK        -0.1800 
     87 C          -6.4621  -25.6254  -48.7354 C.2       15 UNK         0.5000 
     88 O          -7.5240  -25.9326  -49.2803 O.2       15 UNK        -0.5000 
     89 N          -5.5425  -24.8248  -49.2931 N.am      16 UNK        -0.5000 
     90 CA         -5.6142  -24.1825  -50.6072 C.3       16 UNK         0.1400 
     91 CB         -6.8043  -23.2038  -50.7025 C.3       16 UNK        -0.1800 
     92 C          -5.5223  -25.1603  -51.7941 C.2       16 UNK         0.5000 
     93 O          -6.0253  -24.8562  -52.8771 O.2       16 UNK        -0.5000 
     94 N          -4.8129  -26.2842  -51.6037 N.am      17 UNK        -0.5000 
     95 CA         -4.3463  -27.1541  -52.6919 C.3       17 UNK         0.1400 
     96 CB         -3.7755  -28.4496  -52.0974 C.3       17 UNK        -0.1800 
     97 C          -3.2948  -26.4611  -53.5884 C.2       17 UNK         0.5000 
     98 O          -3.1732  -26.7950  -54.7674 O.2       17 UNK        -0.5000 
     99 N          -2.5863  -25.4860  -53.0114 N.am      18 UNK        -0.5000 
    100 CA        -1.7242  -24.5101  -53.6613 C.3       18 UNK         0.1400 
    101 CB        -0.2743  -25.0227  -53.6588 C.3       18 UNK        -0.1800 
    102 C         -1.8530  -23.2029  -52.8629 C.2       18 UNK         0.5000 
    103 O         -2.3438  -23.2319  -51.7319 O.2       18 UNK        -0.5000 
    104 N         -1.4053  -22.0834  -53.4408 N.am      19 UNK        -0.5000 
    105 CA        -1.3378  -20.7946  -52.7473 C.3       19 UNK         0.1400 
    106 CB        -1.4706  -19.6543  -53.7663 C.3       19 UNK        -0.1800 
    107 C         -0.0339  -20.6635  -51.9420 C.2       19 UNK         0.5000 
    108 O         -0.0747  -20.3301  -50.7551 O.2       19 UNK        -0.5000 
    109 N          1.0957  -20.9451  -52.6101 N.am      20 UNK        -0.5000 
    110 CA         2.4954  -20.9172  -52.1548 C.3       20 UNK         0.1400 
    111 CB         2.7461  -21.9314  -51.0259 C.3       20 UNK        -0.1800 
    112 C          3.0317  -19.5239  -51.7712 C.2       20 UNK         0.5000 
    113 O          4.1475  -19.1787  -52.1604 O.2       20 UNK        -0.5000 
    114 N          2.2315  -18.7413  -51.0390 N.am      21 UNK        -0.5000 
    115 CA         2.5258  -17.3619  -50.6459 C.3       21 UNK         0.1400 
    116 CB         1.6469  -16.9948  -49.4429 C.3       21 UNK        -0.1800 
    117 C          2.3384  -16.3469  -51.7919 C.2       21 UNK         0.5000 
    118 O          2.7752  -15.2029  -51.6649 O.2       21 UNK        -0.5000 
    119 N          1.7027  -16.7751  -52.8862 N.am      22 UNK        -0.5000 
    120 CA         1.4890  -16.0020  -54.1105 C.3       22 UNK         0.1400 
    121 C          1.4205  -16.9321  -55.3542 C.2       22 UNK         0.5000 
    122 N          1.3804  -16.3735  -56.5562 N.am      22 UNK        -0.7600 
    123 O          1.4136  -18.1575  -55.2445 O.2       22 UNK        -0.5000 
    124 C124        0.2953  -15.0158  -53.9809 C.3       23 UNK        -0.0398 
    125 S125       -1.3487  -15.8055  -53.8628 S.3       23 UNK        -0.2404 
    126 C126       -1.6223  -15.8646  -52.0653 C.3       23 UNK        -0.0205 
    127 H127       -4.2272  -16.9335  -48.4925 H         1 UNK         0.0600 
    128 H128       -3.8165  -17.0858  -46.7830 H         1 UNK         0.0600 
    129 H129       -2.5334  -16.8984  -47.9877 H         1 UNK         0.0600 
    130 H130       -4.4128  -14.8693  -49.4163 H         1 UNK         0.3000 
    131 H131       -4.7934  -12.6504  -47.7111 H         1 UNK         0.0600 
    132 H132       -5.3465  -11.3848  -49.6922 H         1 UNK         0.0800 
    133 H133       -4.4999  -12.4713  -50.7461 H         1 UNK         0.0800 
    134 H134       -6.0473  -13.4553  -52.3959 H         1 UNK         0.0800 
    135 H135       -7.3248  -14.5739  -52.0133 H         1 UNK         0.0800 
    136 H136       -3.6685  -14.1066  -52.0737 H         1 UNK         0.1150 
    137 H137       -2.8170  -18.2539  -51.4427 H         1 UNK         0.1150 
    138 H138       -6.8431  -16.8182  -51.0975 H         1 UNK         0.1150 
    139 H139       -6.3160  -19.2516  -51.5532 H         1 UNK         0.0800 
    140 H140       -4.6857  -19.8425  -51.4050 H         1 UNK         0.0800 
    141 H141       -3.8305  -19.4077  -47.7213 H         1 UNK         0.0800 
    142 H142       -3.3077  -19.5520  -49.3697 H         1 UNK         0.0800 
    143 H143       -4.4623  -21.9384  -49.2855 H         1 UNK         0.0600 
    144 H144       -1.8350  -21.1475  -48.8182 H         1 UNK         0.3000 
    145 H145       -0.3088  -23.9850  -47.6392 H         1 UNK         0.0600 
    146 H146       -0.4050  -24.7344  -50.0465 H         1 UNK         0.0600 
    147 H147        1.1610  -24.1117  -49.5596 H         1 UNK         0.0600 
    148 H148        0.0776  -23.1247  -50.5370 H         1 UNK         0.0600 
    149 H149        0.6287  -21.5102  -48.8284 H         1 UNK         0.3000 
    150 H150        1.5707  -19.9513  -47.2807 H         1 UNK         0.0600 
    151 H151       -0.5939  -19.0917  -48.2707 H         1 UNK         0.0600 
    152 H152        0.0433  -17.9507  -47.1052 H         1 UNK         0.0600 
    153 H153       -1.3004  -18.9935  -46.6595 H         1 UNK         0.0600 
    154 H154        0.4688  -20.5314  -44.7155 H         1 UNK         0.3000 
    155 H155        1.5073  -20.0165  -42.9080 H         1 UNK         0.0600 
    156 H156        3.8029  -18.0175  -42.9414 H         1 UNK         0.0600 
    157 H157        3.9596  -19.7044  -43.4181 H         1 UNK         0.0600 
    158 H158        3.4985  -19.2910  -41.7733 H         1 UNK         0.0600 
    159 H159        1.7090  -17.1573  -42.2848 H         1 UNK         0.3000 
    160 H160       -1.7907  -17.0628  -41.3615 H         1 UNK         0.0600 
    161 H161        0.7567  -16.9997  -39.6596 H         1 UNK         0.0600 
    162 H162       -0.5772  -18.1311  -39.4502 H         1 UNK         0.0600 
    163 H163       -0.8332  -16.4147  -39.1748 H         1 UNK         0.0600 
    164 H164        0.6438  -15.4976  -42.0399 H         1 UNK         0.3000 
    165 H165       -0.6819  -13.0965  -43.1503 H         1 UNK         0.0600 
    166 H166       -0.8392  -11.0376  -41.7285 H         1 UNK         0.0600 
    167 H167       -1.2430  -12.0371  -40.3330 H         1 UNK         0.0600 
    168 H168       -2.3253  -11.9709  -41.7166 H         1 UNK         0.0600 
    169 H169        1.4549  -12.9920  -42.7000 H         1 UNK         0.3000 
    170 H170        3.4592  -12.2169  -40.5675 H         1 UNK         0.0600 
    171 H171        3.4963  -13.8216  -38.7029 H         1 UNK         0.0600 
    172 H172        3.3797  -15.1859  -39.8045 H         1 UNK         0.0600 
    173 H173        4.8282  -14.1806  -39.7879 H         1 UNK         0.0600 
    174 H174        4.1645  -12.8436  -42.5663 H         1 UNK         0.3000 
    175 H175        4.1452  -13.6972  -44.5513 H         1 UNK         0.0600 
    176 H176        4.7768  -16.6848  -44.3955 H         1 UNK         0.0600 
    177 H177        5.4802  -15.4886  -45.4699 H         1 UNK         0.0600 
    178 H178        5.8341  -15.4326  -43.7498 H         1 UNK         0.0600 
    179 H179        2.7507  -16.0852  -45.4506 H         1 UNK         0.3000 
    180 H180        1.0262  -15.7817  -46.8659 H         1 UNK         0.0600 
    181 H181       -1.0383  -14.9844  -44.7434 H         1 UNK         0.0600 
    182 H182        0.0059  -16.3946  -44.6350 H         1 UNK         0.0600 
    183 H183       -1.1878  -16.2921  -45.9111 H         1 UNK         0.0600 
    184 H184       -1.1150  -13.9400  -46.9413 H         1 UNK         0.3000 
    185 H185       -0.3815  -11.4037  -48.3770 H         1 UNK         0.0600 
    186 H186        1.0704  -11.7333  -50.3360 H         1 UNK         0.0600 
    187 H187        0.1527  -13.1431  -50.8465 H         1 UNK         0.0600 
    188 H188       -0.5818  -11.5401  -50.8961 H         1 UNK         0.0600 
    189 H189       -1.9309  -13.8188  -49.1947 H         1 UNK         0.3000 
    190 H190       -2.7170  -21.6617  -46.2149 H         1 UNK         0.3000 
    191 H191       -5.0942  -22.5842  -44.6629 H         1 UNK         0.0600 
    192 H192       -3.6968  -21.9644  -42.6917 H         1 UNK         0.0600 
    193 H193       -3.9691  -20.5860  -43.7457 H         1 UNK         0.0600 
    194 H194       -2.4116  -21.4049  -43.7556 H         1 UNK         0.0600 
    195 H195       -1.5622  -23.2078  -45.0982 H         1 UNK         0.3000 
    196 H196       -1.5315  -25.4622  -43.4320 H         1 UNK         0.0600 
    197 H197        0.5066  -24.5657  -45.5349 H         1 UNK         0.0600 
    198 H198        0.4226  -24.0024  -43.8683 H         1 UNK         0.0600 
    199 H199        0.8193  -25.6786  -44.2109 H         1 UNK         0.0600 
    200 H200       -2.2299  -25.3484  -46.8846 H         1 UNK         0.3000 
    201 H201       -2.3229  -28.3374  -46.9832 H         1 UNK         0.0600 
    202 H202       -1.7071  -26.4720  -49.3261 H         1 UNK         0.0600 
    203 H203       -1.6245  -28.2254  -49.2975 H         1 UNK         0.0600 
    204 H204       -0.4504  -27.2856  -48.3912 H         1 UNK         0.0600 
    205 H205       -4.2830  -26.0137  -46.3198 H         1 UNK         0.3000 
    206 H206       -6.3815  -25.3878  -46.6278 H         1 UNK         0.0600 
    207 H207       -6.7222  -27.7761  -45.9613 H         1 UNK         0.0600 
    208 H208       -8.0283  -27.1979  -46.9810 H         1 UNK         0.0600 
    209 H209       -6.7885  -28.2453  -47.6598 H         1 UNK         0.0600 
    210 H210       -4.6807  -24.6626  -48.7813 H         1 UNK         0.3000 
    211 H211       -4.7060  -23.5890  -50.6863 H         1 UNK         0.0600 
    212 H212       -6.7285  -22.5837  -51.5963 H         1 UNK         0.0600 
    213 H213       -6.8339  -22.5307  -49.8456 H         1 UNK         0.0600 
    214 H214       -7.7589  -23.7279  -50.7502 H         1 UNK         0.0600 
    215 H215       -4.4968  -26.5154  -50.6694 H         1 UNK         0.3000 
    216 H216       -5.2030  -27.4107  -53.3184 H         1 UNK         0.0600 
    217 H217       -2.9181  -28.2518  -51.4532 H         1 UNK         0.0600 
    218 H218       -3.4463  -29.1294  -52.8842 H         1 UNK         0.0600 
    219 H219       -4.5249  -28.9754  -51.5055 H         1 UNK         0.0600 
    220 H220       -2.7949  -25.2436  -52.0506 H         1 UNK         0.3000 
    221 H221       -2.0626  -24.3336  -54.6844 H         1 UNK         0.0600 
    222 H222       -0.1901  -25.9664  -54.1980 H         1 UNK         0.0600 
    223 H223        0.0931  -25.1838  -52.6444 H         1 UNK         0.0600 
    224 H224        0.3962  -24.3115  -54.1424 H         1 UNK         0.0600 
    225 H225       -1.0331  -22.1241  -54.3785 H         1 UNK         0.3000 
    226 H226       -2.1691  -20.7079  -52.0438 H         1 UNK         0.0600 
    227 H227       -0.7423  -19.7389  -54.5731 H         1 UNK         0.0600 
    228 H228       -2.4644  -19.6417  -54.2139 H         1 UNK         0.0600 
    229 H229       -1.3169  -18.6865  -53.2908 H         1 UNK         0.0600 
    230 H230        0.9927  -21.1770  -53.5874 H         1 UNK         0.3000 
    231 H231        3.0832  -21.2434  -53.0144 H         1 UNK         0.0600 
    232 H232        2.1965  -21.6789  -50.1204 H         1 UNK         0.0600 
    233 H233        3.8039  -21.9650  -50.7623 H         1 UNK         0.0600 
    234 H234        2.4594  -22.9368  -51.3333 H         1 UNK         0.0600 
    235 H235        1.3291  -19.1219  -50.7667 H         1 UNK         0.3000 
    236 H236        3.5700  -17.3030  -50.3319 H         1 UNK         0.0600 
    237 H237        1.8849  -17.6235  -48.5853 H         1 UNK         0.0600 
    238 H238        1.8174  -15.9619  -49.1408 H         1 UNK         0.0600 
    239 H239        0.5848  -17.1039  -49.6645 H         1 UNK         0.0600 
    240 H240        1.4256  -17.7444  -52.9507 H         1 UNK         0.3000 
    241 H241        2.3906  -15.4059  -54.2648 H         1 UNK         0.0600 
    242 H242        1.3930  -15.3732  -56.6810 H         1 UNK         0.3800 
    243 H243        1.3379  -16.9704  -57.3677 H         1 UNK         0.3800 
    244 H244        0.2753  -14.3486  -54.8433 H         1 UNK         0.0800 
    245 H245        0.4452  -14.3607  -53.1222 H         1 UNK         0.0800 
    246 H246       -0.9828  -16.6295  -51.6231 H         1 UNK         0.0800 
    247 H247       -1.3342  -14.9149  -51.6139 H         1 UNK         0.0800 
@<TRIPOS>BOND
     1    1    2 1    
     2    1  127 1    
     3    1  128 1    
     4    1  129 1    
     5    2    3 2    
     6    2    4 am   BACKBONE|DICT|INTERRES
     7    4    5 1    
     8    4  130 1    
     9    5    6 1    
    10    5   65 1    
    11    5  131 1    
    12    6    7 1    
    13    6  132 1    
    14    6  133 1    
    15    7    8 1    
    16    8    9 1    
    17    8  134 1    
    18    8  135 1    
    19    9   10 ar   
    20    9   14 ar   
    21   10   11 ar   
    22   10  136 1    
    23   11   12 ar   
    24   11  126 1    
    25   12   13 ar   
    26   12  137 1    
    27   13   14 ar   
    28   13   15 1    
    29   14  138 1    
    30   15   16 1    
    31   15  139 1    
    32   15  140 1    
    33   16   17 1    
    34   17   18 1    
    35   17  141 1    
    36   17  142 1    
    37   18   19 1    
    38   18   67 1    
    39   18  143 1    
    40   19   20 am   BACKBONE|DICT|INTERRES
    41   19  144 1    
    42   20   21 2    
    43   20   22 1    
    44   22   23 1    
    45   22   24 1    
    46   22  145 1    
    47   23  146 1    
    48   23  147 1    
    49   23  148 1    
    50   24   25 am   BACKBONE|DICT|INTERRES
    51   24  149 1    
    52   25   26 2    
    53   25   27 1    
    54   27   28 1    
    55   27   29 1    
    56   27  150 1    
    57   28  151 1    
    58   28  152 1    
    59   28  153 1    
    60   29   30 am   BACKBONE|DICT|INTERRES
    61   29  154 1    
    62   30   31 2    
    63   30   32 1    
    64   32   33 1    
    65   32   34 1    
    66   32  155 1    
    67   33  156 1    
    68   33  157 1    
    69   33  158 1    
    70   34   35 am   BACKBONE|DICT|INTERRES
    71   34  159 1    
    72   35   36 2    
    73   35   37 1    
    74   37   38 1    
    75   37   39 1    
    76   37  160 1    
    77   38  161 1    
    78   38  162 1    
    79   38  163 1    
    80   39   40 am   BACKBONE|DICT|INTERRES
    81   39  164 1    
    82   40   41 2    
    83   40   42 1    
    84   42   43 1    
    85   42   44 1    
    86   42  165 1    
    87   43  166 1    
    88   43  167 1    
    89   43  168 1    
    90   44   45 am   BACKBONE|DICT|INTERRES
    91   44  169 1    
    92   45   46 2    
    93   45   47 1    
    94   47   48 1    
    95   47   49 1    
    96   47  170 1    
    97   48  171 1    
    98   48  172 1    
    99   48  173 1    
   100   49   50 am   BACKBONE|DICT|INTERRES
   101   49  174 1    
   102   50   51 2    
   103   50   52 1    
   104   52   53 1    
   105   52   54 1    
   106   52  175 1    
   107   53  176 1    
   108   53  177 1    
   109   53  178 1    
   110   54   55 am   BACKBONE|DICT|INTERRES
   111   54  179 1    
   112   55   56 2    
   113   55   57 1    
   114   57   58 1    
   115   57   59 1    
   116   57  180 1    
   117   58  181 1    
   118   58  182 1    
   119   58  183 1    
   120   59   60 am   BACKBONE|DICT|INTERRES
   121   59  184 1    
   122   60   61 2    
   123   60   62 1    
   124   62   63 1    
   125   62   64 1    
   126   62  185 1    
   127   63  186 1    
   128   63  187 1    
   129   63  188 1    
   130   64   65 am   BACKBONE|DICT|INTERRES
   131   64  189 1    
   132   65   66 2    
   133   67   68 2    
   134   67   69 am   BACKBONE|DICT|INTERRES
   135   69   70 1    
   136   69  190 1    
   137   70   71 1    
   138   70   72 1    
   139   70  191 1    
   140   71  192 1    
   141   71  193 1    
   142   71  194 1    
   143   72   73 2    
   144   72   74 am   BACKBONE|DICT|INTERRES
   145   74   75 1    
   146   74  195 1    
   147   75   76 1    
   148   75   77 1    
   149   75  196 1    
   150   76  197 1    
   151   76  198 1    
   152   76  199 1    
   153   77   78 2    
   154   77   79 am   BACKBONE|DICT|INTERRES
   155   79   80 1    
   156   79  200 1    
   157   80   81 1    
   158   80   82 1    
   159   80  201 1    
   160   81  202 1    
   161   81  203 1    
   162   81  204 1    
   163   82   83 2    
   164   82   84 am   BACKBONE|DICT|INTERRES
   165   84   85 1    
   166   84  205 1    
   167   85   86 1    
   168   85   87 1    
   169   85  206 1    
   170   86  207 1    
   171   86  208 1    
   172   86  209 1    
   173   87   88 2    
   174   87   89 am   BACKBONE|DICT|INTERRES
   175   89   90 1    
   176   89  210 1    
   177   90   91 1    
   178   90   92 1    
   179   90  211 1    
   180   91  212 1    
   181   91  213 1    
   182   91  214 1    
   183   92   93 2    
   184   92   94 am   BACKBONE|DICT|INTERRES
   185   94   95 1    
   186   94  215 1    
   187   95   96 1    
   188   95   97 1    
   189   95  216 1    
   190   96  217 1    
   191   96  218 1    
   192   96  219 1    
   193   97   98 2    
   194   97   99 am   BACKBONE|DICT|INTERRES
   195   99  100 1    
   196   99  220 1    
   197  100  101 1    
   198  100  102 1    
   199  100  221 1    
   200  101  222 1    
   201  101  223 1    
   202  101  224 1    
   203  102  103 2    
   204  102  104 am   BACKBONE|DICT|INTERRES
   205  104  105 1    
   206  104  225 1    
   207  105  106 1    
   208  105  107 1    
   209  105  226 1    
   210  106  227 1    
   211  106  228 1    
   212  106  229 1    
   213  107  108 2    
   214  107  109 am   BACKBONE|DICT|INTERRES
   215  109  110 1    
   216  109  230 1    
   217  110  111 1    
   218  110  112 1    
   219  110  231 1    
   220  111  232 1    
   221  111  233 1    
   222  111  234 1    
   223  112  113 2    
   224  112  114 am   BACKBONE|DICT|INTERRES
   225  114  115 1    
   226  114  235 1    
   227  115  116 1    
   228  115  117 1    
   229  115  236 1    
   230  116  237 1    
   231  116  238 1    
   232  116  239 1    
   233  117  118 2    
   234  117  119 am   BACKBONE|DICT|INTERRES
   235  119  120 1    
   236  119  240 1    
   237  120  121 1    
   238  120  124 1    
   239  120  241 1    
   240  121  122 am   BACKBONE|DICT|INTERRES
   241  121  123 2    
   242  122  242 1    
   243  122  243 1    
   244  124  125 1    
   245  124  244 1    
   246  124  245 1    
   247  125  126 1    
   248  126  246 1    
   249  126  247 1    
@<TRIPOS>SUBSTRUCTURE
     1 UNK         1 GROUP             0       ****    0 ROOT    
