@<TRIPOS>MOLECULE
3R540
247   249    1
SMALL
USER_CHARGES


@<TRIPOS>ATOM
      1 CA          0.6471  -12.4873  -46.3397 C.3       0 UNK        -0.1800 
      2 C           2.1413  -12.6548  -46.5667 C.2       0 UNK         0.5000 
      3 O           2.9063  -12.7574  -45.6065 O.2       0 UNK        -0.5000 
      4 N           2.5572  -12.6713  -47.8392 N.am      1 UNK        -0.5000 
      5 CA          3.9191  -12.8980  -48.3495 C.3       1 UNK         0.1400 
      6 C6          4.5474  -14.2562  -47.9271 C.3       23 UNK        -0.0398 
      7 S7          3.4611  -15.6813  -48.2672 S.3       23 UNK        -0.2404 
      8 C8          3.8679  -16.0165  -50.0063 C.3       23 UNK        -0.0205 
      9 C9          2.7903  -16.8745  -50.6439 C.ar      23 UNK        -0.0193 
     10 C10         1.6111  -16.2815  -51.1025 C.ar      23 UNK        -0.1150 
     11 C11         0.5952  -17.0618  -51.6594 C.ar      23 UNK        -0.0193 
     12 C12         0.7698  -18.4439  -51.7644 C.ar      23 UNK        -0.1150 
     13 C13         1.9391  -19.0507  -51.2962 C.ar      23 UNK        -0.0193 
     14 C14         2.9531  -18.2580  -50.7496 C.ar      23 UNK        -0.1150 
     15 C15         2.0950  -20.5637  -51.3614 C.3       23 UNK        -0.0205 
     16 S16         2.2862  -21.3175  -49.7127 S.3       23 UNK        -0.2404 
     17 C17         0.7990  -20.7386  -48.8234 C.3       23 UNK        -0.0398 
     18 CA          0.1718  -21.8639  -47.9553 C.3       11 UNK         0.1400 
     19 N          -0.0192  -21.4609  -46.5588 N.am      11 UNK        -0.5000 
     20 C          -0.2998  -22.3132  -45.5623 C.2       10 UNK         0.5000 
     21 O          -0.3854  -23.5315  -45.7101 O.2       10 UNK        -0.5000 
     22 CA         -0.5796  -21.7056  -44.1774 C.3       10 UNK         0.1400 
     23 CB          0.7326  -21.4241  -43.4311 C.3       10 UNK        -0.1800 
     24 N          -1.3876  -20.4882  -44.2527 N.am      10 UNK        -0.5000 
     25 C          -2.6481  -20.4483  -44.7082 C.2       9 UNK         0.5000 
     26 O          -3.2778  -21.4488  -45.0496 O.2       9 UNK        -0.5000 
     27 CA         -3.3026  -19.0621  -44.8512 C.3       9 UNK         0.1400 
     28 CB         -3.8742  -18.5894  -43.5072 C.3       9 UNK        -0.1800 
     29 N          -2.3904  -18.0483  -45.3817 N.am      9 UNK        -0.5000 
     30 C          -1.8108  -18.0965  -46.5907 C.2       8 UNK         0.5000 
     31 O          -1.9931  -19.0031  -47.4037 O.2       8 UNK        -0.5000 
     32 CA         -0.8074  -16.9748  -46.9125 C.3       8 UNK         0.1400 
     33 CB         -1.5270  -15.6691  -47.2863 C.3       8 UNK        -0.1800 
     34 N           0.1036  -16.7270  -45.7952 N.am      8 UNK        -0.5000 
     35 C           1.0123  -17.6042  -45.3468 C.2       7 UNK         0.5000 
     36 O           1.2177  -18.7042  -45.8604 O.2       7 UNK        -0.5000 
     37 CA          1.7762  -17.2022  -44.0729 C.3       7 UNK         0.1400 
     38 CB          2.9289  -16.2434  -44.4067 C.3       7 UNK        -0.1800 
     39 N           0.8958  -16.5898  -43.0745 N.am      7 UNK        -0.5000 
     40 C          -0.0444  -17.2629  -42.3924 C.2       6 UNK         0.5000 
     41 O          -0.2415  -18.4691  -42.5242 O.2       6 UNK        -0.5000 
     42 CA         -0.9436  -16.4655  -41.4257 C.3       6 UNK         0.1400 
     43 CB         -0.3143  -16.4196  -40.0256 C.3       6 UNK        -0.1800 
     44 N          -1.2181  -15.1005  -41.8689 N.am      6 UNK        -0.5000 
     45 C          -1.7944  -14.7597  -43.0293 C.2       5 UNK         0.5000 
     46 O          -2.2592  -15.5767  -43.8242 O.2       5 UNK        -0.5000 
     47 CA         -1.8027  -13.2593  -43.3905 C.3       5 UNK         0.1400 
     48 CB         -3.1769  -12.6468  -43.0833 C.3       5 UNK        -0.1800 
     49 N          -0.7622  -12.4512  -42.7357 N.am      5 UNK        -0.5000 
     50 C           0.5573  -12.6891  -42.7587 C.2       4 UNK         0.5000 
     51 O           1.0663  -13.6773  -43.2934 O.2       4 UNK        -0.5000 
     52 CA          1.4458  -11.6938  -42.0029 C.3       4 UNK         0.1400 
     53 CB          1.3426  -11.9634  -40.4861 C.3       4 UNK        -0.1800 
     54 N           2.8201  -11.8597  -42.4693 N.am      4 UNK        -0.5000 
     55 C           3.8816  -11.1365  -42.0969 C.2       3 UNK         0.5000 
     56 O           3.8192  -10.1486  -41.3636 O.2       3 UNK        -0.5000 
     57 CA          5.2492  -11.6103  -42.6191 C.3       3 UNK         0.1400 
     58 CB          5.5070  -13.0888  -42.2758 C.3       3 UNK        -0.1800 
     59 N           5.3956  -11.4210  -44.0596 N.am      3 UNK        -0.5000 
     60 C           5.5782  -10.2411  -44.6712 C.2       2 UNK         0.5000 
     61 O           5.6095   -9.1592  -44.0844 O.2       2 UNK        -0.5000 
     62 CA          5.7808  -10.2793  -46.1951 C.3       2 UNK         0.1400 
     63 CB          7.2822  -10.4439  -46.5111 C.3       2 UNK        -0.1800 
     64 N           4.9826  -11.3595  -46.7730 N.am      2 UNK        -0.5000 
     65 C           4.8792  -11.7260  -48.0533 C.2       1 UNK         0.5000 
     66 O           5.4774  -11.1806  -48.9813 O.2       1 UNK        -0.5000 
     67 C          -1.1287  -22.4254  -48.5687 C.2       11 UNK         0.5000 
     68 O          -1.0863  -23.4660  -49.2242 O.2       11 UNK        -0.5000 
     69 N          -2.2646  -21.7660  -48.2939 N.am      12 UNK        -0.5000 
     70 CA         -3.6069  -22.2131  -48.6761 C.3       12 UNK         0.1400 
     71 CB         -4.6371  -21.1396  -48.2988 C.3       12 UNK        -0.1800 
     72 C          -3.9797  -23.5726  -48.0598 C.2       12 UNK         0.5000 
     73 O          -4.5086  -24.4329  -48.7649 O.2       12 UNK        -0.5000 
     74 N          -3.6650  -23.7530  -46.7693 N.am      13 UNK        -0.5000 
     75 CA         -3.8527  -25.0012  -46.0317 C.3       13 UNK         0.1400 
     76 CB         -3.6030  -24.7632  -44.5350 C.3       13 UNK        -0.1800 
     77 C          -2.9677  -26.1420  -46.5641 C.2       13 UNK         0.5000 
     78 O          -3.4688  -27.2491  -46.7594 O.2       13 UNK        -0.5000 
     79 N          -1.6866  -25.8490  -46.8326 N.am      14 UNK        -0.5000 
     80 CA         -0.7199  -26.7847  -47.4161 C.3       14 UNK         0.1400 
     81 CB          0.6801  -26.1525  -47.4061 C.3       14 UNK        -0.1800 
     82 C          -1.1024  -27.2351  -48.8387 C.2       14 UNK         0.5000 
     83 O          -0.9251  -28.4056  -49.1770 O.2       14 UNK        -0.5000 
     84 N          -1.6600  -26.3080  -49.6274 N.am      15 UNK        -0.5000 
     85 CA         -2.2150  -26.5546  -50.9582 C.3       15 UNK         0.1400 
     86 CB         -2.2603  -25.2220  -51.7200 C.3       15 UNK        -0.1800 
     87 C          -3.6144  -27.2052  -50.9348 C.2       15 UNK         0.5000 
     88 O          -4.1486  -27.5027  -52.0037 O.2       15 UNK        -0.5000 
     89 N          -4.2067  -27.3774  -49.7419 N.am      16 UNK        -0.5000 
     90 CA         -5.5459  -27.9186  -49.4760 C.3       16 UNK         0.1400 
     91 CB         -5.5790  -29.4308  -49.7779 C.3       16 UNK        -0.1800 
     92 C          -6.6725  -27.1409  -50.1926 C.2       16 UNK         0.5000 
     93 O          -7.6799  -27.7323  -50.5842 O.2       16 UNK        -0.5000 
     94 N          -6.4544  -25.8308  -50.3813 N.am      17 UNK        -0.5000 
     95 CA         -7.2744  -24.8720  -51.1288 C.3       17 UNK         0.1400 
     96 CB         -8.6382  -24.6674  -50.4383 C.3       17 UNK        -0.1800 
     97 C          -7.4211  -25.1737  -52.6400 C.2       17 UNK         0.5000 
     98 O          -8.2282  -24.5204  -53.3034 O.2       17 UNK        -0.5000 
     99 N          -6.6362  -26.1197  -53.1806 N.am      18 UNK        -0.5000 
    100 CA        -6.5903  -26.4398  -54.6128 C.3       18 UNK         0.1400 
    101 CB        -6.0634  -27.8715  -54.7934 C.3       18 UNK        -0.1800 
    102 C         -5.7266  -25.4383  -55.4062 C.2       18 UNK         0.5000 
    103 O         -5.8586  -25.3426  -56.6269 O.2       18 UNK        -0.5000 
    104 N         -4.8744  -24.7038  -54.6886 N.am      19 UNK        -0.5000 
    105 CA        -4.0618  -23.5841  -55.1377 C.3       19 UNK         0.1400 
    106 CB        -2.7182  -24.1013  -55.6853 C.3       19 UNK        -0.1800 
    107 C         -3.8885  -22.6422  -53.9329 C.2       19 UNK         0.5000 
    108 O         -4.4491  -22.9144  -52.8658 O.2       19 UNK        -0.5000 
    109 N         -3.1186  -21.5598  -54.1194 N.am      20 UNK        -0.5000 
    110 CA        -2.8181  -20.5286  -53.1172 C.3       20 UNK         0.1400 
    111 CB        -1.9383  -21.1009  -51.9877 C.3       20 UNK        -0.1800 
    112 C         -4.0941  -19.8199  -52.6172 C.2       20 UNK         0.5000 
    113 O         -4.3735  -19.7743  -51.4179 O.2       20 UNK        -0.5000 
    114 N         -4.8491  -19.2725  -53.5811 N.am      21 UNK        -0.5000 
    115 CA        -6.1401  -18.5959  -53.4034 C.3       21 UNK         0.1400 
    116 CB        -6.7138  -18.2684  -54.7914 C.3       21 UNK        -0.1800 
    117 C         -6.1091  -17.3326  -52.5150 C.2       21 UNK         0.5000 
    118 O         -7.1717  -16.8299  -52.1464 O.2       21 UNK        -0.5000 
    119 N         -4.9070  -16.8525  -52.1744 N.am      22 UNK        -0.5000 
    120 CA        -4.6573  -15.8295  -51.1507 C.3       22 UNK         0.1400 
    121 C         -5.0736  -16.2399  -49.7037 C.2       22 UNK         0.5000 
    122 N         -5.2011  -17.5252  -49.3912 N.am      22 UNK        -0.7600 
    123 O         -5.2929  -15.3754  -48.8599 O.2       22 UNK        -0.5000 
    124 C124       -3.1865  -15.3410  -51.1998 C.3       23 UNK        -0.0398 
    125 S125       -1.9699  -16.6524  -50.8148 S.3       23 UNK        -0.2404 
    126 C126       -0.7085  -16.4173  -52.0987 C.3       23 UNK        -0.0205 
    127 H127        0.4597  -11.6660  -45.6486 H         1 UNK         0.0600 
    128 H128        0.1139  -12.2802  -47.2677 H         1 UNK         0.0600 
    129 H129        0.2399  -13.4020  -45.9111 H         1 UNK         0.0600 
    130 H130        1.8642  -12.5465  -48.5632 H         1 UNK         0.3000 
    131 H131        3.8069  -12.9231  -49.4344 H         1 UNK         0.0600 
    132 H132        5.5017  -14.4122  -48.4333 H         1 UNK         0.0800 
    133 H133        4.7697  -14.2633  -46.8590 H         1 UNK         0.0800 
    134 H134        3.9573  -15.0803  -50.5587 H         1 UNK         0.0800 
    135 H135        4.8405  -16.5074  -50.0654 H         1 UNK         0.0800 
    136 H136        1.4754  -15.2139  -51.0009 H         1 UNK         0.1150 
    137 H137       -0.0201  -19.0461  -52.1867 H         1 UNK         0.1150 
    138 H138        3.8561  -18.7236  -50.3804 H         1 UNK         0.1150 
    139 H139        1.2459  -21.0251  -51.8647 H         1 UNK         0.0800 
    140 H140        2.9730  -20.8034  -51.9624 H         1 UNK         0.0800 
    141 H141        0.0800  -20.3158  -49.5273 H         1 UNK         0.0800 
    142 H142        1.1140  -19.8968  -48.2064 H         1 UNK         0.0800 
    143 H143        0.8712  -22.7022  -47.9181 H         1 UNK         0.0600 
    144 H144        0.0583  -20.4718  -46.3510 H         1 UNK         0.3000 
    145 H145       -1.1422  -22.4428  -43.6012 H         1 UNK         0.0600 
    146 H146        0.5413  -21.1002  -42.4081 H         1 UNK         0.0600 
    147 H147        1.3514  -22.3207  -43.3763 H         1 UNK         0.0600 
    148 H148        1.3196  -20.6488  -43.9239 H         1 UNK         0.0600 
    149 H149       -0.9527  -19.6334  -43.9186 H         1 UNK         0.3000 
    150 H150       -4.1301  -19.1577  -45.5569 H         1 UNK         0.0600 
    151 H151       -4.6078  -19.3000  -43.1246 H         1 UNK         0.0600 
    152 H152       -4.3739  -17.6255  -43.6064 H         1 UNK         0.0600 
    153 H153       -3.0937  -18.4870  -42.7539 H         1 UNK         0.0600 
    154 H154       -2.2097  -17.2433  -44.7879 H         1 UNK         0.3000 
    155 H155       -0.2167  -17.2957  -47.7738 H         1 UNK         0.0600 
    156 H156       -0.8296  -14.9452  -47.7076 H         1 UNK         0.0600 
    157 H157       -2.0136  -15.2086  -46.4273 H         1 UNK         0.0600 
    158 H158       -2.3009  -15.8474  -48.0326 H         1 UNK         0.0600 
    159 H159       -0.0271  -15.8696  -45.2796 H         1 UNK         0.3000 
    160 H160        2.2051  -18.1080  -43.6391 H         1 UNK         0.0600 
    161 H161        2.5665  -15.3249  -44.8679 H         1 UNK         0.0600 
    162 H162        3.6286  -16.7034  -45.1055 H         1 UNK         0.0600 
    163 H163        3.4897  -15.9706  -43.5129 H         1 UNK         0.0600 
    164 H164        0.9713  -15.5825  -42.9605 H         1 UNK         0.3000 
    165 H165       -1.8993  -16.9870  -41.3533 H         1 UNK         0.0600 
    166 H166        0.6319  -15.8767  -40.0277 H         1 UNK         0.0600 
    167 H167       -0.9785  -15.9354  -39.3094 H         1 UNK         0.0600 
    168 H168       -0.1153  -17.4257  -39.6538 H         1 UNK         0.0600 
    169 H169       -0.8595  -14.3582  -41.2877 H         1 UNK         0.3000 
    170 H170       -1.6384  -13.1921  -44.4667 H         1 UNK         0.0600 
    171 H171       -3.9740  -13.2061  -43.5755 H         1 UNK         0.0600 
    172 H172       -3.3872  -12.6485  -42.0130 H         1 UNK         0.0600 
    173 H173       -3.2394  -11.6177  -43.4376 H         1 UNK         0.0600 
    174 H174       -1.0910  -11.6295  -42.2490 H         1 UNK         0.3000 
    175 H175        1.1142  -10.6791  -42.2301 H         1 UNK         0.0600 
    176 H176        1.9034  -11.2323  -39.9046 H         1 UNK         0.0600 
    177 H177        0.3089  -11.9087  -40.1427 H         1 UNK         0.0600 
    178 H178        1.7209  -12.9541  -40.2299 H         1 UNK         0.0600 
    179 H179        2.9321  -12.6196  -43.1329 H         1 UNK         0.3000 
    180 H180        6.0161  -11.0167  -42.1166 H         1 UNK         0.0600 
    181 H181        4.8368  -13.7584  -42.8165 H         1 UNK         0.0600 
    182 H182        5.3666  -13.2729  -41.2099 H         1 UNK         0.0600 
    183 H183        6.5299  -13.3747  -42.5211 H         1 UNK         0.0600 
    184 H184        5.3853  -12.2597  -44.6202 H         1 UNK         0.3000 
    185 H185        5.4269   -9.3327  -46.6075 H         1 UNK         0.0600 
    186 H186        7.4907  -10.3125  -47.5722 H         1 UNK         0.0600 
    187 H187        7.8772   -9.6995  -45.9802 H         1 UNK         0.0600 
    188 H188        7.6487  -11.4276  -46.2157 H         1 UNK         0.0600 
    189 H189        4.3423  -11.8231  -46.1290 H         1 UNK         0.3000 
    190 H190       -2.2065  -20.8863  -47.7874 H         1 UNK         0.3000 
    191 H191       -3.6320  -22.3299  -49.7588 H         1 UNK         0.0600 
    192 H192       -4.3648  -20.1733  -48.7214 H         1 UNK         0.0600 
    193 H193       -5.6244  -21.3979  -48.6831 H         1 UNK         0.0600 
    194 H194       -4.7249  -21.0175  -47.2200 H         1 UNK         0.0600 
    195 H195       -3.2882  -22.9673  -46.2462 H         1 UNK         0.3000 
    196 H196       -4.8943  -25.3050  -46.1553 H         1 UNK         0.0600 
    197 H197       -3.7646  -25.6770  -43.9620 H         1 UNK         0.0600 
    198 H198       -4.2801  -24.0063  -44.1388 H         1 UNK         0.0600 
    199 H199       -2.5828  -24.4310  -44.3430 H         1 UNK         0.0600 
    200 H200       -1.3354  -24.9236  -46.5990 H         1 UNK         0.3000 
    201 H201       -0.6956  -27.6740  -46.7832 H         1 UNK         0.0600 
    202 H202        0.9938  -25.9057  -46.3918 H         1 UNK         0.0600 
    203 H203        0.7122  -25.2376  -47.9983 H         1 UNK         0.0600 
    204 H204        1.4218  -26.8376  -47.8184 H         1 UNK         0.0600 
    205 H205       -1.7023  -25.3484  -49.2954 H         1 UNK         0.3000 
    206 H206       -1.5506  -27.2330  -51.4969 H         1 UNK         0.0600 
    207 H207       -1.2683  -24.7781  -51.8053 H         1 UNK         0.0600 
    208 H208       -2.6421  -25.3620  -52.7307 H         1 UNK         0.0600 
    209 H209       -2.9073  -24.5000  -51.2204 H         1 UNK         0.0600 
    210 H210       -3.6991  -27.0783  -48.9186 H         1 UNK         0.3000 
    211 H211       -5.7211  -27.7885  -48.4074 H         1 UNK         0.0600 
    212 H212       -5.4663  -29.6325  -50.8436 H         1 UNK         0.0600 
    213 H213       -6.5224  -29.8746  -49.4580 H         1 UNK         0.0600 
    214 H214       -4.7810  -29.9541  -49.2510 H         1 UNK         0.0600 
    215 H215       -5.6122  -25.4376  -49.9658 H         1 UNK         0.3000 
    216 H216       -6.7348  -23.9252  -51.0720 H         1 UNK         0.0600 
    217 H217       -8.5128  -24.4289  -49.3821 H         1 UNK         0.0600 
    218 H218       -9.2666  -25.5554  -50.5105 H         1 UNK         0.0600 
    219 H219       -9.1880  -23.8419  -50.8916 H         1 UNK         0.0600 
    220 H220       -5.9799  -26.6166  -52.5879 H         1 UNK         0.3000 
    221 H221       -7.6037  -26.3994  -55.0174 H         1 UNK         0.0600 
    222 H222       -5.0262  -27.9639  -54.4703 H         1 UNK         0.0600 
    223 H223       -6.6578  -28.5869  -54.2246 H         1 UNK         0.0600 
    224 H224       -6.1060  -28.1719  -55.8410 H         1 UNK         0.0600 
    225 H225       -4.8986  -24.7979  -53.6808 H         1 UNK         0.3000 
    226 H226       -4.5948  -23.0386  -55.9190 H         1 UNK         0.0600 
    227 H227       -2.8718  -24.8217  -56.4889 H         1 UNK         0.0600 
    228 H228       -2.1176  -23.2892  -56.0954 H         1 UNK         0.0600 
    229 H229       -2.1260  -24.5891  -54.9109 H         1 UNK         0.0600 
    230 H230       -2.7060  -21.4160  -55.0304 H         1 UNK         0.3000 
    231 H231       -2.2292  -19.7608  -53.6213 H         1 UNK         0.0600 
    232 H232       -1.7598  -20.3611  -51.2066 H         1 UNK         0.0600 
    233 H233       -0.9710  -21.4155  -52.3753 H         1 UNK         0.0600 
    234 H234       -2.3897  -21.9710  -51.5180 H         1 UNK         0.0600 
    235 H235       -4.5335  -19.3650  -54.5356 H         1 UNK         0.3000 
    236 H236       -6.8121  -19.3049  -52.9157 H         1 UNK         0.0600 
    237 H237       -7.6971  -17.8029  -54.7110 H         1 UNK         0.0600 
    238 H238       -6.0690  -17.5802  -55.3393 H         1 UNK         0.0600 
    239 H239       -6.8334  -19.1698  -55.3927 H         1 UNK         0.0600 
    240 H240       -4.0921  -17.3449  -52.5059 H         1 UNK         0.3000 
    241 H241       -5.2863  -14.9753  -51.4081 H         1 UNK         0.0600 
    242 H242       -4.9747  -18.2443  -50.0691 H         1 UNK         0.3800 
    243 H243       -5.4745  -17.7820  -48.4577 H         1 UNK         0.3800 
    244 H244       -2.9763  -14.9299  -52.1879 H         1 UNK         0.0800 
    245 H245       -3.0357  -14.5172  -50.5000 H         1 UNK         0.0800 
    246 H246       -1.0513  -16.8531  -53.0381 H         1 UNK         0.0800 
    247 H247       -0.5585  -15.3519  -52.2806 H         1 UNK         0.0800 
@<TRIPOS>BOND
     1    1    2 1    
     2    1  127 1    
     3    1  128 1    
     4    1  129 1    
     5    2    3 2    
     6    2    4 am   BACKBONE|DICT|INTERRES
     7    4    5 1    
     8    4  130 1    
     9    5    6 1    
    10    5   65 1    
    11    5  131 1    
    12    6    7 1    
    13    6  132 1    
    14    6  133 1    
    15    7    8 1    
    16    8    9 1    
    17    8  134 1    
    18    8  135 1    
    19    9   10 ar   
    20    9   14 ar   
    21   10   11 ar   
    22   10  136 1    
    23   11   12 ar   
    24   11  126 1    
    25   12   13 ar   
    26   12  137 1    
    27   13   14 ar   
    28   13   15 1    
    29   14  138 1    
    30   15   16 1    
    31   15  139 1    
    32   15  140 1    
    33   16   17 1    
    34   17   18 1    
    35   17  141 1    
    36   17  142 1    
    37   18   19 1    
    38   18   67 1    
    39   18  143 1    
    40   19   20 am   BACKBONE|DICT|INTERRES
    41   19  144 1    
    42   20   21 2    
    43   20   22 1    
    44   22   23 1    
    45   22   24 1    
    46   22  145 1    
    47   23  146 1    
    48   23  147 1    
    49   23  148 1    
    50   24   25 am   BACKBONE|DICT|INTERRES
    51   24  149 1    
    52   25   26 2    
    53   25   27 1    
    54   27   28 1    
    55   27   29 1    
    56   27  150 1    
    57   28  151 1    
    58   28  152 1    
    59   28  153 1    
    60   29   30 am   BACKBONE|DICT|INTERRES
    61   29  154 1    
    62   30   31 2    
    63   30   32 1    
    64   32   33 1    
    65   32   34 1    
    66   32  155 1    
    67   33  156 1    
    68   33  157 1    
    69   33  158 1    
    70   34   35 am   BACKBONE|DICT|INTERRES
    71   34  159 1    
    72   35   36 2    
    73   35   37 1    
    74   37   38 1    
    75   37   39 1    
    76   37  160 1    
    77   38  161 1    
    78   38  162 1    
    79   38  163 1    
    80   39   40 am   BACKBONE|DICT|INTERRES
    81   39  164 1    
    82   40   41 2    
    83   40   42 1    
    84   42   43 1    
    85   42   44 1    
    86   42  165 1    
    87   43  166 1    
    88   43  167 1    
    89   43  168 1    
    90   44   45 am   BACKBONE|DICT|INTERRES
    91   44  169 1    
    92   45   46 2    
    93   45   47 1    
    94   47   48 1    
    95   47   49 1    
    96   47  170 1    
    97   48  171 1    
    98   48  172 1    
    99   48  173 1    
   100   49   50 am   BACKBONE|DICT|INTERRES
   101   49  174 1    
   102   50   51 2    
   103   50   52 1    
   104   52   53 1    
   105   52   54 1    
   106   52  175 1    
   107   53  176 1    
   108   53  177 1    
   109   53  178 1    
   110   54   55 am   BACKBONE|DICT|INTERRES
   111   54  179 1    
   112   55   56 2    
   113   55   57 1    
   114   57   58 1    
   115   57   59 1    
   116   57  180 1    
   117   58  181 1    
   118   58  182 1    
   119   58  183 1    
   120   59   60 am   BACKBONE|DICT|INTERRES
   121   59  184 1    
   122   60   61 2    
   123   60   62 1    
   124   62   63 1    
   125   62   64 1    
   126   62  185 1    
   127   63  186 1    
   128   63  187 1    
   129   63  188 1    
   130   64   65 am   BACKBONE|DICT|INTERRES
   131   64  189 1    
   132   65   66 2    
   133   67   68 2    
   134   67   69 am   BACKBONE|DICT|INTERRES
   135   69   70 1    
   136   69  190 1    
   137   70   71 1    
   138   70   72 1    
   139   70  191 1    
   140   71  192 1    
   141   71  193 1    
   142   71  194 1    
   143   72   73 2    
   144   72   74 am   BACKBONE|DICT|INTERRES
   145   74   75 1    
   146   74  195 1    
   147   75   76 1    
   148   75   77 1    
   149   75  196 1    
   150   76  197 1    
   151   76  198 1    
   152   76  199 1    
   153   77   78 2    
   154   77   79 am   BACKBONE|DICT|INTERRES
   155   79   80 1    
   156   79  200 1    
   157   80   81 1    
   158   80   82 1    
   159   80  201 1    
   160   81  202 1    
   161   81  203 1    
   162   81  204 1    
   163   82   83 2    
   164   82   84 am   BACKBONE|DICT|INTERRES
   165   84   85 1    
   166   84  205 1    
   167   85   86 1    
   168   85   87 1    
   169   85  206 1    
   170   86  207 1    
   171   86  208 1    
   172   86  209 1    
   173   87   88 2    
   174   87   89 am   BACKBONE|DICT|INTERRES
   175   89   90 1    
   176   89  210 1    
   177   90   91 1    
   178   90   92 1    
   179   90  211 1    
   180   91  212 1    
   181   91  213 1    
   182   91  214 1    
   183   92   93 2    
   184   92   94 am   BACKBONE|DICT|INTERRES
   185   94   95 1    
   186   94  215 1    
   187   95   96 1    
   188   95   97 1    
   189   95  216 1    
   190   96  217 1    
   191   96  218 1    
   192   96  219 1    
   193   97   98 2    
   194   97   99 am   BACKBONE|DICT|INTERRES
   195   99  100 1    
   196   99  220 1    
   197  100  101 1    
   198  100  102 1    
   199  100  221 1    
   200  101  222 1    
   201  101  223 1    
   202  101  224 1    
   203  102  103 2    
   204  102  104 am   BACKBONE|DICT|INTERRES
   205  104  105 1    
   206  104  225 1    
   207  105  106 1    
   208  105  107 1    
   209  105  226 1    
   210  106  227 1    
   211  106  228 1    
   212  106  229 1    
   213  107  108 2    
   214  107  109 am   BACKBONE|DICT|INTERRES
   215  109  110 1    
   216  109  230 1    
   217  110  111 1    
   218  110  112 1    
   219  110  231 1    
   220  111  232 1    
   221  111  233 1    
   222  111  234 1    
   223  112  113 2    
   224  112  114 am   BACKBONE|DICT|INTERRES
   225  114  115 1    
   226  114  235 1    
   227  115  116 1    
   228  115  117 1    
   229  115  236 1    
   230  116  237 1    
   231  116  238 1    
   232  116  239 1    
   233  117  118 2    
   234  117  119 am   BACKBONE|DICT|INTERRES
   235  119  120 1    
   236  119  240 1    
   237  120  121 1    
   238  120  124 1    
   239  120  241 1    
   240  121  122 am   BACKBONE|DICT|INTERRES
   241  121  123 2    
   242  122  242 1    
   243  122  243 1    
   244  124  125 1    
   245  124  244 1    
   246  124  245 1    
   247  125  126 1    
   248  126  246 1    
   249  126  247 1    
@<TRIPOS>SUBSTRUCTURE
     1 UNK         1 GROUP             0       ****    0 ROOT    
