@<TRIPOS>MOLECULE
3R540
247   249    1
SMALL
USER_CHARGES


@<TRIPOS>ATOM
      1 CA          5.4424  -14.1394  -45.2357 C.3       0 UNK        -0.1800 
      2 C           3.9863  -14.0278  -44.7903 C.2       0 UNK         0.5000 
      3 O           3.6198  -14.6337  -43.7865 O.2       0 UNK        -0.5000 
      4 N           3.1015  -13.2970  -45.4798 N.am      1 UNK        -0.5000 
      5 CA          3.2811  -12.4803  -46.6880 C.3       1 UNK         0.1400 
      6 C6          3.7678  -13.2573  -47.9413 C.3       23 UNK        -0.0398 
      7 S7          2.6786  -14.6656  -48.3351 S.3       23 UNK        -0.2404 
      8 C8          3.7289  -15.5970  -49.4919 C.3       23 UNK        -0.0205 
      9 C9          2.9785  -16.7521  -50.1423 C.ar      23 UNK        -0.0193 
     10 C10         1.8916  -16.4934  -50.9821 C.ar      23 UNK        -0.1150 
     11 C11         1.2036  -17.5370  -51.6097 C.ar      23 UNK        -0.0193 
     12 C12         1.6365  -18.8526  -51.4141 C.ar      23 UNK        -0.1150 
     13 C13         2.7420  -19.1261  -50.6009 C.ar      23 UNK        -0.0193 
     14 C14         3.3964  -18.0731  -49.9525 C.ar      23 UNK        -0.1150 
     15 C15         3.2768  -20.5480  -50.4814 C.3       23 UNK        -0.0205 
     16 S16         2.7472  -21.3812  -48.9542 S.3       23 UNK        -0.2404 
     17 C17         0.9850  -21.6766  -49.3071 C.3       23 UNK        -0.0398 
     18 CA          0.3313  -22.6526  -48.3004 C.3       11 UNK         0.1400 
     19 N           0.2603  -22.1099  -46.9399 N.am      11 UNK        -0.5000 
     20 C          -0.1349  -22.7990  -45.8599 C.2       10 UNK         0.5000 
     21 O          -0.4445  -23.9900  -45.8853 O.2       10 UNK        -0.5000 
     22 CA         -0.2521  -22.0227  -44.5355 C.3       10 UNK         0.1400 
     23 CB          1.1238  -21.8364  -43.8787 C.3       10 UNK        -0.1800 
     24 N          -0.9102  -20.7256  -44.6968 N.am      10 UNK        -0.5000 
     25 C          -2.1845  -20.5679  -45.0835 C.2       9 UNK         0.5000 
     26 O          -2.9516  -21.5041  -45.3050 O.2       9 UNK        -0.5000 
     27 CA         -2.6771  -19.1265  -45.3049 C.3       9 UNK         0.1400 
     28 CB         -3.0379  -18.4553  -43.9714 C.3       9 UNK        -0.1800 
     29 N          -1.7068  -18.3023  -46.0226 N.am      9 UNK        -0.5000 
     30 C          -1.2705  -18.5479  -47.2662 C.2       8 UNK         0.5000 
     31 O          -1.6714  -19.4787  -47.9640 O.2       8 UNK        -0.5000 
     32 CA         -0.1554  -17.6291  -47.7922 C.3       8 UNK         0.1400 
     33 CB         -0.7360  -16.2759  -48.2277 C.3       8 UNK        -0.1800 
     34 N           0.9113  -17.4240  -46.8087 N.am      8 UNK        -0.5000 
     35 C           1.6578  -18.4081  -46.2870 C.2       7 UNK         0.5000 
     36 O           1.5335  -19.5918  -46.5872 O.2       7 UNK        -0.5000 
     37 CA          2.6671  -18.0217  -45.1938 C.3       7 UNK         0.1400 
     38 CB          3.9457  -17.4403  -45.8107 C.3       7 UNK        -0.1800 
     39 N           2.0991  -17.0955  -44.2116 N.am      7 UNK        -0.5000 
     40 C           1.0940  -17.4193  -43.3851 C.2       6 UNK         0.5000 
     41 O           0.5700  -18.5331  -43.3499 O.2       6 UNK        -0.5000 
     42 CA          0.5524  -16.3061  -42.4716 C.3       6 UNK         0.1400 
     43 CB          1.4715  -16.0875  -41.2603 C.3       6 UNK        -0.1800 
     44 N           0.3340  -15.0305  -43.1569 N.am      6 UNK        -0.5000 
     45 C          -0.5006  -14.8403  -44.1891 C.2       5 UNK         0.5000 
     46 O          -1.1139  -15.7562  -44.7380 O.2       5 UNK        -0.5000 
     47 CA         -0.7061  -13.3849  -44.6613 C.3       5 UNK         0.1400 
     48 CB         -2.0371  -13.1978  -45.4119 C.3       5 UNK        -0.1800 
     49 N          -0.6754  -12.4526  -43.5307 N.am      5 UNK        -0.5000 
     50 C           0.3741  -11.7107  -43.1658 C.2       4 UNK         0.5000 
     51 O           1.4556  -11.7178  -43.7605 O.2       4 UNK        -0.5000 
     52 CA          0.1963  -10.8500  -41.9058 C.3       4 UNK         0.1400 
     53 CB          0.2231  -11.7221  -40.6392 C.3       4 UNK        -0.1800 
     54 N           1.2950   -9.8950  -41.8473 N.am      4 UNK        -0.5000 
     55 C           1.2001   -8.5850  -41.5991 C.2       3 UNK         0.5000 
     56 O           0.1599   -8.0258  -41.2493 O.2       3 UNK        -0.5000 
     57 CA          2.4877   -7.7539  -41.7875 C.3       3 UNK         0.1400 
     58 CB          3.1451   -7.4657  -40.4289 C.3       3 UNK        -0.1800 
     59 N           3.4731   -8.3988  -42.6642 N.am      3 UNK        -0.5000 
     60 C           3.3282   -8.5691  -43.9860 C.2       2 UNK         0.5000 
     61 O           2.3637   -8.1429  -44.6235 O.2       2 UNK        -0.5000 
     62 CA          4.4097   -9.3765  -44.7217 C.3       2 UNK         0.1400 
     63 CB          5.6344   -9.7549  -43.8616 C.3       2 UNK        -0.1800 
     64 N           3.7822  -10.5878  -45.2353 N.am      2 UNK        -0.5000 
     65 C           4.0903  -11.2029  -46.3820 C.2       1 UNK         0.5000 
     66 O           4.9735  -10.8206  -47.1513 O.2       1 UNK        -0.5000 
     67 C          -1.0531  -23.1028  -48.8057 C.2       11 UNK         0.5000 
     68 O          -1.1715  -24.2136  -49.3231 O.2       11 UNK        -0.5000 
     69 N          -2.0773  -22.2592  -48.6121 N.am      12 UNK        -0.5000 
     70 CA         -3.4676  -22.5566  -48.9554 C.3       12 UNK         0.1400 
     71 CB         -4.3356  -21.3108  -48.7311 C.3       12 UNK        -0.1800 
     72 C          -4.0248  -23.7572  -48.1717 C.2       12 UNK         0.5000 
     73 O          -4.6750  -24.6135  -48.7687 O.2       12 UNK        -0.5000 
     74 N          -3.7332  -23.8220  -46.8643 N.am      13 UNK        -0.5000 
     75 CA         -4.1083  -24.9290  -45.9840 C.3       13 UNK         0.1400 
     76 CB         -3.7968  -24.5667  -44.5244 C.3       13 UNK        -0.1800 
     77 C          -3.4340  -26.2554  -46.3755 C.2       13 UNK         0.5000 
     78 O          -4.1129  -27.2809  -46.4328 O.2       13 UNK        -0.5000 
     79 N          -2.1298  -26.2103  -46.6847 N.am      14 UNK        -0.5000 
     80 CA         -1.3460  -27.3537  -47.1628 C.3       14 UNK         0.1400 
     81 CB          0.1373  -26.9624  -47.2400 C.3       14 UNK        -0.1800 
     82 C          -1.8376  -27.8947  -48.5195 C.2       14 UNK         0.5000 
     83 O          -1.8396  -29.1079  -48.7296 O.2       14 UNK        -0.5000 
     84 N          -2.2846  -26.9860  -49.3945 N.am      15 UNK        -0.5000 
     85 CA         -2.9071  -27.2836  -50.6841 C.3       15 UNK         0.1400 
     86 CB         -2.6994  -26.0734  -51.6056 C.3       15 UNK        -0.1800 
     87 C          -4.4064  -27.6401  -50.5808 C.2       15 UNK         0.5000 
     88 O          -5.0331  -27.8766  -51.6142 O.2       15 UNK        -0.5000 
     89 N          -4.9718  -27.6427  -49.3626 N.am      16 UNK        -0.5000 
     90 CA         -6.3762  -27.9174  -49.0290 C.3       16 UNK         0.1400 
     91 CB         -6.6974  -29.4087  -49.2570 C.3       16 UNK        -0.1800 
     92 C          -7.3739  -26.9748  -49.7398 C.2       16 UNK         0.5000 
     93 O          -8.4839  -27.3890  -50.0780 O.2       16 UNK        -0.5000 
     94 N          -6.9377  -25.7292  -49.9779 N.am      17 UNK        -0.5000 
     95 CA         -7.6071  -24.6490  -50.7090 C.3       17 UNK         0.1400 
     96 CB         -8.8867  -24.2009  -49.9744 C.3       17 UNK        -0.1800 
     97 C          -7.8585  -24.9366  -52.2071 C.2       17 UNK         0.5000 
     98 O          -8.5597  -24.1586  -52.8559 O.2       17 UNK        -0.5000 
     99 N          -7.2724  -26.0140  -52.7520 N.am      18 UNK        -0.5000 
    100 CA        -7.3555  -26.3709  -54.1719 C.3       18 UNK         0.1400 
    101 CB        -7.0813  -27.8742  -54.3299 C.3       18 UNK        -0.1800 
    102 C         -6.3845  -25.5489  -55.0422 C.2       18 UNK         0.5000 
    103 O         -6.5679  -25.4741  -56.2578 O.2       18 UNK        -0.5000 
    104 N         -5.3784  -24.9453  -54.4039 N.am      19 UNK        -0.5000 
    105 CA        -4.3777  -24.0588  -54.9776 C.3       19 UNK         0.1400 
    106 CB        -3.2535  -24.8905  -55.6236 C.3       19 UNK        -0.1800 
    107 C         -3.8451  -23.1597  -53.8509 C.2       19 UNK         0.5000 
    108 O         -4.2052  -23.3578  -52.6874 O.2       19 UNK        -0.5000 
    109 N         -3.0027  -22.1848  -54.2190 N.am      20 UNK        -0.5000 
    110 CA        -2.2529  -21.2753  -53.3381 C.3       20 UNK         0.1400 
    111 CB        -1.2346  -22.0629  -52.4902 C.3       20 UNK        -0.1800 
    112 C         -3.1087  -20.3265  -52.4696 C.2       20 UNK         0.5000 
    113 O         -2.5623  -19.6419  -51.6047 O.2       20 UNK        -0.5000 
    114 N         -4.4196  -20.2541  -52.7325 N.am      21 UNK        -0.5000 
    115 CA        -5.3886  -19.3978  -52.0482 C.3       21 UNK         0.1400 
    116 CB        -6.7855  -20.0290  -52.1902 C.3       21 UNK        -0.1800 
    117 C         -5.3230  -17.9450  -52.5646 C.2       21 UNK         0.5000 
    118 O         -6.3139  -17.4152  -53.0704 O.2       21 UNK        -0.5000 
    119 N         -4.1363  -17.3395  -52.4532 N.am      22 UNK        -0.5000 
    120 CA        -3.8246  -15.9717  -52.8934 C.3       22 UNK         0.1400 
    121 C         -4.3587  -14.8373  -51.9676 C.2       22 UNK         0.5000 
    122 N         -4.8854  -15.1318  -50.7849 N.am      22 UNK        -0.7600 
    123 O         -4.3105  -13.6676  -52.3391 O.2       22 UNK        -0.5000 
    124 C124       -2.3143  -15.8105  -53.2082 C.3       23 UNK        -0.0398 
    125 S125       -1.2197  -16.1630  -51.7871 S.3       23 UNK        -0.2404 
    126 C126        0.0379  -17.2402  -52.5476 C.3       23 UNK        -0.0205 
    127 H127        5.5445  -14.8771  -46.0306 H         1 UNK         0.0600 
    128 H128        5.8453  -13.1896  -45.5818 H         1 UNK         0.0600 
    129 H129        6.0624  -14.4666  -44.4010 H         1 UNK         0.0600 
    130 H130        2.2013  -13.1618  -45.0408 H         1 UNK         0.3000 
    131 H131        2.2805  -12.1154  -46.9262 H         1 UNK         0.0600 
    132 H132        3.7750  -12.5978  -48.8108 H         1 UNK         0.0800 
    133 H133        4.7927  -13.6069  -47.8248 H         1 UNK         0.0800 
    134 H134        4.0889  -14.9266  -50.2736 H         1 UNK         0.0800 
    135 H135        4.6100  -15.9584  -48.9595 H         1 UNK         0.0800 
    136 H136        1.5783  -15.4717  -51.1449 H         1 UNK         0.1150 
    137 H137        1.1323  -19.6631  -51.9204 H         1 UNK         0.1150 
    138 H138        4.2506  -18.2833  -49.3244 H         1 UNK         0.1150 
    139 H139        2.9794  -21.1443  -51.3453 H         1 UNK         0.0800 
    140 H140        4.3673  -20.5216  -50.4994 H         1 UNK         0.0800 
    141 H141        0.9238  -22.0841  -50.3170 H         1 UNK         0.0800 
    142 H142        0.4589  -20.7202  -49.3196 H         1 UNK         0.0800 
    143 H143        0.9537  -23.5488  -48.2532 H         1 UNK         0.0600 
    144 H144        0.5581  -21.1426  -46.8251 H         1 UNK         0.3000 
    145 H145       -0.8661  -22.6197  -43.8582 H         1 UNK         0.0600 
    146 H146        1.0338  -21.3499  -42.9074 H         1 UNK         0.0600 
    147 H147        1.6116  -22.7985  -43.7176 H         1 UNK         0.0600 
    148 H148        1.7886  -21.2314  -44.4946 H         1 UNK         0.0600 
    149 H149       -0.3496  -19.9017  -44.5027 H         1 UNK         0.3000 
    150 H150       -3.5812  -19.1764  -45.9150 H         1 UNK         0.0600 
    151 H151       -3.7793  -19.0414  -43.4271 H         1 UNK         0.0600 
    152 H152       -3.4598  -17.4630  -44.1321 H         1 UNK         0.0600 
    153 H153       -2.1662  -18.3454  -43.3260 H         1 UNK         0.0600 
    154 H154       -1.3422  -17.4920  -45.5283 H         1 UNK         0.3000 
    155 H155        0.2839  -18.1105  -48.6685 H         1 UNK         0.0600 
    156 H156       -0.0134  -15.7040  -48.8075 H         1 UNK         0.0600 
    157 H157       -1.0398  -15.6701  -47.3761 H         1 UNK         0.0600 
    158 H158       -1.6154  -16.4133  -48.8575 H         1 UNK         0.0600 
    159 H159        1.0610  -16.4793  -46.4896 H         1 UNK         0.3000 
    160 H160        2.9437  -18.9351  -44.6629 H         1 UNK         0.0600 
    161 H161        3.7415  -16.5279  -46.3674 H         1 UNK         0.0600 
    162 H162        4.3989  -18.1493  -46.5047 H         1 UNK         0.0600 
    163 H163        4.6870  -17.2136  -45.0445 H         1 UNK         0.0600 
    164 H164        2.5146  -16.1708  -44.1409 H         1 UNK         0.3000 
    165 H165       -0.4177  -16.6403  -42.0977 H         1 UNK         0.0600 
    166 H166        2.4496  -15.7083  -41.5578 H         1 UNK         0.0600 
    167 H167        1.0360  -15.3764  -40.5580 H         1 UNK         0.0600 
    168 H168        1.6322  -17.0209  -40.7192 H         1 UNK         0.0600 
    169 H169        0.8263  -14.2325  -42.7841 H         1 UNK         0.3000 
    170 H170        0.0998  -13.1594  -45.3618 H         1 UNK         0.0600 
    171 H171       -2.0768  -13.8148  -46.3096 H         1 UNK         0.0600 
    172 H172       -2.8912  -13.4675  -44.7895 H         1 UNK         0.0600 
    173 H173       -2.1671  -12.1631  -45.7293 H         1 UNK         0.0600 
    174 H174       -1.5146  -12.4172  -42.9688 H         1 UNK         0.3000 
    175 H175       -0.7612  -10.3299  -41.9780 H         1 UNK         0.0600 
    176 H176        0.1197  -11.1121  -39.7416 H         1 UNK         0.0600 
    177 H177       -0.5957  -12.4425  -40.6361 H         1 UNK         0.0600 
    178 H178        1.1553  -12.2826  -40.5556 H         1 UNK         0.0600 
    179 H179        2.1742  -10.2526  -42.1939 H         1 UNK         0.3000 
    180 H180        2.2003   -6.8015  -42.2379 H         1 UNK         0.0600 
    181 H181        3.4659   -8.3834  -39.9342 H         1 UNK         0.0600 
    182 H182        2.4506   -6.9573  -39.7587 H         1 UNK         0.0600 
    183 H183        4.0169   -6.8208  -40.5408 H         1 UNK         0.0600 
    184 H184        4.2963   -8.7748  -42.2160 H         1 UNK         0.3000 
    185 H185        4.7480   -8.7547  -45.5533 H         1 UNK         0.0600 
    186 H186        6.3832  -10.2726  -44.4616 H         1 UNK         0.0600 
    187 H187        6.1173   -8.8691  -43.4471 H         1 UNK         0.0600 
    188 H188        5.3658  -10.4150  -43.0359 H         1 UNK         0.0600 
    189 H189        3.0106  -10.9554  -44.6840 H         1 UNK         0.3000 
    190 H190       -1.8956  -21.3393  -48.2161 H         1 UNK         0.3000 
    191 H191       -3.5004  -22.8056  -50.0180 H         1 UNK         0.0600 
    192 H192       -3.9453  -20.4589  -49.2865 H         1 UNK         0.0600 
    193 H193       -5.3589  -21.4823  -49.0672 H         1 UNK         0.0600 
    194 H194       -4.3737  -21.0289  -47.6786 H         1 UNK         0.0600 
    195 H195       -3.2344  -23.0487  -46.4325 H         1 UNK         0.3000 
    196 H196       -5.1876  -25.0696  -46.0725 H         1 UNK         0.0600 
    197 H197       -4.0759  -25.3784  -43.8515 H         1 UNK         0.0600 
    198 H198       -4.3508  -23.6813  -44.2124 H         1 UNK         0.0600 
    199 H199       -2.7356  -24.3661  -44.3759 H         1 UNK         0.0600 
    200 H200       -1.6285  -25.3323  -46.5727 H         1 UNK         0.3000 
    201 H201       -1.4486  -28.1568  -46.4302 H         1 UNK         0.0600 
    202 H202        0.5158  -26.6593  -46.2636 H         1 UNK         0.0600 
    203 H203        0.2996  -26.1356  -47.9322 H         1 UNK         0.0600 
    204 H204        0.7466  -27.8009  -47.5794 H         1 UNK         0.0600 
    205 H205       -2.1890  -26.0025  -49.1613 H         1 UNK         0.3000 
    206 H206       -2.4035  -28.1417  -51.1332 H         1 UNK         0.0600 
    207 H207       -1.6399  -25.8693  -51.7599 H         1 UNK         0.0600 
    208 H208       -3.1460  -26.2366  -52.5865 H         1 UNK         0.0600 
    209 H209       -3.1505  -25.1773  -51.1797 H         1 UNK         0.0600 
    210 H210       -4.3865  -27.4031  -48.5717 H         1 UNK         0.3000 
    211 H211       -6.4798  -27.7156  -47.9621 H         1 UNK         0.0600 
    212 H212       -6.6685  -29.6711  -50.3151 H         1 UNK         0.0600 
    213 H213       -7.6918  -29.6576  -48.8847 H         1 UNK         0.0600 
    214 H214       -5.9873  -30.0484  -48.7331 H         1 UNK         0.0600 
    215 H215       -6.0155  -25.4826  -49.6191 H         1 UNK         0.3000 
    216 H216       -6.9089  -23.8106  -50.6872 H         1 UNK         0.0600 
    217 H217       -8.6815  -23.9769  -48.9275 H         1 UNK         0.0600 
    218 H218       -9.6631  -24.9654  -50.0093 H         1 UNK         0.0600 
    219 H219       -9.2999  -23.2964  -50.4222 H         1 UNK         0.0600 
    220 H220       -6.6954  -26.6109  -52.1698 H         1 UNK         0.3000 
    221 H221       -8.3692  -26.1736  -54.5270 H         1 UNK         0.0600 
    222 H222       -6.0568  -28.1283  -54.0569 H         1 UNK         0.0600 
    223 H223       -7.7521  -28.4669  -53.7076 H         1 UNK         0.0600 
    224 H224       -7.2307  -28.1901  -55.3631 H         1 UNK         0.0600 
    225 H225       -5.3342  -25.0043  -53.3939 H         1 UNK         0.3000 
    226 H226       -4.8479  -23.4220  -55.7296 H         1 UNK         0.0600 
    227 H227       -3.6432  -25.5445  -56.4039 H         1 UNK         0.0600 
    228 H228       -2.5030  -24.2504  -56.0882 H         1 UNK         0.0600 
    229 H229       -2.7432  -25.5153  -54.8900 H         1 UNK         0.0600 
    230 H230       -2.7992  -22.0840  -55.2039 H         1 UNK         0.3000 
    231 H231       -1.6838  -20.6222  -54.0012 H         1 UNK         0.0600 
    232 H232       -0.6035  -21.3858  -51.9163 H         1 UNK         0.0600 
    233 H233       -0.5777  -22.6645  -53.1180 H         1 UNK         0.0600 
    234 H234       -1.7260  -22.7312  -51.7832 H         1 UNK         0.0600 
    235 H235       -4.7811  -20.8351  -53.4733 H         1 UNK         0.3000 
    236 H236       -5.1484  -19.3681  -50.9844 H         1 UNK         0.0600 
    237 H237       -7.5362  -19.4427  -51.6588 H         1 UNK         0.0600 
    238 H238       -7.0952  -20.0938  -53.2340 H         1 UNK         0.0600 
    239 H239       -6.8062  -21.0360  -51.7722 H         1 UNK         0.0600 
    240 H240       -3.3737  -17.8586  -52.0280 H         1 UNK         0.3000 
    241 H241       -4.3484  -15.8224  -53.8395 H         1 UNK         0.0600 
    242 H242       -4.9267  -16.0863  -50.4680 H         1 UNK         0.3800 
    243 H243       -5.2348  -14.3906  -50.1984 H         1 UNK         0.3800 
    244 H244       -2.0527  -16.4752  -54.0324 H         1 UNK         0.0800 
    245 H245       -2.1000  -14.8030  -53.5687 H         1 UNK         0.0800 
    246 H246       -0.4433  -18.1653  -52.8688 H         1 UNK         0.0800 
    247 H247        0.4295  -16.7595  -53.4450 H         1 UNK         0.0800 
@<TRIPOS>BOND
     1    1    2 1    
     2    1  127 1    
     3    1  128 1    
     4    1  129 1    
     5    2    3 2    
     6    2    4 am   BACKBONE|DICT|INTERRES
     7    4    5 1    
     8    4  130 1    
     9    5    6 1    
    10    5   65 1    
    11    5  131 1    
    12    6    7 1    
    13    6  132 1    
    14    6  133 1    
    15    7    8 1    
    16    8    9 1    
    17    8  134 1    
    18    8  135 1    
    19    9   10 ar   
    20    9   14 ar   
    21   10   11 ar   
    22   10  136 1    
    23   11   12 ar   
    24   11  126 1    
    25   12   13 ar   
    26   12  137 1    
    27   13   14 ar   
    28   13   15 1    
    29   14  138 1    
    30   15   16 1    
    31   15  139 1    
    32   15  140 1    
    33   16   17 1    
    34   17   18 1    
    35   17  141 1    
    36   17  142 1    
    37   18   19 1    
    38   18   67 1    
    39   18  143 1    
    40   19   20 am   BACKBONE|DICT|INTERRES
    41   19  144 1    
    42   20   21 2    
    43   20   22 1    
    44   22   23 1    
    45   22   24 1    
    46   22  145 1    
    47   23  146 1    
    48   23  147 1    
    49   23  148 1    
    50   24   25 am   BACKBONE|DICT|INTERRES
    51   24  149 1    
    52   25   26 2    
    53   25   27 1    
    54   27   28 1    
    55   27   29 1    
    56   27  150 1    
    57   28  151 1    
    58   28  152 1    
    59   28  153 1    
    60   29   30 am   BACKBONE|DICT|INTERRES
    61   29  154 1    
    62   30   31 2    
    63   30   32 1    
    64   32   33 1    
    65   32   34 1    
    66   32  155 1    
    67   33  156 1    
    68   33  157 1    
    69   33  158 1    
    70   34   35 am   BACKBONE|DICT|INTERRES
    71   34  159 1    
    72   35   36 2    
    73   35   37 1    
    74   37   38 1    
    75   37   39 1    
    76   37  160 1    
    77   38  161 1    
    78   38  162 1    
    79   38  163 1    
    80   39   40 am   BACKBONE|DICT|INTERRES
    81   39  164 1    
    82   40   41 2    
    83   40   42 1    
    84   42   43 1    
    85   42   44 1    
    86   42  165 1    
    87   43  166 1    
    88   43  167 1    
    89   43  168 1    
    90   44   45 am   BACKBONE|DICT|INTERRES
    91   44  169 1    
    92   45   46 2    
    93   45   47 1    
    94   47   48 1    
    95   47   49 1    
    96   47  170 1    
    97   48  171 1    
    98   48  172 1    
    99   48  173 1    
   100   49   50 am   BACKBONE|DICT|INTERRES
   101   49  174 1    
   102   50   51 2    
   103   50   52 1    
   104   52   53 1    
   105   52   54 1    
   106   52  175 1    
   107   53  176 1    
   108   53  177 1    
   109   53  178 1    
   110   54   55 am   BACKBONE|DICT|INTERRES
   111   54  179 1    
   112   55   56 2    
   113   55   57 1    
   114   57   58 1    
   115   57   59 1    
   116   57  180 1    
   117   58  181 1    
   118   58  182 1    
   119   58  183 1    
   120   59   60 am   BACKBONE|DICT|INTERRES
   121   59  184 1    
   122   60   61 2    
   123   60   62 1    
   124   62   63 1    
   125   62   64 1    
   126   62  185 1    
   127   63  186 1    
   128   63  187 1    
   129   63  188 1    
   130   64   65 am   BACKBONE|DICT|INTERRES
   131   64  189 1    
   132   65   66 2    
   133   67   68 2    
   134   67   69 am   BACKBONE|DICT|INTERRES
   135   69   70 1    
   136   69  190 1    
   137   70   71 1    
   138   70   72 1    
   139   70  191 1    
   140   71  192 1    
   141   71  193 1    
   142   71  194 1    
   143   72   73 2    
   144   72   74 am   BACKBONE|DICT|INTERRES
   145   74   75 1    
   146   74  195 1    
   147   75   76 1    
   148   75   77 1    
   149   75  196 1    
   150   76  197 1    
   151   76  198 1    
   152   76  199 1    
   153   77   78 2    
   154   77   79 am   BACKBONE|DICT|INTERRES
   155   79   80 1    
   156   79  200 1    
   157   80   81 1    
   158   80   82 1    
   159   80  201 1    
   160   81  202 1    
   161   81  203 1    
   162   81  204 1    
   163   82   83 2    
   164   82   84 am   BACKBONE|DICT|INTERRES
   165   84   85 1    
   166   84  205 1    
   167   85   86 1    
   168   85   87 1    
   169   85  206 1    
   170   86  207 1    
   171   86  208 1    
   172   86  209 1    
   173   87   88 2    
   174   87   89 am   BACKBONE|DICT|INTERRES
   175   89   90 1    
   176   89  210 1    
   177   90   91 1    
   178   90   92 1    
   179   90  211 1    
   180   91  212 1    
   181   91  213 1    
   182   91  214 1    
   183   92   93 2    
   184   92   94 am   BACKBONE|DICT|INTERRES
   185   94   95 1    
   186   94  215 1    
   187   95   96 1    
   188   95   97 1    
   189   95  216 1    
   190   96  217 1    
   191   96  218 1    
   192   96  219 1    
   193   97   98 2    
   194   97   99 am   BACKBONE|DICT|INTERRES
   195   99  100 1    
   196   99  220 1    
   197  100  101 1    
   198  100  102 1    
   199  100  221 1    
   200  101  222 1    
   201  101  223 1    
   202  101  224 1    
   203  102  103 2    
   204  102  104 am   BACKBONE|DICT|INTERRES
   205  104  105 1    
   206  104  225 1    
   207  105  106 1    
   208  105  107 1    
   209  105  226 1    
   210  106  227 1    
   211  106  228 1    
   212  106  229 1    
   213  107  108 2    
   214  107  109 am   BACKBONE|DICT|INTERRES
   215  109  110 1    
   216  109  230 1    
   217  110  111 1    
   218  110  112 1    
   219  110  231 1    
   220  111  232 1    
   221  111  233 1    
   222  111  234 1    
   223  112  113 2    
   224  112  114 am   BACKBONE|DICT|INTERRES
   225  114  115 1    
   226  114  235 1    
   227  115  116 1    
   228  115  117 1    
   229  115  236 1    
   230  116  237 1    
   231  116  238 1    
   232  116  239 1    
   233  117  118 2    
   234  117  119 am   BACKBONE|DICT|INTERRES
   235  119  120 1    
   236  119  240 1    
   237  120  121 1    
   238  120  124 1    
   239  120  241 1    
   240  121  122 am   BACKBONE|DICT|INTERRES
   241  121  123 2    
   242  122  242 1    
   243  122  243 1    
   244  124  125 1    
   245  124  244 1    
   246  124  245 1    
   247  125  126 1    
   248  126  246 1    
   249  126  247 1    
@<TRIPOS>SUBSTRUCTURE
     1 UNK         1 GROUP             0       ****    0 ROOT    
