@<TRIPOS>MOLECULE
3R540
247   249    1
SMALL
USER_CHARGES


@<TRIPOS>ATOM
      1 CA         -2.7345   -9.7321  -44.0281 C.3       0 UNK        -0.1800 
      2 C          -1.9042  -10.8263  -44.6846 C.2       0 UNK         0.5000 
      3 O          -1.6039  -11.8287  -44.0402 O.2       0 UNK        -0.5000 
      4 N          -1.5444  -10.6345  -45.9607 N.am      1 UNK        -0.5000 
      5 CA         -0.6983  -11.5118  -46.7807 C.3       1 UNK         0.1400 
      6 C6         -1.2474  -12.9667  -46.8977 C.3       23 UNK        -0.0398 
      7 S7         -0.8668  -13.7306  -48.5141 S.3       23 UNK        -0.2404 
      8 C8         -2.4712  -13.6671  -49.3721 C.3       23 UNK        -0.0205 
      9 C9         -3.1448  -15.0304  -49.3927 C.ar      23 UNK        -0.0193 
     10 C10        -2.7859  -15.9646  -50.3696 C.ar      23 UNK        -0.1150 
     11 C11        -3.4060  -17.2156  -50.4198 C.ar      23 UNK        -0.0193 
     12 C12        -4.3916  -17.5308  -49.4838 C.ar      23 UNK        -0.1150 
     13 C13        -4.7474  -16.6135  -48.4913 C.ar      23 UNK        -0.0193 
     14 C14        -4.1259  -15.3606  -48.4519 C.ar      23 UNK        -0.1150 
     15 C15        -5.7799  -17.0043  -47.4454 C.3       23 UNK        -0.0205 
     16 S16        -5.0473  -17.4925  -45.8435 S.3       23 UNK        -0.2404 
     17 C17        -3.4945  -18.3527  -46.2827 C.3       23 UNK        -0.0398 
     18 CA         -3.6767  -19.8220  -46.7410 C.3       11 UNK         0.1400 
     19 N          -2.5602  -20.2180  -47.6055 N.am      11 UNK        -0.5000 
     20 C          -2.2647  -21.4417  -48.0657 C.2       10 UNK         0.5000 
     21 O          -2.9890  -22.4262  -47.9288 O.2       10 UNK        -0.5000 
     22 CA         -0.8849  -21.6079  -48.7348 C.3       10 UNK         0.1400 
     23 CB         -1.0214  -21.5418  -50.2638 C.3       10 UNK        -0.1800 
     24 N           0.1148  -20.6250  -48.2917 N.am      10 UNK        -0.5000 
     25 C           0.4841  -20.4052  -47.0203 C.2       9 UNK         0.5000 
     26 O           0.0441  -21.0459  -46.0604 O.2       9 UNK        -0.5000 
     27 CA          1.4082  -19.1991  -46.7868 C.3       9 UNK         0.1400 
     28 CB          0.6189  -17.8955  -47.0074 C.3       9 UNK        -0.1800 
     29 N           1.9390  -19.2144  -45.4246 N.am      9 UNK        -0.5000 
     30 C           3.0147  -19.9147  -45.0378 C.2       8 UNK         0.5000 
     31 O           3.7279  -20.5430  -45.8218 O.2       8 UNK        -0.5000 
     32 CA          3.3580  -19.9286  -43.5343 C.3       8 UNK         0.1400 
     33 CB          4.8270  -19.5498  -43.2762 C.3       8 UNK        -0.1800 
     34 N           2.4945  -19.0269  -42.7704 N.am      8 UNK        -0.5000 
     35 C           1.6003  -19.4195  -41.8551 C.2       7 UNK         0.5000 
     36 O           1.4622  -20.5881  -41.4919 O.2       7 UNK        -0.5000 
     37 CA          0.6934  -18.3377  -41.2386 C.3       7 UNK         0.1400 
     38 CB          1.2468  -17.8819  -39.8812 C.3       7 UNK        -0.1800 
     39 N           0.4743  -17.1673  -42.0929 N.am      7 UNK        -0.5000 
     40 C          -0.2065  -17.1802  -43.2477 C.2       6 UNK         0.5000 
     41 O          -0.6233  -18.2151  -43.7683 O.2       6 UNK        -0.5000 
     42 CA         -0.4596  -15.8418  -43.9700 C.3       6 UNK         0.1400 
     43 CB         -1.9652  -15.5089  -44.0229 C.3       6 UNK        -0.1800 
     44 N           0.3232  -14.7114  -43.4663 N.am      6 UNK        -0.5000 
     45 C           0.1421  -14.0017  -42.3443 C.2       5 UNK         0.5000 
     46 O          -0.7178  -14.2485  -41.4965 O.2       5 UNK        -0.5000 
     47 CA          1.1524  -12.8582  -42.1265 C.3       5 UNK         0.1400 
     48 CB          0.8375  -11.9917  -40.8893 C.3       5 UNK        -0.1800 
     49 N           2.5297  -13.3613  -42.0771 N.am      5 UNK        -0.5000 
     50 C           3.0278  -14.2752  -41.2290 C.2       4 UNK         0.5000 
     51 O           2.3865  -14.7804  -40.3077 O.2       4 UNK        -0.5000 
     52 CA          4.4921  -14.6973  -41.4741 C.3       4 UNK         0.1400 
     53 CB          4.8786  -16.0046  -40.7480 C.3       4 UNK        -0.1800 
     54 N           4.8288  -14.7784  -42.9008 N.am      4 UNK        -0.5000 
     55 C           4.2808  -15.5998  -43.8079 C.2       3 UNK         0.5000 
     56 O           3.3774  -16.4032  -43.5627 O.2       3 UNK        -0.5000 
     57 CA          4.8291  -15.4454  -45.2394 C.3       3 UNK         0.1400 
     58 CB          4.4602  -16.6271  -46.1571 C.3       3 UNK        -0.1800 
     59 N           4.4256  -14.1764  -45.8573 N.am      3 UNK        -0.5000 
     60 C           3.1745  -13.7342  -46.0546 C.2       2 UNK         0.5000 
     61 O           2.1673  -14.3131  -45.6394 O.2       2 UNK        -0.5000 
     62 CA          3.0342  -12.4288  -46.8657 C.3       2 UNK         0.1400 
     63 CB          3.7779  -12.5146  -48.2113 C.3       2 UNK        -0.1800 
     64 N           1.6271  -12.1554  -47.1456 N.am      2 UNK        -0.5000 
     65 C           0.7918  -11.4744  -46.3560 C.2       1 UNK         0.5000 
     66 O           1.1619  -10.8398  -45.3644 O.2       1 UNK        -0.5000 
     67 C          -3.8476  -20.7433  -45.5136 C.2       11 UNK         0.5000 
     68 O          -4.9672  -21.1548  -45.2101 O.2       11 UNK        -0.5000 
     69 N          -2.7261  -21.0568  -44.8525 N.am      12 UNK        -0.5000 
     70 CA         -2.6690  -21.9127  -43.6730 C.3       12 UNK         0.1400 
     71 CB         -1.7729  -21.2436  -42.6211 C.3       12 UNK        -0.1800 
     72 C          -2.1305  -23.3064  -44.0257 C.2       12 UNK         0.5000 
     73 O          -2.6667  -24.3008  -43.5370 O.2       12 UNK        -0.5000 
     74 N          -1.0868  -23.3615  -44.8657 N.am      13 UNK        -0.5000 
     75 CA         -0.3555  -24.5855  -45.1985 C.3       13 UNK         0.1400 
     76 CB          0.9743  -24.2094  -45.8703 C.3       13 UNK        -0.1800 
     77 C          -1.1448  -25.5728  -46.0777 C.2       13 UNK         0.5000 
     78 O          -0.8820  -26.7742  -46.0098 O.2       13 UNK        -0.5000 
     79 N          -2.0844  -25.0608  -46.8819 N.am      14 UNK        -0.5000 
     80 CA         -2.9074  -25.8406  -47.8068 C.3       14 UNK         0.1400 
     81 CB         -2.3485  -25.6717  -49.2303 C.3       14 UNK        -0.1800 
     82 C          -4.3922  -25.4426  -47.7313 C.2       14 UNK         0.5000 
     83 O          -5.1486  -25.7765  -48.6428 O.2       14 UNK        -0.5000 
     84 N          -4.7868  -24.7060  -46.6799 N.am      15 UNK        -0.5000 
     85 CA         -6.1372  -24.1787  -46.4295 C.3       15 UNK         0.1400 
     86 CB         -7.0913  -25.3303  -46.0501 C.3       15 UNK        -0.1800 
     87 C          -6.6940  -23.3051  -47.5809 C.2       15 UNK         0.5000 
     88 O          -7.9066  -23.2741  -47.7968 O.2       15 UNK        -0.5000 
     89 N          -5.7889  -22.6442  -48.3196 N.am      16 UNK        -0.5000 
     90 CA         -6.0080  -21.8525  -49.5351 C.3       16 UNK         0.1400 
     91 CB         -6.9539  -20.6645  -49.2622 C.3       16 UNK        -0.1800 
     92 C          -6.4543  -22.6770  -50.7647 C.2       16 UNK         0.5000 
     93 O          -6.8288  -22.0816  -51.7759 O.2       16 UNK        -0.5000 
     94 N          -6.3998  -24.0162  -50.6891 N.am      17 UNK        -0.5000 
     95 CA         -6.8234  -24.9166  -51.7655 C.3       17 UNK         0.1400 
     96 CB         -7.1705  -26.2913  -51.1742 C.3       17 UNK        -0.1800 
     97 C          -5.7712  -25.0621  -52.8802 C.2       17 UNK         0.5000 
     98 O          -6.1277  -25.4243  -54.0031 O.2       17 UNK        -0.5000 
     99 N          -4.4991  -24.7772  -52.5670 N.am      18 UNK        -0.5000 
    100 CA        -3.3729  -24.8115  -53.4999 C.3       18 UNK         0.1400 
    101 CB        -2.0597  -24.9621  -52.7129 C.3       18 UNK        -0.1800 
    102 C         -3.3676  -23.5736  -54.4162 C.2       18 UNK         0.5000 
    103 O         -2.5088  -22.7000  -54.2811 O.2       18 UNK        -0.5000 
    104 N         -4.3311  -23.5201  -55.3438 N.am      19 UNK        -0.5000 
    105 CA        -4.5146  -22.4420  -56.3197 C.3       19 UNK         0.1400 
    106 CB        -5.7678  -22.7292  -57.1590 C.3       19 UNK        -0.1800 
    107 C         -3.2923  -22.2144  -57.2307 C.2       19 UNK         0.5000 
    108 O         -3.0193  -21.0740  -57.6041 O.2       19 UNK        -0.5000 
    109 N         -2.5529  -23.2921  -57.5286 N.am      20 UNK        -0.5000 
    110 CA        -1.3016  -23.2649  -58.2881 C.3       20 UNK         0.1400 
    111 CB        -0.9009  -24.7049  -58.6428 C.3       20 UNK        -0.1800 
    112 C         -0.1509  -22.5516  -57.5492 C.2       20 UNK         0.5000 
    113 O          0.7131  -21.9681  -58.2050 O.2       20 UNK        -0.5000 
    114 N         -0.1606  -22.6020  -56.2095 N.am      21 UNK        -0.5000 
    115 CA         0.7808  -21.8809  -55.3530 C.3       21 UNK         0.1400 
    116 CB         0.9628  -22.6435  -54.0302 C.3       21 UNK        -0.1800 
    117 C          0.2978  -20.4446  -55.0908 C.2       21 UNK         0.5000 
    118 O          1.1110  -19.5198  -55.0928 O.2       21 UNK        -0.5000 
    119 N         -1.0142  -20.2910  -54.8691 N.am      22 UNK        -0.5000 
    120 CA        -1.6872  -19.0082  -54.6285 C.3       22 UNK         0.1400 
    121 C         -1.6791  -18.0458  -55.8514 C.2       22 UNK         0.5000 
    122 N         -1.8879  -18.5335  -57.0677 N.am      22 UNK        -0.7600 
    123 O         -1.4623  -16.8468  -55.6987 O.2       22 UNK        -0.5000 
    124 C124       -3.1181  -19.2382  -54.0775 C.3       23 UNK        -0.0398 
    125 S125       -3.7407  -17.8418  -53.0861 S.3       23 UNK        -0.2404 
    126 C126       -3.0016  -18.2324  -51.4725 C.3       23 UNK        -0.0205 
    127 H127       -3.6915  -10.1356  -43.6971 H         1 UNK         0.0600 
    128 H128       -2.9315   -8.9055  -44.7113 H         1 UNK         0.0600 
    129 H129       -2.2106   -9.3368  -43.1578 H         1 UNK         0.0600 
    130 H130       -1.8139   -9.7704  -46.4096 H         1 UNK         0.3000 
    131 H131       -0.7357  -11.0560  -47.7715 H         1 UNK         0.0600 
    132 H132       -0.8359  -13.6010  -46.1115 H         1 UNK         0.0800 
    133 H133       -2.3276  -12.9851  -46.7489 H         1 UNK         0.0800 
    134 H134       -2.3018  -13.3347  -50.3974 H         1 UNK         0.0800 
    135 H135       -3.1246  -12.9181  -48.9226 H         1 UNK         0.0800 
    136 H136       -2.0237  -15.7165  -51.0952 H         1 UNK         0.1150 
    137 H137       -4.8674  -18.5003  -49.5153 H         1 UNK         0.1150 
    138 H138       -4.3975  -14.6509  -47.6831 H         1 UNK         0.1150 
    139 H139       -6.4627  -16.1698  -47.2794 H         1 UNK         0.0800 
    140 H140       -6.3973  -17.8244  -47.8126 H         1 UNK         0.0800 
    141 H141       -2.8320  -18.3076  -45.4171 H         1 UNK         0.0800 
    142 H142       -2.9710  -17.7680  -47.0378 H         1 UNK         0.0800 
    143 H143       -4.5790  -19.8993  -47.3477 H         1 UNK         0.0600 
    144 H144       -1.8843  -19.4946  -47.7955 H         1 UNK         0.3000 
    145 H145       -0.5193  -22.6009  -48.4683 H         1 UNK         0.0600 
    146 H146       -0.0949  -21.8386  -50.7557 H         1 UNK         0.0600 
    147 H147       -1.8049  -22.2118  -50.6195 H         1 UNK         0.0600 
    148 H148       -1.2725  -20.5374  -50.6032 H         1 UNK         0.0600 
    149 H149        0.5219  -20.0528  -49.0174 H         1 UNK         0.3000 
    150 H150        2.2335  -19.2377  -47.5007 H         1 UNK         0.0600 
    151 H151        0.3361  -17.7780  -48.0540 H         1 UNK         0.0600 
    152 H152        1.2026  -17.0166  -46.7380 H         1 UNK         0.0600 
    153 H153       -0.3002  -17.8773  -46.4218 H         1 UNK         0.0600 
    154 H154        1.3449  -18.8171  -44.7090 H         1 UNK         0.3000 
    155 H155        3.2215  -20.9605  -43.2060 H         1 UNK         0.0600 
    156 H156        5.0493  -18.5353  -43.6030 H         1 UNK         0.0600 
    157 H157        5.5063  -20.2212  -43.8025 H         1 UNK         0.0600 
    158 H158        5.0663  -19.6153  -42.2147 H         1 UNK         0.0600 
    159 H159        2.5815  -18.0372  -42.9946 H         1 UNK         0.3000 
    160 H160       -0.2815  -18.7977  -41.0644 H         1 UNK         0.0600 
    161 H161        2.2413  -17.4477  -39.9793 H         1 UNK         0.0600 
    162 H162        1.3246  -18.7219  -39.1898 H         1 UNK         0.0600 
    163 H163        0.5993  -17.1371  -39.4180 H         1 UNK         0.0600 
    164 H164        0.8040  -16.2790  -41.7402 H         1 UNK         0.3000 
    165 H165       -0.1200  -15.9734  -44.9964 H         1 UNK         0.0600 
    166 H166       -2.1480  -14.5130  -44.4232 H         1 UNK         0.0600 
    167 H167       -2.4270  -15.5586  -43.0364 H         1 UNK         0.0600 
    168 H168       -2.4959  -16.2101  -44.6620 H         1 UNK         0.0600 
    169 H169        1.0991  -14.4586  -44.0747 H         1 UNK         0.3000 
    170 H170        1.0844  -12.2129  -43.0032 H         1 UNK         0.0600 
    171 H171       -0.1576  -11.5525  -40.9706 H         1 UNK         0.0600 
    172 H172        0.8648  -12.5705  -39.9658 H         1 UNK         0.0600 
    173 H173        1.5480  -11.1710  -40.7926 H         1 UNK         0.0600 
    174 H174        3.1393  -13.0313  -42.8109 H         1 UNK         0.3000 
    175 H175        5.1068  -13.8986  -41.0567 H         1 UNK         0.0600 
    176 H176        4.2887  -16.8536  -41.0939 H         1 UNK         0.0600 
    177 H177        5.9299  -16.2449  -40.9055 H         1 UNK         0.0600 
    178 H178        4.7255  -15.9168  -39.6718 H         1 UNK         0.0600 
    179 H179        5.5447  -14.1374  -43.2136 H         1 UNK         0.3000 
    180 H180        5.9173  -15.4254  -45.1622 H         1 UNK         0.0600 
    181 H181        3.3825  -16.7424  -46.2525 H         1 UNK         0.0600 
    182 H182        4.8570  -17.5641  -45.7680 H         1 UNK         0.0600 
    183 H183        4.8709  -16.4935  -47.1577 H         1 UNK         0.0600 
    184 H184        5.1858  -13.6139  -46.2129 H         1 UNK         0.3000 
    185 H185        3.4618  -11.6141  -46.2780 H         1 UNK         0.0600 
    186 H186        4.8549  -12.6093  -48.0702 H         1 UNK         0.0600 
    187 H187        3.4455  -13.3704  -48.8007 H         1 UNK         0.0600 
    188 H188        3.6148  -11.6166  -48.8076 H         1 UNK         0.0600 
    189 H189        1.2223  -12.6899  -47.9030 H         1 UNK         0.3000 
    190 H190       -1.8372  -20.7123  -45.1975 H         1 UNK         0.3000 
    191 H191       -3.6632  -22.0361  -43.2385 H         1 UNK         0.0600 
    192 H192       -1.6849  -21.8599  -41.7256 H         1 UNK         0.0600 
    193 H193       -2.1778  -20.2784  -42.3163 H         1 UNK         0.0600 
    194 H194       -0.7668  -21.0734  -43.0060 H         1 UNK         0.0600 
    195 H195       -0.6975  -22.4957  -45.2329 H         1 UNK         0.3000 
    196 H196       -0.1238  -25.0989  -44.2628 H         1 UNK         0.0600 
    197 H197        0.8166  -23.6982  -46.8197 H         1 UNK         0.0600 
    198 H198        1.5675  -23.5529  -45.2330 H         1 UNK         0.0600 
    199 H199        1.5754  -25.0969  -46.0721 H         1 UNK         0.0600 
    200 H200       -2.2336  -24.0583  -46.9016 H         1 UNK         0.3000 
    201 H201       -2.8707  -26.9002  -47.5471 H         1 UNK         0.0600 
    202 H202       -2.4159  -24.6364  -49.5654 H         1 UNK         0.0600 
    203 H203       -2.8985  -26.2881  -49.9420 H         1 UNK         0.0600 
    204 H204       -1.3025  -25.9737  -49.2831 H         1 UNK         0.0600 
    205 H205       -4.0951  -24.4850  -45.9783 H         1 UNK         0.3000 
    206 H206       -6.0558  -23.5242  -45.5618 H         1 UNK         0.0600 
    207 H207       -6.6863  -25.9240  -45.2307 H         1 UNK         0.0600 
    208 H208       -8.0587  -24.9476  -45.7228 H         1 UNK         0.0600 
    209 H209       -7.2715  -25.9993  -46.8923 H         1 UNK         0.0600 
    210 H210       -4.8111  -22.7416  -48.0540 H         1 UNK         0.3000 
    211 H211       -5.0319  -21.4388  -49.7921 H         1 UNK         0.0600 
    212 H212       -6.9199  -19.9424  -50.0788 H         1 UNK         0.0600 
    213 H213       -6.6816  -20.1386  -48.3488 H         1 UNK         0.0600 
    214 H214       -7.9900  -20.9883  -49.1605 H         1 UNK         0.0600 
    215 H215       -6.0660  -24.4582  -49.8377 H         1 UNK         0.3000 
    216 H216       -7.7303  -24.5119  -52.2198 H         1 UNK         0.0600 
    217 H217       -6.2880  -26.7969  -50.7815 H         1 UNK         0.0600 
    218 H218       -7.6058  -26.9417  -51.9338 H         1 UNK         0.0600 
    219 H219       -7.8960  -26.2036  -50.3653 H         1 UNK         0.0600 
    220 H220       -4.3027  -24.4677  -51.6273 H         1 UNK         0.3000 
    221 H221       -3.4708  -25.6908  -54.1401 H         1 UNK         0.0600 
    222 H222       -2.0407  -25.8991  -52.1577 H         1 UNK         0.0600 
    223 H223       -1.9126  -24.1451  -52.0072 H         1 UNK         0.0600 
    224 H224       -1.2007  -24.9735  -53.3849 H         1 UNK         0.0600 
    225 H225       -5.0306  -24.2545  -55.3348 H         1 UNK         0.3000 
    226 H226       -4.6836  -21.5203  -55.7607 H         1 UNK         0.0600 
    227 H227       -5.6732  -23.6612  -57.7176 H         1 UNK         0.0600 
    228 H228       -6.6549  -22.8037  -56.5296 H         1 UNK         0.0600 
    229 H229       -5.9477  -21.9302  -57.8795 H         1 UNK         0.0600 
    230 H230       -2.8563  -24.1904  -57.1828 H         1 UNK         0.3000 
    231 H231       -1.4830  -22.7213  -59.2178 H         1 UNK         0.0600 
    232 H232       -0.7267  -25.3062  -57.7495 H         1 UNK         0.0600 
    233 H233        0.0163  -24.7209  -59.2331 H         1 UNK         0.0600 
    234 H234       -1.6743  -25.1959  -59.2338 H         1 UNK         0.0600 
    235 H235       -0.9346  -23.0556  -55.7430 H         1 UNK         0.3000 
    236 H236        1.7542  -21.8282  -55.8456 H         1 UNK         0.0600 
    237 H237        1.3084  -23.6622  -54.2063 H         1 UNK         0.0600 
    238 H238        1.7047  -22.1527  -53.3991 H         1 UNK         0.0600 
    239 H239        0.0360  -22.6980  -53.4588 H         1 UNK         0.0600 
    240 H240       -1.5965  -21.1219  -54.8310 H         1 UNK         0.3000 
    241 H241       -1.1061  -18.5162  -53.8462 H         1 UNK         0.0600 
    242 H242       -1.8703  -17.9089  -57.8577 H         1 UNK         0.3800 
    243 H243       -2.1397  -19.5092  -57.2110 H         1 UNK         0.3800 
    244 H244       -3.1470  -20.1289  -53.4479 H         1 UNK         0.0800 
    245 H245       -3.8200  -19.4326  -54.8897 H         1 UNK         0.0800 
    246 H246       -1.9146  -18.2505  -51.5604 H         1 UNK         0.0800 
    247 H247       -3.3078  -19.2344  -51.1679 H         1 UNK         0.0800 
@<TRIPOS>BOND
     1    1    2 1    
     2    1  127 1    
     3    1  128 1    
     4    1  129 1    
     5    2    3 2    
     6    2    4 am   BACKBONE|DICT|INTERRES
     7    4    5 1    
     8    4  130 1    
     9    5    6 1    
    10    5   65 1    
    11    5  131 1    
    12    6    7 1    
    13    6  132 1    
    14    6  133 1    
    15    7    8 1    
    16    8    9 1    
    17    8  134 1    
    18    8  135 1    
    19    9   10 ar   
    20    9   14 ar   
    21   10   11 ar   
    22   10  136 1    
    23   11   12 ar   
    24   11  126 1    
    25   12   13 ar   
    26   12  137 1    
    27   13   14 ar   
    28   13   15 1    
    29   14  138 1    
    30   15   16 1    
    31   15  139 1    
    32   15  140 1    
    33   16   17 1    
    34   17   18 1    
    35   17  141 1    
    36   17  142 1    
    37   18   19 1    
    38   18   67 1    
    39   18  143 1    
    40   19   20 am   BACKBONE|DICT|INTERRES
    41   19  144 1    
    42   20   21 2    
    43   20   22 1    
    44   22   23 1    
    45   22   24 1    
    46   22  145 1    
    47   23  146 1    
    48   23  147 1    
    49   23  148 1    
    50   24   25 am   BACKBONE|DICT|INTERRES
    51   24  149 1    
    52   25   26 2    
    53   25   27 1    
    54   27   28 1    
    55   27   29 1    
    56   27  150 1    
    57   28  151 1    
    58   28  152 1    
    59   28  153 1    
    60   29   30 am   BACKBONE|DICT|INTERRES
    61   29  154 1    
    62   30   31 2    
    63   30   32 1    
    64   32   33 1    
    65   32   34 1    
    66   32  155 1    
    67   33  156 1    
    68   33  157 1    
    69   33  158 1    
    70   34   35 am   BACKBONE|DICT|INTERRES
    71   34  159 1    
    72   35   36 2    
    73   35   37 1    
    74   37   38 1    
    75   37   39 1    
    76   37  160 1    
    77   38  161 1    
    78   38  162 1    
    79   38  163 1    
    80   39   40 am   BACKBONE|DICT|INTERRES
    81   39  164 1    
    82   40   41 2    
    83   40   42 1    
    84   42   43 1    
    85   42   44 1    
    86   42  165 1    
    87   43  166 1    
    88   43  167 1    
    89   43  168 1    
    90   44   45 am   BACKBONE|DICT|INTERRES
    91   44  169 1    
    92   45   46 2    
    93   45   47 1    
    94   47   48 1    
    95   47   49 1    
    96   47  170 1    
    97   48  171 1    
    98   48  172 1    
    99   48  173 1    
   100   49   50 am   BACKBONE|DICT|INTERRES
   101   49  174 1    
   102   50   51 2    
   103   50   52 1    
   104   52   53 1    
   105   52   54 1    
   106   52  175 1    
   107   53  176 1    
   108   53  177 1    
   109   53  178 1    
   110   54   55 am   BACKBONE|DICT|INTERRES
   111   54  179 1    
   112   55   56 2    
   113   55   57 1    
   114   57   58 1    
   115   57   59 1    
   116   57  180 1    
   117   58  181 1    
   118   58  182 1    
   119   58  183 1    
   120   59   60 am   BACKBONE|DICT|INTERRES
   121   59  184 1    
   122   60   61 2    
   123   60   62 1    
   124   62   63 1    
   125   62   64 1    
   126   62  185 1    
   127   63  186 1    
   128   63  187 1    
   129   63  188 1    
   130   64   65 am   BACKBONE|DICT|INTERRES
   131   64  189 1    
   132   65   66 2    
   133   67   68 2    
   134   67   69 am   BACKBONE|DICT|INTERRES
   135   69   70 1    
   136   69  190 1    
   137   70   71 1    
   138   70   72 1    
   139   70  191 1    
   140   71  192 1    
   141   71  193 1    
   142   71  194 1    
   143   72   73 2    
   144   72   74 am   BACKBONE|DICT|INTERRES
   145   74   75 1    
   146   74  195 1    
   147   75   76 1    
   148   75   77 1    
   149   75  196 1    
   150   76  197 1    
   151   76  198 1    
   152   76  199 1    
   153   77   78 2    
   154   77   79 am   BACKBONE|DICT|INTERRES
   155   79   80 1    
   156   79  200 1    
   157   80   81 1    
   158   80   82 1    
   159   80  201 1    
   160   81  202 1    
   161   81  203 1    
   162   81  204 1    
   163   82   83 2    
   164   82   84 am   BACKBONE|DICT|INTERRES
   165   84   85 1    
   166   84  205 1    
   167   85   86 1    
   168   85   87 1    
   169   85  206 1    
   170   86  207 1    
   171   86  208 1    
   172   86  209 1    
   173   87   88 2    
   174   87   89 am   BACKBONE|DICT|INTERRES
   175   89   90 1    
   176   89  210 1    
   177   90   91 1    
   178   90   92 1    
   179   90  211 1    
   180   91  212 1    
   181   91  213 1    
   182   91  214 1    
   183   92   93 2    
   184   92   94 am   BACKBONE|DICT|INTERRES
   185   94   95 1    
   186   94  215 1    
   187   95   96 1    
   188   95   97 1    
   189   95  216 1    
   190   96  217 1    
   191   96  218 1    
   192   96  219 1    
   193   97   98 2    
   194   97   99 am   BACKBONE|DICT|INTERRES
   195   99  100 1    
   196   99  220 1    
   197  100  101 1    
   198  100  102 1    
   199  100  221 1    
   200  101  222 1    
   201  101  223 1    
   202  101  224 1    
   203  102  103 2    
   204  102  104 am   BACKBONE|DICT|INTERRES
   205  104  105 1    
   206  104  225 1    
   207  105  106 1    
   208  105  107 1    
   209  105  226 1    
   210  106  227 1    
   211  106  228 1    
   212  106  229 1    
   213  107  108 2    
   214  107  109 am   BACKBONE|DICT|INTERRES
   215  109  110 1    
   216  109  230 1    
   217  110  111 1    
   218  110  112 1    
   219  110  231 1    
   220  111  232 1    
   221  111  233 1    
   222  111  234 1    
   223  112  113 2    
   224  112  114 am   BACKBONE|DICT|INTERRES
   225  114  115 1    
   226  114  235 1    
   227  115  116 1    
   228  115  117 1    
   229  115  236 1    
   230  116  237 1    
   231  116  238 1    
   232  116  239 1    
   233  117  118 2    
   234  117  119 am   BACKBONE|DICT|INTERRES
   235  119  120 1    
   236  119  240 1    
   237  120  121 1    
   238  120  124 1    
   239  120  241 1    
   240  121  122 am   BACKBONE|DICT|INTERRES
   241  121  123 2    
   242  122  242 1    
   243  122  243 1    
   244  124  125 1    
   245  124  244 1    
   246  124  245 1    
   247  125  126 1    
   248  126  246 1    
   249  126  247 1    
@<TRIPOS>SUBSTRUCTURE
     1 UNK         1 GROUP             0       ****    0 ROOT    
