@<TRIPOS>MOLECULE
3R540
247   249    1
SMALL
USER_CHARGES


@<TRIPOS>ATOM
      1 CA         -5.0054  -12.7519  -50.3613 C.3       0 UNK        -0.1800 
      2 C          -3.9454  -12.4343  -49.3168 C.2       0 UNK         0.5000 
      3 O          -4.2182  -11.7031  -48.3642 O.2       0 UNK        -0.5000 
      4 N          -2.7402  -12.9913  -49.4810 N.am      1 UNK        -0.5000 
      5 CA         -1.5845  -12.8608  -48.5844 C.3       1 UNK         0.1400 
      6 C6         -0.2512  -13.0812  -49.3478 C.3       23 UNK        -0.0398 
      7 S7         -0.1709  -14.6505  -50.2810 S.3       23 UNK        -0.2404 
      8 C8          1.3768  -15.3777  -49.6443 C.3       23 UNK        -0.0205 
      9 C9          1.6695  -16.7349  -50.2739 C.ar      23 UNK        -0.0193 
     10 C10         1.6459  -16.8846  -51.6638 C.ar      23 UNK        -0.1150 
     11 C11         1.8579  -18.1303  -52.2549 C.ar      23 UNK        -0.0193 
     12 C12         2.1314  -19.2306  -51.4350 C.ar      23 UNK        -0.1150 
     13 C13         2.1690  -19.1064  -50.0423 C.ar      23 UNK        -0.0193 
     14 C14         1.9493  -17.8450  -49.4694 C.ar      23 UNK        -0.1150 
     15 C15         2.4371  -20.3734  -49.2234 C.3       23 UNK        -0.0205 
     16 S16         2.1400  -20.2792  -47.4236 S.3       23 UNK        -0.2404 
     17 C17         0.3349  -20.0255  -47.3144 C.3       23 UNK        -0.0398 
     18 CA         -0.5204  -21.3186  -47.2464 C.3       11 UNK         0.1400 
     19 N           0.0414  -22.3626  -46.3872 N.am      11 UNK        -0.5000 
     20 C          -0.3933  -23.6318  -46.3558 C.2       10 UNK         0.5000 
     21 O          -1.2761  -24.0732  -47.0912 O.2       10 UNK        -0.5000 
     22 CA          0.2346  -24.5487  -45.2897 C.3       10 UNK         0.1400 
     23 CB          1.5162  -25.2022  -45.8271 C.3       10 UNK        -0.1800 
     24 N           0.5413  -23.8434  -44.0442 N.am      10 UNK        -0.5000 
     25 C          -0.3517  -23.2253  -43.2617 C.2       9 UNK         0.5000 
     26 O          -1.5620  -23.2223  -43.4865 O.2       9 UNK        -0.5000 
     27 CA          0.1898  -22.4212  -42.0672 C.3       9 UNK         0.1400 
     28 CB          0.2419  -23.2779  -40.7888 C.3       9 UNK        -0.1800 
     29 N           1.4661  -21.7400  -42.3259 N.am      9 UNK        -0.5000 
     30 C           2.6995  -22.2553  -42.4605 C.2       8 UNK         0.5000 
     31 O           2.9349  -23.4637  -42.4513 O.2       8 UNK        -0.5000 
     32 CA          3.8681  -21.2679  -42.6812 C.3       8 UNK         0.1400 
     33 CB          4.3903  -21.3750  -44.1226 C.3       8 UNK        -0.1800 
     34 N           3.5166  -19.8711  -42.4161 N.am      8 UNK        -0.5000 
     35 C           3.2222  -19.3591  -41.2132 C.2       7 UNK         0.5000 
     36 O           3.3628  -19.9803  -40.1592 O.2       7 UNK        -0.5000 
     37 CA          2.6330  -17.9326  -41.1767 C.3       7 UNK         0.1400 
     38 CB          3.6477  -16.9444  -40.5823 C.3       7 UNK        -0.1800 
     39 N           2.1557  -17.4105  -42.4648 N.am      7 UNK        -0.5000 
     40 C           1.1834  -17.9359  -43.2281 C.2       6 UNK         0.5000 
     41 O           0.6300  -19.0081  -42.9751 O.2       6 UNK        -0.5000 
     42 CA          0.7762  -17.1492  -44.4898 C.3       6 UNK         0.1400 
     43 CB         -0.7390  -17.2312  -44.7429 C.3       6 UNK        -0.1800 
     44 N           1.1618  -15.7425  -44.3890 N.am      6 UNK        -0.5000 
     45 C           2.0489  -15.1111  -45.1703 C.2       5 UNK         0.5000 
     46 O           2.6536  -15.6578  -46.0929 O.2       5 UNK        -0.5000 
     47 CA          2.3450  -13.6280  -44.8562 C.3       5 UNK         0.1400 
     48 CB          1.8068  -12.6991  -45.9529 C.3       5 UNK        -0.1800 
     49 N           1.8124  -13.1935  -43.5635 N.am      5 UNK        -0.5000 
     50 C           2.3985  -13.4502  -42.3867 C.2       4 UNK         0.5000 
     51 O           3.4778  -14.0322  -42.2811 O.2       4 UNK        -0.5000 
     52 CA          1.6435  -13.0214  -41.1126 C.3       4 UNK         0.1400 
     53 CB          2.1469  -11.6544  -40.6259 C.3       4 UNK        -0.1800 
     54 N           0.1852  -12.9684  -41.2592 N.am      4 UNK        -0.5000 
     55 C          -0.6021  -14.0053  -41.5768 C.2       3 UNK         0.5000 
     56 O          -0.1705  -15.1296  -41.8321 O.2       3 UNK        -0.5000 
     57 CA         -2.1238  -13.7647  -41.6343 C.3       3 UNK         0.1400 
     58 CB         -2.5624  -12.3325  -41.2510 C.3       3 UNK        -0.1800 
     59 N          -2.6812  -14.1495  -42.9347 N.am      3 UNK        -0.5000 
     60 C          -2.3818  -13.6216  -44.1307 C.2       2 UNK         0.5000 
     61 O          -1.5538  -12.7203  -44.2922 O.2       2 UNK        -0.5000 
     62 CA         -3.1689  -14.1955  -45.3301 C.3       2 UNK         0.1400 
     63 CB         -4.6894  -14.0719  -45.1234 C.3       2 UNK        -0.1800 
     64 N          -2.8346  -13.5309  -46.5867 N.am      2 UNK        -0.5000 
     65 C          -1.7338  -13.7368  -47.3165 C.2       1 UNK         0.5000 
     66 O          -0.8839  -14.5789  -47.0322 O.2       1 UNK        -0.5000 
     67 C          -1.9548  -20.9717  -46.7996 C.2       11 UNK         0.5000 
     68 O          -2.8585  -20.9231  -47.6328 O.2       11 UNK        -0.5000 
     69 N          -2.1391  -20.7566  -45.4870 N.am      12 UNK        -0.5000 
     70 CA         -3.4130  -20.3918  -44.8602 C.3       12 UNK         0.1400 
     71 CB         -3.1910  -20.0721  -43.3731 C.3       12 UNK        -0.1800 
     72 C          -4.4871  -21.4791  -45.0266 C.2       12 UNK         0.5000 
     73 O          -5.6286  -21.1601  -45.3602 O.2       12 UNK        -0.5000 
     74 N          -4.0802  -22.7455  -44.8630 N.am      13 UNK        -0.5000 
     75 CA         -4.9054  -23.9373  -45.0782 C.3       13 UNK         0.1400 
     76 CB         -4.1020  -25.1770  -44.6566 C.3       13 UNK        -0.1800 
     77 C          -5.4116  -24.0929  -46.5277 C.2       13 UNK         0.5000 
     78 O          -6.4463  -24.7247  -46.7424 O.2       13 UNK        -0.5000 
     79 N          -4.6895  -23.4971  -47.4842 N.am      14 UNK        -0.5000 
     80 CA         -5.0166  -23.4568  -48.9071 C.3       14 UNK         0.1400 
     81 CB         -3.7623  -23.8605  -49.6991 C.3       14 UNK        -0.1800 
     82 C          -5.5705  -22.0814  -49.3391 C.2       14 UNK         0.5000 
     83 O          -5.5457  -21.7733  -50.5321 O.2       14 UNK        -0.5000 
     84 N          -6.0627  -21.2838  -48.3764 N.am      15 UNK        -0.5000 
     85 CA         -6.6978  -19.9706  -48.5425 C.3       15 UNK         0.1400 
     86 CB         -8.0223  -20.1033  -49.3244 C.3       15 UNK        -0.1800 
     87 C          -5.7409  -18.9267  -49.1512 C.2       15 UNK         0.5000 
     88 O          -6.0245  -18.3640  -50.2086 O.2       15 UNK        -0.5000 
     89 N          -4.5930  -18.7322  -48.4855 N.am      16 UNK        -0.5000 
     90 CA         -3.4398  -17.9344  -48.9304 C.3       16 UNK         0.1400 
     91 CB         -3.7872  -16.4343  -49.0181 C.3       16 UNK        -0.1800 
     92 C          -2.8240  -18.5035  -50.2273 C.2       16 UNK         0.5000 
     93 O          -2.4312  -17.7554  -51.1222 O.2       16 UNK        -0.5000 
     94 N          -2.7982  -19.8427  -50.2927 N.am      17 UNK        -0.5000 
     95 CA         -2.3479  -20.6985  -51.3906 C.3       17 UNK         0.1400 
     96 CB         -0.8315  -20.5783  -51.5794 C.3       17 UNK        -0.1800 
     97 C          -3.1193  -20.5286  -52.7136 C.2       17 UNK         0.5000 
     98 O          -2.6278  -20.9732  -53.7527 O.2       17 UNK        -0.5000 
     99 N          -4.3243  -19.9447  -52.6614 N.am      18 UNK        -0.5000 
    100 CA        -5.2184  -19.7812  -53.8064 C.3       18 UNK         0.1400 
    101 CB        -6.3617  -18.8269  -53.4346 C.3       18 UNK        -0.1800 
    102 C         -5.7775  -21.1233  -54.3079 C.2       18 UNK         0.5000 
    103 O         -5.8882  -21.3162  -55.5187 O.2       18 UNK        -0.5000 
    104 N         -6.0786  -22.0413  -53.3773 N.am      19 UNK        -0.5000 
    105 CA        -6.5451  -23.3962  -53.6827 C.3       19 UNK         0.1400 
    106 CB        -7.1761  -24.0110  -52.4242 C.3       19 UNK        -0.1800 
    107 C         -5.4160  -24.2992  -54.2147 C.2       19 UNK         0.5000 
    108 O         -5.6832  -25.2195  -54.9877 O.2       19 UNK        -0.5000 
    109 N         -4.1769  -24.0109  -53.7960 N.am      20 UNK        -0.5000 
    110 CA        -2.9638  -24.7106  -54.2185 C.3       20 UNK         0.1400 
    111 CB        -1.9267  -24.6141  -53.0870 C.3       20 UNK        -0.1800 
    112 C         -2.3708  -24.1505  -55.5254 C.2       20 UNK         0.5000 
    113 O         -1.4833  -24.7850  -56.0963 O.2       20 UNK        -0.5000 
    114 N         -2.8149  -22.9538  -55.9419 N.am      21 UNK        -0.5000 
    115 CA        -2.2858  -22.1401  -57.0449 C.3       21 UNK         0.1400 
    116 CB        -2.6216  -22.7874  -58.4039 C.3       21 UNK        -0.1800 
    117 C         -0.7808  -21.8247  -56.8781 C.2       21 UNK         0.5000 
    118 O         -0.0314  -21.8203  -57.8563 O.2       21 UNK        -0.5000 
    119 N         -0.3665  -21.6068  -55.6224 N.am      22 UNK        -0.5000 
    120 CA         1.0307  -21.4887  -55.1704 C.3       22 UNK         0.1400 
    121 C          1.8768  -22.7996  -55.2710 C.2       22 UNK         0.5000 
    122 N          1.2952  -23.9611  -55.5478 N.am      22 UNK        -0.7600 
    123 O          3.0865  -22.7781  -55.0637 O.2       22 UNK        -0.5000 
    124 C124        1.7538  -20.2434  -55.7655 C.3       23 UNK        -0.0398 
    125 S125        2.8510  -19.4301  -54.5511 S.3       23 UNK        -0.2404 
    126 C126        1.6759  -18.2795  -53.7631 C.3       23 UNK        -0.0205 
    127 H127       -4.6237  -13.4170  -51.1364 H         1 UNK         0.0600 
    128 H128       -5.3497  -11.8343  -50.8384 H         1 UNK         0.0600 
    129 H129       -5.8612  -13.2359  -49.8907 H         1 UNK         0.0600 
    130 H130       -2.5846  -13.6030  -50.2702 H         1 UNK         0.3000 
    131 H131       -1.5619  -11.8302  -48.2236 H         1 UNK         0.0600 
    132 H132        0.5969  -13.0064  -48.6678 H         1 UNK         0.0800 
    133 H133       -0.1145  -12.2717  -50.0658 H         1 UNK         0.0800 
    134 H134        1.3020  -15.4662  -48.5589 H         1 UNK         0.0800 
    135 H135        2.2087  -14.7034  -49.8505 H         1 UNK         0.0800 
    136 H136        1.4166  -16.0310  -52.2862 H         1 UNK         0.1150 
    137 H137        2.2763  -20.2041  -51.8815 H         1 UNK         0.1150 
    138 H138        1.9776  -17.7183  -48.3969 H         1 UNK         0.1150 
    139 H139        1.8415  -21.1964  -49.6205 H         1 UNK         0.0800 
    140 H140        3.4801  -20.6545  -49.3736 H         1 UNK         0.0800 
    141 H141        0.1821  -19.4231  -46.4205 H         1 UNK         0.0800 
    142 H142        0.0021  -19.4051  -48.1481 H         1 UNK         0.0800 
    143 H143       -0.5799  -21.7273  -48.2576 H         1 UNK         0.0600 
    144 H144        0.7907  -22.0901  -45.7690 H         1 UNK         0.3000 
    145 H145       -0.4869  -25.3355  -45.0605 H         1 UNK         0.0600 
    146 H146        1.9287  -25.9102  -45.1080 H         1 UNK         0.0600 
    147 H147        1.3178  -25.7526  -46.7477 H         1 UNK         0.0600 
    148 H148        2.2854  -24.4603  -46.0460 H         1 UNK         0.0600 
    149 H149        1.5109  -23.8256  -43.7445 H         1 UNK         0.3000 
    150 H150       -0.5279  -21.6190  -41.8882 H         1 UNK         0.0600 
    151 H151       -0.7482  -23.6627  -40.5413 H         1 UNK         0.0600 
    152 H152        0.5859  -22.6924  -39.9361 H         1 UNK         0.0600 
    153 H153        0.9044  -24.1370  -40.8967 H         1 UNK         0.0600 
    154 H154        1.3739  -20.7333  -42.4309 H         1 UNK         0.3000 
    155 H155        4.6713  -21.5547  -41.9996 H         1 UNK         0.0600 
    156 H156        5.2552  -20.7300  -44.2788 H         1 UNK         0.0600 
    157 H157        3.6264  -21.0943  -44.8481 H         1 UNK         0.0600 
    158 H158        4.7024  -22.3945  -44.3532 H         1 UNK         0.0600 
    159 H159        3.3771  -19.2813  -43.2227 H         1 UNK         0.3000 
    160 H160        1.7704  -17.9715  -40.5084 H         1 UNK         0.0600 
    161 H161        4.4927  -16.7833  -41.2529 H         1 UNK         0.0600 
    162 H162        4.0446  -17.3064  -39.6328 H         1 UNK         0.0600 
    163 H163        3.1839  -15.9783  -40.3857 H         1 UNK         0.0600 
    164 H164        2.5539  -16.5295  -42.7575 H         1 UNK         0.3000 
    165 H165        1.2890  -17.6243  -45.3275 H         1 UNK         0.0600 
    166 H166       -1.3060  -16.7505  -43.9453 H         1 UNK         0.0600 
    167 H167       -1.0039  -16.7554  -45.6850 H         1 UNK         0.0600 
    168 H168       -1.0769  -18.2630  -44.8097 H         1 UNK         0.0600 
    169 H169        0.7373  -15.2378  -43.6174 H         1 UNK         0.3000 
    170 H170        3.4317  -13.5203  -44.8420 H         1 UNK         0.0600 
    171 H171        2.1726  -13.0032  -46.9338 H         1 UNK         0.0600 
    172 H172        0.7181  -12.7035  -45.9831 H         1 UNK         0.0600 
    173 H173        2.1307  -11.6711  -45.7906 H         1 UNK         0.0600 
    174 H174        0.9090  -12.7381  -43.5727 H         1 UNK         0.3000 
    175 H175        1.8674  -13.7610  -40.3412 H         1 UNK         0.0600 
    176 H176        1.9211  -10.8644  -41.3433 H         1 UNK         0.0600 
    177 H177        1.6942  -11.3829  -39.6721 H         1 UNK         0.0600 
    178 H178        3.2278  -11.6652  -40.4789 H         1 UNK         0.0600 
    179 H179       -0.2504  -12.0740  -41.0872 H         1 UNK         0.3000 
    180 H180       -2.5596  -14.4452  -40.9015 H         1 UNK         0.0600 
    181 H181       -2.2467  -12.0806  -40.2378 H         1 UNK         0.0600 
    182 H182       -2.1558  -11.5783  -41.9255 H         1 UNK         0.0600 
    183 H183       -3.6484  -12.2412  -41.2757 H         1 UNK         0.0600 
    184 H184       -3.3503  -14.9052  -42.9021 H         1 UNK         0.3000 
    185 H185       -2.9188  -15.2538  -45.4204 H         1 UNK         0.0600 
    186 H186       -5.0267  -14.6416  -44.2572 H         1 UNK         0.0600 
    187 H187       -4.9898  -13.0340  -44.9733 H         1 UNK         0.0600 
    188 H188       -5.2352  -14.4547  -45.9862 H         1 UNK         0.0600 
    189 H189       -3.4722  -12.8081  -46.9042 H         1 UNK         0.3000 
    190 H190       -1.3556  -20.8747  -44.8626 H         1 UNK         0.3000 
    191 H191       -3.7761  -19.4863  -45.3506 H         1 UNK         0.0600 
    192 H192       -4.1208  -19.7478  -42.9040 H         1 UNK         0.0600 
    193 H193       -2.4657  -19.2711  -43.2354 H         1 UNK         0.0600 
    194 H194       -2.8349  -20.9411  -42.8199 H         1 UNK         0.0600 
    195 H195       -3.1283  -22.9086  -44.5440 H         1 UNK         0.3000 
    196 H196       -5.7812  -23.8569  -44.4314 H         1 UNK         0.0600 
    197 H197       -4.6924  -26.0866  -44.7740 H         1 UNK         0.0600 
    198 H198       -3.8027  -25.1161  -43.6101 H         1 UNK         0.0600 
    199 H199       -3.1982  -25.2905  -45.2566 H         1 UNK         0.0600 
    200 H200       -3.8592  -22.9868  -47.2115 H         1 UNK         0.3000 
    201 H201       -5.7986  -24.1833  -49.1351 H         1 UNK         0.0600 
    202 H202       -3.4810  -24.8903  -49.4786 H         1 UNK         0.0600 
    203 H203       -2.9103  -23.2308  -49.4435 H         1 UNK         0.0600 
    204 H204       -3.9261  -23.7971  -50.7747 H         1 UNK         0.0600 
    205 H205       -5.9907  -21.6035  -47.4174 H         1 UNK         0.3000 
    206 H206       -6.9436  -19.6171  -47.5400 H         1 UNK         0.0600 
    207 H207       -8.6913  -20.8187  -48.8465 H         1 UNK         0.0600 
    208 H208       -8.5458  -19.1476  -49.3674 H         1 UNK         0.0600 
    209 H209       -7.8605  -20.4314  -50.3518 H         1 UNK         0.0600 
    210 H210       -4.4192  -19.3234  -47.6836 H         1 UNK         0.3000 
    211 H211       -2.6747  -18.0440  -48.1604 H         1 UNK         0.0600 
    212 H212       -4.5073  -16.2243  -49.8090 H         1 UNK         0.0600 
    213 H213       -2.8927  -15.8493  -49.2300 H         1 UNK         0.0600 
    214 H214       -4.1993  -16.0667  -48.0784 H         1 UNK         0.0600 
    215 H215       -3.1311  -20.3380  -49.4711 H         1 UNK         0.3000 
    216 H216       -2.5493  -21.7185  -51.0732 H         1 UNK         0.0600 
    217 H217       -0.5699  -19.6151  -52.0151 H         1 UNK         0.0600 
    218 H218       -0.4527  -21.3592  -52.2376 H         1 UNK         0.0600 
    219 H219       -0.3108  -20.6759  -50.6282 H         1 UNK         0.0600 
    220 H220       -4.6757  -19.6372  -51.7635 H         1 UNK         0.3000 
    221 H221       -4.6466  -19.3295  -54.6198 H         1 UNK         0.0600 
    222 H222       -6.9791  -19.2332  -52.6324 H         1 UNK         0.0600 
    223 H223       -5.9780  -17.8612  -53.1046 H         1 UNK         0.0600 
    224 H224       -7.0127  -18.6448  -54.2905 H         1 UNK         0.0600 
    225 H225       -5.9417  -21.8143  -52.3943 H         1 UNK         0.3000 
    226 H226       -7.3157  -23.3317  -54.4537 H         1 UNK         0.0600 
    227 H227       -7.9690  -23.3764  -52.0279 H         1 UNK         0.0600 
    228 H228       -7.6164  -24.9839  -52.6457 H         1 UNK         0.0600 
    229 H229       -6.4385  -24.1590  -51.6356 H         1 UNK         0.0600 
    230 H230       -4.0571  -23.2240  -53.1767 H         1 UNK         0.3000 
    231 H231       -3.1913  -25.7656  -54.3849 H         1 UNK         0.0600 
    232 H232       -2.2980  -25.0738  -52.1712 H         1 UNK         0.0600 
    233 H233       -1.0045  -25.1321  -53.3542 H         1 UNK         0.0600 
    234 H234       -1.6662  -23.5791  -52.8640 H         1 UNK         0.0600 
    235 H235       -3.5107  -22.4949  -55.3703 H         1 UNK         0.3000 
    236 H236       -2.8054  -21.1822  -56.9947 H         1 UNK         0.0600 
    237 H237       -3.6900  -22.9849  -58.4915 H         1 UNK         0.0600 
    238 H238       -2.3451  -22.1303  -59.2292 H         1 UNK         0.0600 
    239 H239       -2.0932  -23.7307  -58.5451 H         1 UNK         0.0600 
    240 H240       -1.0740  -21.5805  -54.8944 H         1 UNK         0.3000 
    241 H241        0.9313  -21.3269  -54.0979 H         1 UNK         0.0600 
    242 H242        0.3037  -24.0336  -55.7481 H         1 UNK         0.3800 
    243 H243        1.8661  -24.7897  -55.5958 H         1 UNK         0.3800 
    244 H244        1.0305  -19.5047  -56.1136 H         1 UNK         0.0800 
    245 H245        2.3347  -20.5123  -56.6493 H         1 UNK         0.0800 
    246 H246        0.6532  -18.6180  -53.9342 H         1 UNK         0.0800 
    247 H247        1.7651  -17.3115  -54.2586 H         1 UNK         0.0800 
@<TRIPOS>BOND
     1    1    2 1    
     2    1  127 1    
     3    1  128 1    
     4    1  129 1    
     5    2    3 2    
     6    2    4 am   BACKBONE|DICT|INTERRES
     7    4    5 1    
     8    4  130 1    
     9    5    6 1    
    10    5   65 1    
    11    5  131 1    
    12    6    7 1    
    13    6  132 1    
    14    6  133 1    
    15    7    8 1    
    16    8    9 1    
    17    8  134 1    
    18    8  135 1    
    19    9   10 ar   
    20    9   14 ar   
    21   10   11 ar   
    22   10  136 1    
    23   11   12 ar   
    24   11  126 1    
    25   12   13 ar   
    26   12  137 1    
    27   13   14 ar   
    28   13   15 1    
    29   14  138 1    
    30   15   16 1    
    31   15  139 1    
    32   15  140 1    
    33   16   17 1    
    34   17   18 1    
    35   17  141 1    
    36   17  142 1    
    37   18   19 1    
    38   18   67 1    
    39   18  143 1    
    40   19   20 am   BACKBONE|DICT|INTERRES
    41   19  144 1    
    42   20   21 2    
    43   20   22 1    
    44   22   23 1    
    45   22   24 1    
    46   22  145 1    
    47   23  146 1    
    48   23  147 1    
    49   23  148 1    
    50   24   25 am   BACKBONE|DICT|INTERRES
    51   24  149 1    
    52   25   26 2    
    53   25   27 1    
    54   27   28 1    
    55   27   29 1    
    56   27  150 1    
    57   28  151 1    
    58   28  152 1    
    59   28  153 1    
    60   29   30 am   BACKBONE|DICT|INTERRES
    61   29  154 1    
    62   30   31 2    
    63   30   32 1    
    64   32   33 1    
    65   32   34 1    
    66   32  155 1    
    67   33  156 1    
    68   33  157 1    
    69   33  158 1    
    70   34   35 am   BACKBONE|DICT|INTERRES
    71   34  159 1    
    72   35   36 2    
    73   35   37 1    
    74   37   38 1    
    75   37   39 1    
    76   37  160 1    
    77   38  161 1    
    78   38  162 1    
    79   38  163 1    
    80   39   40 am   BACKBONE|DICT|INTERRES
    81   39  164 1    
    82   40   41 2    
    83   40   42 1    
    84   42   43 1    
    85   42   44 1    
    86   42  165 1    
    87   43  166 1    
    88   43  167 1    
    89   43  168 1    
    90   44   45 am   BACKBONE|DICT|INTERRES
    91   44  169 1    
    92   45   46 2    
    93   45   47 1    
    94   47   48 1    
    95   47   49 1    
    96   47  170 1    
    97   48  171 1    
    98   48  172 1    
    99   48  173 1    
   100   49   50 am   BACKBONE|DICT|INTERRES
   101   49  174 1    
   102   50   51 2    
   103   50   52 1    
   104   52   53 1    
   105   52   54 1    
   106   52  175 1    
   107   53  176 1    
   108   53  177 1    
   109   53  178 1    
   110   54   55 am   BACKBONE|DICT|INTERRES
   111   54  179 1    
   112   55   56 2    
   113   55   57 1    
   114   57   58 1    
   115   57   59 1    
   116   57  180 1    
   117   58  181 1    
   118   58  182 1    
   119   58  183 1    
   120   59   60 am   BACKBONE|DICT|INTERRES
   121   59  184 1    
   122   60   61 2    
   123   60   62 1    
   124   62   63 1    
   125   62   64 1    
   126   62  185 1    
   127   63  186 1    
   128   63  187 1    
   129   63  188 1    
   130   64   65 am   BACKBONE|DICT|INTERRES
   131   64  189 1    
   132   65   66 2    
   133   67   68 2    
   134   67   69 am   BACKBONE|DICT|INTERRES
   135   69   70 1    
   136   69  190 1    
   137   70   71 1    
   138   70   72 1    
   139   70  191 1    
   140   71  192 1    
   141   71  193 1    
   142   71  194 1    
   143   72   73 2    
   144   72   74 am   BACKBONE|DICT|INTERRES
   145   74   75 1    
   146   74  195 1    
   147   75   76 1    
   148   75   77 1    
   149   75  196 1    
   150   76  197 1    
   151   76  198 1    
   152   76  199 1    
   153   77   78 2    
   154   77   79 am   BACKBONE|DICT|INTERRES
   155   79   80 1    
   156   79  200 1    
   157   80   81 1    
   158   80   82 1    
   159   80  201 1    
   160   81  202 1    
   161   81  203 1    
   162   81  204 1    
   163   82   83 2    
   164   82   84 am   BACKBONE|DICT|INTERRES
   165   84   85 1    
   166   84  205 1    
   167   85   86 1    
   168   85   87 1    
   169   85  206 1    
   170   86  207 1    
   171   86  208 1    
   172   86  209 1    
   173   87   88 2    
   174   87   89 am   BACKBONE|DICT|INTERRES
   175   89   90 1    
   176   89  210 1    
   177   90   91 1    
   178   90   92 1    
   179   90  211 1    
   180   91  212 1    
   181   91  213 1    
   182   91  214 1    
   183   92   93 2    
   184   92   94 am   BACKBONE|DICT|INTERRES
   185   94   95 1    
   186   94  215 1    
   187   95   96 1    
   188   95   97 1    
   189   95  216 1    
   190   96  217 1    
   191   96  218 1    
   192   96  219 1    
   193   97   98 2    
   194   97   99 am   BACKBONE|DICT|INTERRES
   195   99  100 1    
   196   99  220 1    
   197  100  101 1    
   198  100  102 1    
   199  100  221 1    
   200  101  222 1    
   201  101  223 1    
   202  101  224 1    
   203  102  103 2    
   204  102  104 am   BACKBONE|DICT|INTERRES
   205  104  105 1    
   206  104  225 1    
   207  105  106 1    
   208  105  107 1    
   209  105  226 1    
   210  106  227 1    
   211  106  228 1    
   212  106  229 1    
   213  107  108 2    
   214  107  109 am   BACKBONE|DICT|INTERRES
   215  109  110 1    
   216  109  230 1    
   217  110  111 1    
   218  110  112 1    
   219  110  231 1    
   220  111  232 1    
   221  111  233 1    
   222  111  234 1    
   223  112  113 2    
   224  112  114 am   BACKBONE|DICT|INTERRES
   225  114  115 1    
   226  114  235 1    
   227  115  116 1    
   228  115  117 1    
   229  115  236 1    
   230  116  237 1    
   231  116  238 1    
   232  116  239 1    
   233  117  118 2    
   234  117  119 am   BACKBONE|DICT|INTERRES
   235  119  120 1    
   236  119  240 1    
   237  120  121 1    
   238  120  124 1    
   239  120  241 1    
   240  121  122 am   BACKBONE|DICT|INTERRES
   241  121  123 2    
   242  122  242 1    
   243  122  243 1    
   244  124  125 1    
   245  124  244 1    
   246  124  245 1    
   247  125  126 1    
   248  126  246 1    
   249  126  247 1    
@<TRIPOS>SUBSTRUCTURE
     1 UNK         1 GROUP             0       ****    0 ROOT    
