@<TRIPOS>MOLECULE
3R540
247   249    1
SMALL
USER_CHARGES


@<TRIPOS>ATOM
      1 CA          5.0121  -12.3051  -43.2109 C.3       0 UNK        -0.1800 
      2 C           4.0166  -12.7332  -44.2774 C.2       0 UNK         0.5000 
      3 O           2.8221  -12.4566  -44.1457 O.2       0 UNK        -0.5000 
      4 N           4.4971  -13.3812  -45.3483 N.am      1 UNK        -0.5000 
      5 CA          3.7098  -13.9421  -46.4588 C.3       1 UNK         0.1400 
      6 C6          4.4664  -15.1027  -47.1670 C.3       23 UNK        -0.0398 
      7 S7          3.3520  -16.4836  -47.5839 S.3       23 UNK        -0.2404 
      8 C8          3.3071  -16.4301  -49.3961 C.3       23 UNK        -0.0205 
      9 C9          2.0638  -17.1273  -49.9241 C.ar      23 UNK        -0.0193 
     10 C10         0.8966  -16.3922  -50.1412 C.ar      23 UNK        -0.1150 
     11 C11        -0.2388  -17.0032  -50.6795 C.ar      23 UNK        -0.0193 
     12 C12        -0.2165  -18.3737  -50.9581 C.ar      23 UNK        -0.1150 
     13 C13         0.9432  -19.1238  -50.7363 C.ar      23 UNK        -0.0193 
     14 C14         2.0819  -18.4924  -50.2250 C.ar      23 UNK        -0.1150 
     15 C15         0.9908  -20.5998  -51.1094 C.3       23 UNK        -0.0205 
     16 S16         1.0385  -21.6952  -49.6541 S.3       23 UNK        -0.2404 
     17 C17        -0.6849  -21.6027  -49.0773 C.3       23 UNK        -0.0398 
     18 CA         -0.9898  -22.6322  -47.9612 C.3       11 UNK         0.1400 
     19 N          -0.1823  -22.4013  -46.7535 N.am      11 UNK        -0.5000 
     20 C          -0.2091  -23.1117  -45.6146 C.2       10 UNK         0.5000 
     21 O          -0.9108  -24.1109  -45.4613 O.2       10 UNK        -0.5000 
     22 CA          0.6007  -22.5759  -44.4180 C.3       10 UNK         0.1400 
     23 CB          1.2528  -23.7034  -43.5920 C.3       10 UNK        -0.1800 
     24 N           1.5621  -21.5319  -44.7799 N.am      10 UNK        -0.5000 
     25 C           2.6986  -21.6558  -45.4799 C.2       9 UNK         0.5000 
     26 O           3.1455  -22.7278  -45.8876 O.2       9 UNK        -0.5000 
     27 CA          3.4504  -20.3513  -45.8081 C.3       9 UNK         0.1400 
     28 CB          3.3685  -20.0571  -47.3123 C.3       9 UNK        -0.1800 
     29 N           2.9413  -19.1925  -45.0661 N.am      9 UNK        -0.5000 
     30 C           3.2565  -18.9116  -43.7944 C.2       8 UNK         0.5000 
     31 O           4.0601  -19.5636  -43.1272 O.2       8 UNK        -0.5000 
     32 CA          2.5221  -17.7227  -43.1525 C.3       8 UNK         0.1400 
     33 CB          3.1643  -16.3960  -43.5791 C.3       8 UNK        -0.1800 
     34 N           1.0911  -17.7142  -43.4738 N.am      8 UNK        -0.5000 
     35 C           0.1966  -18.5429  -42.9106 C.2       7 UNK         0.5000 
     36 O           0.5008  -19.4091  -42.0907 O.2       7 UNK        -0.5000 
     37 CA         -1.2827  -18.4039  -43.3240 C.3       7 UNK         0.1400 
     38 CB         -2.0393  -17.5124  -42.3291 C.3       7 UNK        -0.1800 
     39 N          -1.4573  -17.8724  -44.6734 N.am      7 UNK        -0.5000 
     40 C          -1.1751  -18.5536  -45.7909 C.2       6 UNK         0.5000 
     41 O          -0.8325  -19.7356  -45.7902 O.2       6 UNK        -0.5000 
     42 CA         -1.2868  -17.8113  -47.1374 C.3       6 UNK         0.1400 
     43 CB         -2.5694  -18.2434  -47.8632 C.3       6 UNK        -0.1800 
     44 N          -1.2666  -16.3472  -47.0626 N.am      6 UNK        -0.5000 
     45 C          -0.3180  -15.5906  -46.4946 C.2       5 UNK         0.5000 
     46 O           0.6363  -16.0504  -45.8663 O.2       5 UNK        -0.5000 
     47 CA         -0.4675  -14.0600  -46.6091 C.3       5 UNK         0.1400 
     48 CB         -1.7838  -13.5880  -47.2651 C.3       5 UNK        -0.1800 
     49 N          -0.2834  -13.4052  -45.3124 N.am      5 UNK        -0.5000 
     50 C          -0.9749  -13.6245  -44.1831 C.2       4 UNK         0.5000 
     51 O          -1.8990  -14.4333  -44.0867 O.2       4 UNK        -0.5000 
     52 CA         -0.5649  -12.7949  -42.9517 C.3       4 UNK         0.1400 
     53 CB          0.2759  -13.6432  -41.9863 C.3       4 UNK        -0.1800 
     54 N           0.2049  -11.6076  -43.3297 N.am      4 UNK        -0.5000 
     55 C          -0.3281  -10.4072  -43.5940 C.2       3 UNK         0.5000 
     56 O          -1.5225  -10.1390  -43.4608 O.2       3 UNK        -0.5000 
     57 CA          0.6396   -9.3376  -44.1307 C.3       3 UNK         0.1400 
     58 CB          1.5896   -8.8499  -43.0249 C.3       3 UNK        -0.1800 
     59 N           1.4258   -9.8377  -45.2592 N.am      3 UNK        -0.5000 
     60 C           0.9438  -10.0445  -46.4949 C.2       2 UNK         0.5000 
     61 O          -0.2089   -9.7823  -46.8360 O.2       2 UNK        -0.5000 
     62 CA          1.9001  -10.7006  -47.5011 C.3       2 UNK         0.1400 
     63 CB          2.9039   -9.6840  -48.0721 C.3       2 UNK        -0.1800 
     64 N           2.5946  -11.8031  -46.8462 N.am      2 UNK        -0.5000 
     65 C           3.1608  -12.8625  -47.4268 C.2       1 UNK         0.5000 
     66 O           3.2405  -13.0015  -48.6472 O.2       1 UNK        -0.5000 
     67 C          -2.5027  -22.6488  -47.6590 C.2       11 UNK         0.5000 
     68 O          -3.2452  -23.3826  -48.3115 O.2       11 UNK        -0.5000 
     69 N          -2.9161  -21.9044  -46.6236 N.am      12 UNK        -0.5000 
     70 CA         -4.2592  -21.9011  -46.0408 C.3       12 UNK         0.1400 
     71 CB         -4.2828  -20.8858  -44.8878 C.3       12 UNK        -0.1800 
     72 C          -4.7700  -23.2814  -45.5644 C.2       12 UNK         0.5000 
     73 O          -5.9800  -23.4359  -45.4050 O.2       12 UNK        -0.5000 
     74 N          -3.8656  -24.2496  -45.3604 N.am      13 UNK        -0.5000 
     75 CA         -4.1833  -25.6477  -45.0720 C.3       13 UNK         0.1400 
     76 CB         -3.7557  -25.9771  -43.6331 C.3       13 UNK        -0.1800 
     77 C          -3.4981  -26.5969  -46.0714 C.2       13 UNK         0.5000 
     78 O          -4.1270  -27.5531  -46.5256 O.2       13 UNK        -0.5000 
     79 N          -2.2262  -26.3280  -46.4019 N.am      14 UNK        -0.5000 
     80 CA         -1.3785  -27.1694  -47.2510 C.3       14 UNK         0.1400 
     81 CB          0.0831  -26.7131  -47.1218 C.3       14 UNK        -0.1800 
     82 C          -1.8033  -27.1945  -48.7297 C.2       14 UNK         0.5000 
     83 O          -1.5706  -28.1994  -49.4021 O.2       14 UNK        -0.5000 
     84 N          -2.4410  -26.1153  -49.2003 N.am      15 UNK        -0.5000 
     85 CA         -3.0531  -26.0141  -50.5235 C.3       15 UNK         0.1400 
     86 CB         -2.4827  -24.7944  -51.2694 C.3       15 UNK        -0.1800 
     87 C          -4.5820  -25.9632  -50.3640 C.2       15 UNK         0.5000 
     88 O          -5.2411  -25.1230  -50.9799 O.2       15 UNK        -0.5000 
     89 N          -5.1051  -26.8525  -49.5066 N.am      16 UNK        -0.5000 
     90 CA         -6.5037  -27.0852  -49.1311 C.3       16 UNK         0.1400 
     91 CB         -7.3471  -27.5108  -50.3493 C.3       16 UNK        -0.1800 
     92 C          -7.1568  -25.9153  -48.3737 C.2       16 UNK         0.5000 
     93 O          -7.6109  -26.0981  -47.2440 O.2       16 UNK        -0.5000 
     94 N          -7.1986  -24.7471  -49.0159 N.am      17 UNK        -0.5000 
     95 CA         -7.8030  -23.5108  -48.5340 C.3       17 UNK         0.1400 
     96 CB         -9.3405  -23.5928  -48.6374 C.3       17 UNK        -0.1800 
     97 C          -7.2068  -22.3258  -49.3118 C.2       17 UNK         0.5000 
     98 O          -7.9508  -21.4596  -49.7738 O.2       17 UNK        -0.5000 
     99 N          -5.8733  -22.3318  -49.4715 N.am      18 UNK        -0.5000 
    100 CA        -5.0796  -21.3809  -50.2561 C.3       18 UNK         0.1400 
    101 CB        -5.1289  -19.9674  -49.6389 C.3       18 UNK        -0.1800 
    102 C         -5.4499  -21.4039  -51.7517 C.2       18 UNK         0.5000 
    103 O         -5.7184  -20.3562  -52.3400 O.2       18 UNK        -0.5000 
    104 N         -5.4650  -22.6066  -52.3421 N.am      19 UNK        -0.5000 
    105 CA        -5.6949  -22.8116  -53.7741 C.3       19 UNK         0.1400 
    106 CB        -6.1176  -24.2702  -54.0084 C.3       19 UNK        -0.1800 
    107 C         -4.4616  -22.4652  -54.6336 C.2       19 UNK         0.5000 
    108 O         -4.6167  -22.1391  -55.8112 O.2       19 UNK        -0.5000 
    109 N         -3.2641  -22.5554  -54.0400 N.am      20 UNK        -0.5000 
    110 CA        -1.9892  -22.2196  -54.6696 C.3       20 UNK         0.1400 
    111 CB        -0.8678  -23.0081  -53.9753 C.3       20 UNK        -0.1800 
    112 C         -1.7202  -20.7101  -54.5708 C.2       20 UNK         0.5000 
    113 O         -1.9911  -20.1158  -53.5243 O.2       20 UNK        -0.5000 
    114 N         -1.1617  -20.1315  -55.6439 N.am      21 UNK        -0.5000 
    115 CA        -0.8255  -18.7113  -55.8006 C.3       21 UNK         0.1400 
    116 CB         0.3766  -18.3428  -54.8989 C.3       21 UNK        -0.1800 
    117 C         -2.0684  -17.8144  -55.6047 C.2       21 UNK         0.5000 
    118 O         -3.0390  -17.9624  -56.3495 O.2       21 UNK        -0.5000 
    119 N         -2.0288  -16.9288  -54.6040 N.am      22 UNK        -0.5000 
    120 CA        -3.1636  -16.1344  -54.1035 C.3       22 UNK         0.1400 
    121 C         -4.2720  -16.9580  -53.3813 C.2       22 UNK         0.5000 
    122 N         -4.0610  -18.2278  -53.0649 N.am      22 UNK        -0.7600 
    123 O         -5.3525  -16.4344  -53.1238 O.2       22 UNK        -0.5000 
    124 C124       -2.7098  -14.9035  -53.2567 C.3       23 UNK        -0.0398 
    125 S125       -1.0933  -15.0656  -52.4162 S.3       23 UNK        -0.2404 
    126 C126       -1.4627  -16.1654  -51.0138 C.3       23 UNK        -0.0205 
    127 H127        4.7548  -12.7646  -42.2566 H         1 UNK         0.0600 
    128 H128        4.9863  -11.2225  -43.0876 H         1 UNK         0.0600 
    129 H129        6.0311  -12.5965  -43.4666 H         1 UNK         0.0600 
    130 H130        5.4945  -13.5262  -45.4139 H         1 UNK         0.3000 
    131 H131        2.8183  -14.3669  -45.9934 H         1 UNK         0.0600 
    132 H132        5.2162  -15.5259  -46.4972 H         1 UNK         0.0800 
    133 H133        5.0236  -14.7678  -48.0435 H         1 UNK         0.0800 
    134 H134        4.2069  -16.9006  -49.7946 H         1 UNK         0.0800 
    135 H135        3.3203  -15.3960  -49.7414 H         1 UNK         0.0800 
    136 H136        0.8836  -15.3324  -49.9280 H         1 UNK         0.1150 
    137 H137       -1.0901  -18.8497  -51.3808 H         1 UNK         0.1150 
    138 H138        2.9856  -19.0643  -50.0689 H         1 UNK         0.1150 
    139 H139        0.1428  -20.8655  -51.7418 H         1 UNK         0.0800 
    140 H140        1.8824  -20.7815  -51.7108 H         1 UNK         0.0800 
    141 H141       -1.3357  -21.7645  -49.9390 H         1 UNK         0.0800 
    142 H142       -0.8716  -20.5864  -48.7304 H         1 UNK         0.0800 
    143 H143       -0.7340  -23.6251  -48.3349 H         1 UNK         0.0600 
    144 H144        0.3720  -21.5571  -46.7541 H         1 UNK         0.3000 
    145 H145       -0.1277  -22.0836  -43.7720 H         1 UNK         0.0600 
    146 H146        1.8290  -23.3001  -42.7593 H         1 UNK         0.0600 
    147 H147        1.9179  -24.3202  -44.1965 H         1 UNK         0.0600 
    148 H148        0.4950  -24.3650  -43.1708 H         1 UNK         0.0600 
    149 H149        1.2876  -20.5946  -44.5214 H         1 UNK         0.3000 
    150 H150        4.4997  -20.5105  -45.5512 H         1 UNK         0.0600 
    151 H151        3.6276  -20.9343  -47.9067 H         1 UNK         0.0600 
    152 H152        4.0663  -19.2704  -47.5945 H         1 UNK         0.0600 
    153 H153        2.3654  -19.7453  -47.6056 H         1 UNK         0.0600 
    154 H154        2.2967  -18.5841  -45.5517 H         1 UNK         0.3000 
    155 H155        2.6315  -17.8095  -42.0692 H         1 UNK         0.0600 
    156 H156        4.2270  -16.3765  -43.3349 H         1 UNK         0.0600 
    157 H157        2.7006  -15.5500  -43.0757 H         1 UNK         0.0600 
    158 H158        3.0728  -16.2393  -44.6514 H         1 UNK         0.0600 
    159 H159        0.7875  -17.0587  -44.1891 H         1 UNK         0.3000 
    160 H160       -1.7287  -19.4002  -43.2899 H         1 UNK         0.0600 
    161 H161       -1.6374  -16.4994  -42.3116 H         1 UNK         0.0600 
    162 H162       -1.9694  -17.9105  -41.3160 H         1 UNK         0.0600 
    163 H163       -3.0979  -17.4491  -42.5814 H         1 UNK         0.0600 
    164 H164       -1.7178  -16.8982  -44.7505 H         1 UNK         0.3000 
    165 H165       -0.4280  -18.1178  -47.7384 H         1 UNK         0.0600 
    166 H166       -2.5995  -17.8582  -48.8815 H         1 UNK         0.0600 
    167 H167       -2.6411  -19.3282  -47.9286 H         1 UNK         0.0600 
    168 H168       -3.4619  -17.8919  -47.3441 H         1 UNK         0.0600 
    169 H169       -2.0375  -15.8744  -47.5097 H         1 UNK         0.3000 
    170 H170        0.3508  -13.7279  -47.2473 H         1 UNK         0.0600 
    171 H171       -2.6622  -13.9177  -46.7089 H         1 UNK         0.0600 
    172 H172       -1.8194  -12.4994  -47.3173 H         1 UNK         0.0600 
    173 H173       -1.8734  -13.9550  -48.2877 H         1 UNK         0.0600 
    174 H174        0.4814  -12.7520  -45.2515 H         1 UNK         0.3000 
    175 H175       -1.4791  -12.4977  -42.4337 H         1 UNK         0.0600 
    176 H176        1.2173  -13.9484  -42.4406 H         1 UNK         0.0600 
    177 H177        0.5091  -13.0883  -41.0775 H         1 UNK         0.0600 
    178 H178       -0.2559  -14.5473  -41.6882 H         1 UNK         0.0600 
    179 H179        1.2012  -11.7513  -43.4725 H         1 UNK         0.3000 
    180 H180        0.0471   -8.4848  -44.4694 H         1 UNK         0.0600 
    181 H181        2.2213   -8.0359  -43.3807 H         1 UNK         0.0600 
    182 H182        2.2419   -9.6480  -42.6677 H         1 UNK         0.0600 
    183 H183        1.0296   -8.4746  -42.1674 H         1 UNK         0.0600 
    184 H184        2.3938  -10.0477  -45.0668 H         1 UNK         0.3000 
    185 H185        1.2978  -11.1017  -48.3192 H         1 UNK         0.0600 
    186 H186        3.5597   -9.2857  -47.2972 H         1 UNK         0.0600 
    187 H187        3.5312  -10.1368  -48.8398 H         1 UNK         0.0600 
    188 H188        2.3862   -8.8414  -48.5321 H         1 UNK         0.0600 
    189 H189        2.5780  -11.8087  -45.8299 H         1 UNK         0.3000 
    190 H190       -2.2241  -21.3279  -46.1584 H         1 UNK         0.3000 
    191 H191       -4.9510  -21.5585  -46.8111 H         1 UNK         0.0600 
    192 H192       -4.0314  -19.8844  -45.2378 H         1 UNK         0.0600 
    193 H193       -3.5750  -21.1549  -44.1029 H         1 UNK         0.0600 
    194 H194       -5.2729  -20.8297  -44.4335 H         1 UNK         0.0600 
    195 H195       -2.8843  -24.0327  -45.4944 H         1 UNK         0.3000 
    196 H196       -5.2584  -25.8209  -45.1577 H         1 UNK         0.0600 
    197 H197       -4.2952  -25.3609  -42.9137 H         1 UNK         0.0600 
    198 H198       -2.6883  -25.8106  -43.4818 H         1 UNK         0.0600 
    199 H199       -3.9655  -27.0198  -43.3911 H         1 UNK         0.0600 
    200 H200       -1.7592  -25.5285  -45.9766 H         1 UNK         0.3000 
    201 H201       -1.4460  -28.1924  -46.8750 H         1 UNK         0.0600 
    202 H202        0.4132  -26.7331  -46.0829 H         1 UNK         0.0600 
    203 H203        0.2252  -25.7000  -47.4980 H         1 UNK         0.0600 
    204 H204        0.7480  -27.3677  -47.6866 H         1 UNK         0.0600 
    205 H205       -2.6373  -25.3434  -48.5731 H         1 UNK         0.3000 
    206 H206       -2.8314  -26.8991  -51.1229 H         1 UNK         0.0600 
    207 H207       -2.7676  -23.8533  -50.8019 H         1 UNK         0.0600 
    208 H208       -1.3940  -24.8320  -51.3098 H         1 UNK         0.0600 
    209 H209       -2.8445  -24.7760  -52.2973 H         1 UNK         0.0600 
    210 H210       -4.4469  -27.4329  -49.0042 H         1 UNK         0.3000 
    211 H211       -6.4837  -27.9298  -48.4403 H         1 UNK         0.0600 
    212 H212       -7.4039  -26.7281  -51.1063 H         1 UNK         0.0600 
    213 H213       -8.3688  -27.7478  -50.0501 H         1 UNK         0.0600 
    214 H214       -6.9324  -28.4013  -50.8215 H         1 UNK         0.0600 
    215 H215       -6.7379  -24.6999  -49.9217 H         1 UNK         0.3000 
    216 H216       -7.5358  -23.3691  -47.4867 H         1 UNK         0.0600 
    217 H217       -9.8079  -22.6780  -48.2711 H         1 UNK         0.0600 
    218 H218       -9.7375  -24.4145  -48.0415 H         1 UNK         0.0600 
    219 H219       -9.6637  -23.7404  -49.6685 H         1 UNK         0.0600 
    220 H220       -5.3396  -23.0877  -49.0590 H         1 UNK         0.3000 
    221 H221       -4.0450  -21.7187  -50.2022 H         1 UNK         0.0600 
    222 H222       -6.1171  -19.5159  -49.7291 H         1 UNK         0.0600 
    223 H223       -4.8691  -19.9875  -48.5820 H         1 UNK         0.0600 
    224 H224       -4.4220  -19.3024  -50.1364 H         1 UNK         0.0600 
    225 H225       -5.3038  -23.4441  -51.7875 H         1 UNK         0.3000 
    226 H226       -6.5158  -22.1658  -54.0930 H         1 UNK         0.0600 
    227 H227       -7.0020  -24.5241  -53.4236 H         1 UNK         0.0600 
    228 H228       -6.3598  -24.4428  -55.0578 H         1 UNK         0.0600 
    229 H229       -5.3247  -24.9678  -53.7356 H         1 UNK         0.0600 
    230 H230       -3.2373  -22.7698  -53.0560 H         1 UNK         0.3000 
    231 H231       -2.0176  -22.5129  -55.7213 H         1 UNK         0.0600 
    232 H232       -0.8131  -22.7803  -52.9103 H         1 UNK         0.0600 
    233 H233        0.1040  -22.7731  -54.4111 H         1 UNK         0.0600 
    234 H234       -1.0189  -24.0825  -54.0803 H         1 UNK         0.0600 
    235 H235       -0.9983  -20.7017  -56.4618 H         1 UNK         0.3000 
    236 H236       -0.5135  -18.5760  -56.8371 H         1 UNK         0.0600 
    237 H237        0.1536  -18.4656  -53.8390 H         1 UNK         0.0600 
    238 H238        1.2375  -18.9718  -55.1249 H         1 UNK         0.0600 
    239 H239        0.6875  -17.3093  -55.0567 H         1 UNK         0.0600 
    240 H240       -1.1931  -16.8738  -54.0390 H         1 UNK         0.3000 
    241 H241       -3.6655  -15.7343  -54.9866 H         1 UNK         0.0600 
    242 H242       -4.8139  -18.7849  -52.6710 H         1 UNK         0.3800 
    243 H243       -3.1912  -18.6994  -53.2947 H         1 UNK         0.3800 
    244 H244       -3.4608  -14.6000  -52.5248 H         1 UNK         0.0800 
    245 H245       -2.6137  -14.0473  -53.9255 H         1 UNK         0.0800 
    246 H246       -2.3083  -16.8111  -51.2493 H         1 UNK         0.0800 
    247 H247       -1.7560  -15.5696  -50.1496 H         1 UNK         0.0800 
@<TRIPOS>BOND
     1    1    2 1    
     2    1  127 1    
     3    1  128 1    
     4    1  129 1    
     5    2    3 2    
     6    2    4 am   BACKBONE|DICT|INTERRES
     7    4    5 1    
     8    4  130 1    
     9    5    6 1    
    10    5   65 1    
    11    5  131 1    
    12    6    7 1    
    13    6  132 1    
    14    6  133 1    
    15    7    8 1    
    16    8    9 1    
    17    8  134 1    
    18    8  135 1    
    19    9   10 ar   
    20    9   14 ar   
    21   10   11 ar   
    22   10  136 1    
    23   11   12 ar   
    24   11  126 1    
    25   12   13 ar   
    26   12  137 1    
    27   13   14 ar   
    28   13   15 1    
    29   14  138 1    
    30   15   16 1    
    31   15  139 1    
    32   15  140 1    
    33   16   17 1    
    34   17   18 1    
    35   17  141 1    
    36   17  142 1    
    37   18   19 1    
    38   18   67 1    
    39   18  143 1    
    40   19   20 am   BACKBONE|DICT|INTERRES
    41   19  144 1    
    42   20   21 2    
    43   20   22 1    
    44   22   23 1    
    45   22   24 1    
    46   22  145 1    
    47   23  146 1    
    48   23  147 1    
    49   23  148 1    
    50   24   25 am   BACKBONE|DICT|INTERRES
    51   24  149 1    
    52   25   26 2    
    53   25   27 1    
    54   27   28 1    
    55   27   29 1    
    56   27  150 1    
    57   28  151 1    
    58   28  152 1    
    59   28  153 1    
    60   29   30 am   BACKBONE|DICT|INTERRES
    61   29  154 1    
    62   30   31 2    
    63   30   32 1    
    64   32   33 1    
    65   32   34 1    
    66   32  155 1    
    67   33  156 1    
    68   33  157 1    
    69   33  158 1    
    70   34   35 am   BACKBONE|DICT|INTERRES
    71   34  159 1    
    72   35   36 2    
    73   35   37 1    
    74   37   38 1    
    75   37   39 1    
    76   37  160 1    
    77   38  161 1    
    78   38  162 1    
    79   38  163 1    
    80   39   40 am   BACKBONE|DICT|INTERRES
    81   39  164 1    
    82   40   41 2    
    83   40   42 1    
    84   42   43 1    
    85   42   44 1    
    86   42  165 1    
    87   43  166 1    
    88   43  167 1    
    89   43  168 1    
    90   44   45 am   BACKBONE|DICT|INTERRES
    91   44  169 1    
    92   45   46 2    
    93   45   47 1    
    94   47   48 1    
    95   47   49 1    
    96   47  170 1    
    97   48  171 1    
    98   48  172 1    
    99   48  173 1    
   100   49   50 am   BACKBONE|DICT|INTERRES
   101   49  174 1    
   102   50   51 2    
   103   50   52 1    
   104   52   53 1    
   105   52   54 1    
   106   52  175 1    
   107   53  176 1    
   108   53  177 1    
   109   53  178 1    
   110   54   55 am   BACKBONE|DICT|INTERRES
   111   54  179 1    
   112   55   56 2    
   113   55   57 1    
   114   57   58 1    
   115   57   59 1    
   116   57  180 1    
   117   58  181 1    
   118   58  182 1    
   119   58  183 1    
   120   59   60 am   BACKBONE|DICT|INTERRES
   121   59  184 1    
   122   60   61 2    
   123   60   62 1    
   124   62   63 1    
   125   62   64 1    
   126   62  185 1    
   127   63  186 1    
   128   63  187 1    
   129   63  188 1    
   130   64   65 am   BACKBONE|DICT|INTERRES
   131   64  189 1    
   132   65   66 2    
   133   67   68 2    
   134   67   69 am   BACKBONE|DICT|INTERRES
   135   69   70 1    
   136   69  190 1    
   137   70   71 1    
   138   70   72 1    
   139   70  191 1    
   140   71  192 1    
   141   71  193 1    
   142   71  194 1    
   143   72   73 2    
   144   72   74 am   BACKBONE|DICT|INTERRES
   145   74   75 1    
   146   74  195 1    
   147   75   76 1    
   148   75   77 1    
   149   75  196 1    
   150   76  197 1    
   151   76  198 1    
   152   76  199 1    
   153   77   78 2    
   154   77   79 am   BACKBONE|DICT|INTERRES
   155   79   80 1    
   156   79  200 1    
   157   80   81 1    
   158   80   82 1    
   159   80  201 1    
   160   81  202 1    
   161   81  203 1    
   162   81  204 1    
   163   82   83 2    
   164   82   84 am   BACKBONE|DICT|INTERRES
   165   84   85 1    
   166   84  205 1    
   167   85   86 1    
   168   85   87 1    
   169   85  206 1    
   170   86  207 1    
   171   86  208 1    
   172   86  209 1    
   173   87   88 2    
   174   87   89 am   BACKBONE|DICT|INTERRES
   175   89   90 1    
   176   89  210 1    
   177   90   91 1    
   178   90   92 1    
   179   90  211 1    
   180   91  212 1    
   181   91  213 1    
   182   91  214 1    
   183   92   93 2    
   184   92   94 am   BACKBONE|DICT|INTERRES
   185   94   95 1    
   186   94  215 1    
   187   95   96 1    
   188   95   97 1    
   189   95  216 1    
   190   96  217 1    
   191   96  218 1    
   192   96  219 1    
   193   97   98 2    
   194   97   99 am   BACKBONE|DICT|INTERRES
   195   99  100 1    
   196   99  220 1    
   197  100  101 1    
   198  100  102 1    
   199  100  221 1    
   200  101  222 1    
   201  101  223 1    
   202  101  224 1    
   203  102  103 2    
   204  102  104 am   BACKBONE|DICT|INTERRES
   205  104  105 1    
   206  104  225 1    
   207  105  106 1    
   208  105  107 1    
   209  105  226 1    
   210  106  227 1    
   211  106  228 1    
   212  106  229 1    
   213  107  108 2    
   214  107  109 am   BACKBONE|DICT|INTERRES
   215  109  110 1    
   216  109  230 1    
   217  110  111 1    
   218  110  112 1    
   219  110  231 1    
   220  111  232 1    
   221  111  233 1    
   222  111  234 1    
   223  112  113 2    
   224  112  114 am   BACKBONE|DICT|INTERRES
   225  114  115 1    
   226  114  235 1    
   227  115  116 1    
   228  115  117 1    
   229  115  236 1    
   230  116  237 1    
   231  116  238 1    
   232  116  239 1    
   233  117  118 2    
   234  117  119 am   BACKBONE|DICT|INTERRES
   235  119  120 1    
   236  119  240 1    
   237  120  121 1    
   238  120  124 1    
   239  120  241 1    
   240  121  122 am   BACKBONE|DICT|INTERRES
   241  121  123 2    
   242  122  242 1    
   243  122  243 1    
   244  124  125 1    
   245  124  244 1    
   246  124  245 1    
   247  125  126 1    
   248  126  246 1    
   249  126  247 1    
@<TRIPOS>SUBSTRUCTURE
     1 UNK         1 GROUP             0       ****    0 ROOT    
