@<TRIPOS>MOLECULE
3R540
247   249    1
SMALL
USER_CHARGES


@<TRIPOS>ATOM
      1 CA         -4.1319  -16.7468  -48.1483 C.3       0 UNK        -0.1800 
      2 C          -3.1514  -16.0425  -47.2211 C.2       0 UNK         0.5000 
      3 O          -3.5637  -15.2681  -46.3589 O.2       0 UNK        -0.5000 
      4 N          -1.8531  -16.3347  -47.3675 N.am      1 UNK        -0.5000 
      5 CA         -0.7338  -15.7547  -46.6086 C.3       1 UNK         0.1400 
      6 C6          0.6234  -15.9697  -47.3243 C.3       23 UNK        -0.0398 
      7 S7          0.9286  -17.6874  -47.8646 S.3       23 UNK        -0.2404 
      8 C8          2.4185  -17.4574  -48.8877 C.3       23 UNK        -0.0205 
      9 C9          2.4963  -18.4894  -49.9993 C.ar      23 UNK        -0.0193 
     10 C10         2.1187  -18.1585  -51.3032 C.ar      23 UNK        -0.1150 
     11 C11         2.1636  -19.1181  -52.3189 C.ar      23 UNK        -0.0193 
     12 C12         2.5856  -20.4173  -52.0183 C.ar      23 UNK        -0.1150 
     13 C13         2.9768  -20.7614  -50.7204 C.ar      23 UNK        -0.0193 
     14 C14         2.9454  -19.7813  -49.7220 C.ar      23 UNK        -0.1150 
     15 C15         3.4268  -22.1937  -50.4256 C.3       23 UNK        -0.0205 
     16 S16         2.9536  -22.8258  -48.7756 S.3       23 UNK        -0.2404 
     17 C17         1.1837  -22.3929  -48.7375 C.3       23 UNK        -0.0398 
     18 CA          0.3584  -23.2080  -47.7228 C.3       11 UNK         0.1400 
     19 N           0.8819  -23.1006  -46.3580 N.am      11 UNK        -0.5000 
     20 C           0.5045  -23.8938  -45.3457 C.2       10 UNK         0.5000 
     21 O          -0.3211  -24.7979  -45.4643 O.2       10 UNK        -0.5000 
     22 CA          1.1059  -23.6013  -43.9574 C.3       10 UNK         0.1400 
     23 CB          2.4287  -24.3600  -43.7769 C.3       10 UNK        -0.1800 
     24 N           1.3310  -22.1780  -43.7014 N.am      10 UNK        -0.5000 
     25 C           0.3959  -21.2199  -43.7596 C.2       9 UNK         0.5000 
     26 O          -0.7904  -21.4394  -44.0029 O.2       9 UNK        -0.5000 
     27 CA          0.8632  -19.7684  -43.5472 C.3       9 UNK         0.1400 
     28 CB          0.6844  -19.3788  -42.0717 C.3       9 UNK        -0.1800 
     29 N           2.2507  -19.4907  -43.9256 N.am      9 UNK        -0.5000 
     30 C           2.8667  -19.7695  -45.0814 C.2       8 UNK         0.5000 
     31 O           2.3439  -20.3805  -46.0156 O.2       8 UNK        -0.5000 
     32 CA          4.3275  -19.2815  -45.1755 C.3       8 UNK         0.1400 
     33 CB          5.1391  -20.0348  -46.2434 C.3       8 UNK        -0.1800 
     34 N           4.4292  -17.8428  -45.4294 N.am      8 UNK        -0.5000 
     35 C           4.1082  -16.8598  -44.5770 C.2       7 UNK         0.5000 
     36 O           3.6694  -17.0583  -43.4415 O.2       7 UNK        -0.5000 
     37 CA          4.3436  -15.4131  -45.0462 C.3       7 UNK         0.1400 
     38 CB          4.5609  -15.2470  -46.5676 C.3       7 UNK        -0.1800 
     39 N           3.2467  -14.5705  -44.5771 N.am      7 UNK        -0.5000 
     40 C           3.3195  -13.2456  -44.4059 C.2       6 UNK         0.5000 
     41 O           4.3054  -12.5689  -44.7024 O.2       6 UNK        -0.5000 
     42 CA          2.0943  -12.5508  -43.7825 C.3       6 UNK         0.1400 
     43 CB          1.1105  -12.1172  -44.8802 C.3       6 UNK        -0.1800 
     44 N           1.3809  -13.3594  -42.7924 N.am      6 UNK        -0.5000 
     45 C           1.8970  -13.8307  -41.6482 C.2       5 UNK         0.5000 
     46 O           3.0677  -13.6597  -41.3022 O.2       5 UNK        -0.5000 
     47 CA          0.9098  -14.5781  -40.7244 C.3       5 UNK         0.1400 
     48 CB          1.5310  -14.9876  -39.3738 C.3       5 UNK        -0.1800 
     49 N          -0.3339  -13.8284  -40.5097 N.am      5 UNK        -0.5000 
     50 C          -0.4629  -12.5638  -40.0708 C.2       4 UNK         0.5000 
     51 O           0.4826  -11.8755  -39.6826 O.2       4 UNK        -0.5000 
     52 CA         -1.8892  -11.9632  -40.0606 C.3       4 UNK         0.1400 
     53 CB         -1.8912  -10.4464  -40.3461 C.3       4 UNK        -0.1800 
     54 N          -2.8371  -12.6557  -40.9440 N.am      4 UNK        -0.5000 
     55 C          -2.7540  -12.7972  -42.2749 C.2       3 UNK         0.5000 
     56 O          -1.8620  -12.3136  -42.9737 O.2       3 UNK        -0.5000 
     57 CA         -3.8091  -13.7153  -42.9182 C.3       3 UNK         0.1400 
     58 CB         -4.4839  -13.0317  -44.1175 C.3       3 UNK        -0.1800 
     59 N          -3.2156  -14.9818  -43.3518 N.am      3 UNK        -0.5000 
     60 C          -2.5809  -15.8559  -42.5529 C.2       2 UNK         0.5000 
     61 O          -2.4657  -15.7069  -41.3357 O.2       2 UNK        -0.5000 
     62 CA         -1.9485  -17.0990  -43.2051 C.3       2 UNK         0.1400 
     63 CB         -2.8532  -18.3254  -43.0071 C.3       2 UNK        -0.1800 
     64 N          -1.6627  -16.9137  -44.6277 N.am      2 UNK        -0.5000 
     65 C          -0.6835  -16.1335  -45.1072 C.2       1 UNK         0.5000 
     66 O           0.2130  -15.6710  -44.3993 O.2       1 UNK        -0.5000 
     67 C          -1.1117  -22.7561  -47.8061 C.2       11 UNK         0.5000 
     68 O          -1.8743  -23.3059  -48.6004 O.2       11 UNK        -0.5000 
     69 N          -1.4830  -21.7479  -47.0075 N.am      12 UNK        -0.5000 
     70 CA         -2.8454  -21.2272  -46.9275 C.3       12 UNK         0.1400 
     71 CB         -2.8121  -19.7877  -46.4041 C.3       12 UNK        -0.1800 
     72 C          -3.7404  -22.1322  -46.0674 C.2       12 UNK         0.5000 
     73 O          -4.8986  -22.3411  -46.4236 O.2       12 UNK        -0.5000 
     74 N          -3.1735  -22.7154  -45.0012 N.am      13 UNK        -0.5000 
     75 CA         -3.8088  -23.7450  -44.1736 C.3       13 UNK         0.1400 
     76 CB         -2.9258  -24.0330  -42.9509 C.3       13 UNK        -0.1800 
     77 C          -4.1002  -25.0405  -44.9592 C.2       13 UNK         0.5000 
     78 O          -5.1453  -25.6572  -44.7520 O.2       13 UNK        -0.5000 
     79 N          -3.1981  -25.3954  -45.8857 N.am      14 UNK        -0.5000 
     80 CA         -3.3584  -26.4811  -46.8577 C.3       14 UNK         0.1400 
     81 CB         -1.9716  -26.8641  -47.3999 C.3       14 UNK        -0.1800 
     82 C          -4.3130  -26.1363  -48.0228 C.2       14 UNK         0.5000 
     83 O          -4.5992  -27.0124  -48.8393 O.2       14 UNK        -0.5000 
     84 N          -4.7705  -24.8768  -48.0917 N.am      15 UNK        -0.5000 
     85 CA         -5.6629  -24.2868  -49.0946 C.3       15 UNK         0.1400 
     86 CB         -7.0340  -24.9933  -49.1123 C.3       15 UNK        -0.1800 
     87 C          -5.0415  -24.1533  -50.5010 C.2       15 UNK         0.5000 
     88 O          -5.7730  -23.9302  -51.4661 O.2       15 UNK        -0.5000 
     89 N          -3.7086  -24.2456  -50.5985 N.am      16 UNK        -0.5000 
     90 CA         -2.9537  -24.0515  -51.8339 C.3       16 UNK         0.1400 
     91 CB         -1.5844  -24.7429  -51.7258 C.3       16 UNK        -0.1800 
     92 C          -2.8030  -22.5548  -52.1374 C.2       16 UNK         0.5000 
     93 O          -3.2155  -22.1050  -53.2043 O.2       16 UNK        -0.5000 
     94 N          -2.2760  -21.7968  -51.1646 N.am      17 UNK        -0.5000 
     95 CA         -2.0833  -20.3460  -51.2773 C.3       17 UNK         0.1400 
     96 CB         -1.0569  -19.8691  -50.2412 C.3       17 UNK        -0.1800 
     97 C          -3.3941  -19.5449  -51.1639 C.2       17 UNK         0.5000 
     98 O          -3.4195  -18.3677  -51.5211 O.2       17 UNK        -0.5000 
     99 N          -4.4579  -20.1934  -50.6701 N.am      18 UNK        -0.5000 
    100 CA        -5.8115  -19.6439  -50.6149 C.3       18 UNK         0.1400 
    101 CB        -6.6393  -20.4583  -49.6095 C.3       18 UNK        -0.1800 
    102 C         -6.5017  -19.6264  -51.9945 C.2       18 UNK         0.5000 
    103 O         -7.4112  -18.8213  -52.1987 O.2       18 UNK        -0.5000 
    104 N         -6.0723  -20.5059  -52.9114 N.am      19 UNK        -0.5000 
    105 CA        -6.5450  -20.5546  -54.2929 C.3       19 UNK         0.1400 
    106 CB        -6.2923  -21.9605  -54.8598 C.3       19 UNK        -0.1800 
    107 C         -5.8261  -19.4967  -55.1460 C.2       19 UNK         0.5000 
    108 O         -4.6662  -19.1762  -54.8784 O.2       19 UNK        -0.5000 
    109 N         -6.5063  -19.0100  -56.1925 N.am      20 UNK        -0.5000 
    110 CA        -6.0073  -17.9805  -57.1133 C.3       20 UNK         0.1400 
    111 CB        -7.1409  -17.5685  -58.0651 C.3       20 UNK        -0.1800 
    112 C         -4.7567  -18.3985  -57.9141 C.2       20 UNK         0.5000 
    113 O         -3.9647  -17.5363  -58.2964 O.2       20 UNK        -0.5000 
    114 N         -4.5921  -19.7099  -58.1355 N.am      21 UNK        -0.5000 
    115 CA        -3.4161  -20.3085  -58.7697 C.3       21 UNK         0.1400 
    116 CB        -3.7733  -21.7324  -59.2241 C.3       21 UNK        -0.1800 
    117 C         -2.1749  -20.3337  -57.8530 C.2       21 UNK         0.5000 
    118 O         -1.0577  -20.4413  -58.3595 O.2       21 UNK        -0.5000 
    119 N         -2.3876  -20.2431  -56.5324 N.am      22 UNK        -0.5000 
    120 CA        -1.3623  -20.2776  -55.4773 C.3       22 UNK         0.1400 
    121 C         -0.6110  -21.6404  -55.3288 C.2       22 UNK         0.5000 
    122 N         -1.1372  -22.7428  -55.8496 N.am      22 UNK        -0.7600 
    123 O          0.4528  -21.7158  -54.7222 O.2       22 UNK        -0.5000 
    124 C124       -0.4201  -19.0386  -55.5318 C.3       23 UNK        -0.0398 
    125 S125       -0.0161  -18.4017  -53.8686 S.3       23 UNK        -0.2404 
    126 C126        1.7655  -18.7525  -53.7415 C.3       23 UNK        -0.0205 
    127 H127       -4.8799  -17.2858  -47.5670 H         1 UNK         0.0600 
    128 H128       -3.6295  -17.4616  -48.8001 H         1 UNK         0.0600 
    129 H129       -4.6454  -16.0178  -48.7749 H         1 UNK         0.0600 
    130 H130       -1.5719  -16.9932  -48.0805 H         1 UNK         0.3000 
    131 H131       -0.9042  -14.6759  -46.6013 H         1 UNK         0.0600 
    132 H132        0.6479  -15.3352  -48.2113 H         1 UNK         0.0800 
    133 H133        1.4534  -15.6337  -46.7032 H         1 UNK         0.0800 
    134 H134        2.4362  -16.4533  -49.3137 H         1 UNK         0.0800 
    135 H135        3.3012  -17.5430  -48.2544 H         1 UNK         0.0800 
    136 H136        1.7770  -17.1581  -51.5288 H         1 UNK         0.1150 
    137 H137        2.6075  -21.1641  -52.8001 H         1 UNK         0.1150 
    138 H138        3.2290  -20.0324  -48.7117 H         1 UNK         0.1150 
    139 H139        3.0188  -22.8735  -51.1753 H         1 UNK         0.0800 
    140 H140        4.5119  -22.2442  -50.5211 H         1 UNK         0.0800 
    141 H141        0.7812  -22.5272  -49.7436 H         1 UNK         0.0800 
    142 H142        1.1036  -21.3295  -48.5053 H         1 UNK         0.0800 
    143 H143        0.3968  -24.2585  -48.0190 H         1 UNK         0.0600 
    144 H144        1.5432  -22.3501  -46.1865 H         1 UNK         0.3000 
    145 H145        0.3994  -23.9617  -43.2078 H         1 UNK         0.0600 
    146 H146        2.8218  -24.2350  -42.7678 H         1 UNK         0.0600 
    147 H147        2.2905  -25.4298  -43.9402 H         1 UNK         0.0600 
    148 H148        3.1887  -24.0159  -44.4798 H         1 UNK         0.0600 
    149 H149        2.2803  -21.8988  -43.5047 H         1 UNK         0.3000 
    150 H150        0.2279  -19.1286  -44.1619 H         1 UNK         0.0600 
    151 H151        1.3180  -19.9821  -41.4202 H         1 UNK         0.0600 
    152 H152       -0.3463  -19.5225  -41.7455 H         1 UNK         0.0600 
    153 H153        0.9404  -18.3325  -41.9035 H         1 UNK         0.0600 
    154 H154        2.7635  -18.8958  -43.2840 H         1 UNK         0.3000 
    155 H155        4.7968  -19.4896  -44.2116 H         1 UNK         0.0600 
    156 H156        4.8410  -19.7543  -47.2518 H         1 UNK         0.0600 
    157 H157        5.0132  -21.1144  -46.1492 H         1 UNK         0.0600 
    158 H158        6.2040  -19.8240  -46.1447 H         1 UNK         0.0600 
    159 H159        4.7759  -17.5830  -46.3404 H         1 UNK         0.3000 
    160 H160        5.2565  -15.0905  -44.5414 H         1 UNK         0.0600 
    161 H161        3.6799  -15.5323  -47.1371 H         1 UNK         0.0600 
    162 H162        5.4024  -15.8425  -46.9231 H         1 UNK         0.0600 
    163 H163        4.7887  -14.2122  -46.8225 H         1 UNK         0.0600 
    164 H164        2.4141  -15.0590  -44.2644 H         1 UNK         0.3000 
    165 H165        2.4524  -11.6541  -43.2728 H         1 UNK         0.0600 
    166 H166        0.3002  -11.5160  -44.4679 H         1 UNK         0.0600 
    167 H167        1.6094  -11.5111  -45.6375 H         1 UNK         0.0600 
    168 H168        0.6679  -12.9764  -45.3849 H         1 UNK         0.0600 
    169 H169        0.4076  -13.5461  -42.9933 H         1 UNK         0.3000 
    170 H170        0.6331  -15.4928  -41.2513 H         1 UNK         0.0600 
    171 H171        2.4032  -15.6252  -39.5231 H         1 UNK         0.0600 
    172 H172        1.8530  -14.1206  -38.7962 H         1 UNK         0.0600 
    173 H173        0.8196  -15.5487  -38.7680 H         1 UNK         0.0600 
    174 H174       -1.1818  -14.3195  -40.7773 H         1 UNK         0.3000 
    175 H175       -2.2638  -12.1062  -39.0461 H         1 UNK         0.0600 
    176 H176       -1.3185   -9.9042  -39.5929 H         1 UNK         0.0600 
    177 H177       -1.4517  -10.2166  -41.3171 H         1 UNK         0.0600 
    178 H178       -2.9038  -10.0434  -40.3318 H         1 UNK         0.0600 
    179 H179       -3.5823  -13.1441  -40.4663 H         1 UNK         0.3000 
    180 H180       -4.5822  -13.9424  -42.1813 H         1 UNK         0.0600 
    181 H181       -3.7690  -12.8145  -44.9123 H         1 UNK         0.0600 
    182 H182       -4.9440  -12.0881  -43.8217 H         1 UNK         0.0600 
    183 H183       -5.2691  -13.6597  -44.5388 H         1 UNK         0.0600 
    184 H184       -3.2537  -15.1654  -44.3491 H         1 UNK         0.3000 
    185 H185       -1.0087  -17.2768  -42.6833 H         1 UNK         0.0600 
    186 H186       -3.1650  -18.4194  -41.9659 H         1 UNK         0.0600 
    187 H187       -3.7564  -18.2657  -43.6152 H         1 UNK         0.0600 
    188 H188       -2.3319  -19.2471  -43.2592 H         1 UNK         0.0600 
    189 H189       -2.3658  -17.2313  -45.2775 H         1 UNK         0.3000 
    190 H190       -0.8125  -21.3745  -46.3496 H         1 UNK         0.3000 
    191 H191       -3.2762  -21.2026  -47.9309 H         1 UNK         0.0600 
    192 H192       -2.2863  -19.1363  -47.1006 H         1 UNK         0.0600 
    193 H193       -3.8191  -19.3896  -46.2730 H         1 UNK         0.0600 
    194 H194       -2.2990  -19.7277  -45.4475 H         1 UNK         0.0600 
    195 H195       -2.2339  -22.4318  -44.7363 H         1 UNK         0.3000 
    196 H196       -4.7622  -23.3467  -43.8205 H         1 UNK         0.0600 
    197 H197       -3.4106  -24.7422  -42.2790 H         1 UNK         0.0600 
    198 H198       -2.7302  -23.1242  -42.3812 H         1 UNK         0.0600 
    199 H199       -1.9661  -24.4603  -43.2404 H         1 UNK         0.0600 
    200 H200       -2.3213  -24.8869  -45.9252 H         1 UNK         0.3000 
    201 H201       -3.7750  -27.3489  -46.3425 H         1 UNK         0.0600 
    202 H202       -2.0373  -27.7004  -48.0969 H         1 UNK         0.0600 
    203 H203       -1.3034  -27.1681  -46.5940 H         1 UNK         0.0600 
    204 H204       -1.5035  -26.0329  -47.9280 H         1 UNK         0.0600 
    205 H205       -4.4837  -24.2378  -47.3612 H         1 UNK         0.3000 
    206 H206       -5.8361  -23.2661  -48.7559 H         1 UNK         0.0600 
    207 H207       -7.4530  -25.0651  -48.1086 H         1 UNK         0.0600 
    208 H208       -7.7504  -24.4413  -49.7218 H         1 UNK         0.0600 
    209 H209       -6.9674  -26.0010  -49.5228 H         1 UNK         0.0600 
    210 H210       -3.1652  -24.3362  -49.7469 H         1 UNK         0.3000 
    211 H211       -3.4980  -24.5127  -52.6610 H         1 UNK         0.0600 
    212 H212       -0.9829  -24.3437  -50.9092 H         1 UNK         0.0600 
    213 H213       -1.0123  -24.6145  -52.6456 H         1 UNK         0.0600 
    214 H214       -1.6993  -25.8143  -51.5606 H         1 UNK         0.0600 
    215 H215       -2.0116  -22.2422  -50.2931 H         1 UNK         0.3000 
    216 H216       -1.6699  -20.1401  -52.2639 H         1 UNK         0.0600 
    217 H217       -0.8832  -18.7959  -50.3311 H         1 UNK         0.0600 
    218 H218       -0.0948  -20.3545  -50.3948 H         1 UNK         0.0600 
    219 H219       -1.3826  -20.0614  -49.2214 H         1 UNK         0.0600 
    220 H220       -4.3443  -21.1602  -50.4090 H         1 UNK         0.3000 
    221 H221       -5.7540  -18.6143  -50.2549 H         1 UNK         0.0600 
    222 H222       -6.8089  -21.4758  -49.9622 H         1 UNK         0.0600 
    223 H223       -6.1490  -20.5112  -48.6368 H         1 UNK         0.0600 
    224 H224       -7.6179  -20.0021  -49.4555 H         1 UNK         0.0600 
    225 H225       -5.2716  -21.0858  -52.6994 H         1 UNK         0.3000 
    226 H226       -7.6196  -20.3606  -54.3109 H         1 UNK         0.0600 
    227 H227       -6.7146  -22.0606  -55.8603 H         1 UNK         0.0600 
    228 H228       -5.2274  -22.1835  -54.9314 H         1 UNK         0.0600 
    229 H229       -6.7517  -22.7267  -54.2347 H         1 UNK         0.0600 
    230 H230       -7.4480  -19.3360  -56.3576 H         1 UNK         0.3000 
    231 H231       -5.7310  -17.1095  -56.5154 H         1 UNK         0.0600 
    232 H232       -7.4822  -18.4084  -58.6715 H         1 UNK         0.0600 
    233 H233       -6.8127  -16.7832  -58.7474 H         1 UNK         0.0600 
    234 H234       -7.9978  -17.1801  -57.5145 H         1 UNK         0.0600 
    235 H235       -5.3011  -20.3441  -57.7986 H         1 UNK         0.3000 
    236 H236       -3.1607  -19.7212  -59.6543 H         1 UNK         0.0600 
    237 H237       -4.6033  -21.7241  -59.9310 H         1 UNK         0.0600 
    238 H238       -2.9280  -22.2073  -59.7240 H         1 UNK         0.0600 
    239 H239       -4.0551  -22.3658  -58.3820 H         1 UNK         0.0600 
    240 H240       -3.3332  -20.1033  -56.1964 H         1 UNK         0.3000 
    241 H241       -1.9540  -20.1972  -54.5667 H         1 UNK         0.0600 
    242 H242       -2.0232  -22.7106  -56.3256 H         1 UNK         0.3800 
    243 H243       -0.6486  -23.6179  -55.7504 H         1 UNK         0.3800 
    244 H244        0.4815  -19.2473  -56.1094 H         1 UNK         0.0800 
    245 H245       -0.9126  -18.2169  -56.0536 H         1 UNK         0.0800 
    246 H246        2.0398  -19.5590  -54.4224 H         1 UNK         0.0800 
    247 H247        2.3272  -17.8752  -54.0648 H         1 UNK         0.0800 
@<TRIPOS>BOND
     1    1    2 1    
     2    1  127 1    
     3    1  128 1    
     4    1  129 1    
     5    2    3 2    
     6    2    4 am   BACKBONE|DICT|INTERRES
     7    4    5 1    
     8    4  130 1    
     9    5    6 1    
    10    5   65 1    
    11    5  131 1    
    12    6    7 1    
    13    6  132 1    
    14    6  133 1    
    15    7    8 1    
    16    8    9 1    
    17    8  134 1    
    18    8  135 1    
    19    9   10 ar   
    20    9   14 ar   
    21   10   11 ar   
    22   10  136 1    
    23   11   12 ar   
    24   11  126 1    
    25   12   13 ar   
    26   12  137 1    
    27   13   14 ar   
    28   13   15 1    
    29   14  138 1    
    30   15   16 1    
    31   15  139 1    
    32   15  140 1    
    33   16   17 1    
    34   17   18 1    
    35   17  141 1    
    36   17  142 1    
    37   18   19 1    
    38   18   67 1    
    39   18  143 1    
    40   19   20 am   BACKBONE|DICT|INTERRES
    41   19  144 1    
    42   20   21 2    
    43   20   22 1    
    44   22   23 1    
    45   22   24 1    
    46   22  145 1    
    47   23  146 1    
    48   23  147 1    
    49   23  148 1    
    50   24   25 am   BACKBONE|DICT|INTERRES
    51   24  149 1    
    52   25   26 2    
    53   25   27 1    
    54   27   28 1    
    55   27   29 1    
    56   27  150 1    
    57   28  151 1    
    58   28  152 1    
    59   28  153 1    
    60   29   30 am   BACKBONE|DICT|INTERRES
    61   29  154 1    
    62   30   31 2    
    63   30   32 1    
    64   32   33 1    
    65   32   34 1    
    66   32  155 1    
    67   33  156 1    
    68   33  157 1    
    69   33  158 1    
    70   34   35 am   BACKBONE|DICT|INTERRES
    71   34  159 1    
    72   35   36 2    
    73   35   37 1    
    74   37   38 1    
    75   37   39 1    
    76   37  160 1    
    77   38  161 1    
    78   38  162 1    
    79   38  163 1    
    80   39   40 am   BACKBONE|DICT|INTERRES
    81   39  164 1    
    82   40   41 2    
    83   40   42 1    
    84   42   43 1    
    85   42   44 1    
    86   42  165 1    
    87   43  166 1    
    88   43  167 1    
    89   43  168 1    
    90   44   45 am   BACKBONE|DICT|INTERRES
    91   44  169 1    
    92   45   46 2    
    93   45   47 1    
    94   47   48 1    
    95   47   49 1    
    96   47  170 1    
    97   48  171 1    
    98   48  172 1    
    99   48  173 1    
   100   49   50 am   BACKBONE|DICT|INTERRES
   101   49  174 1    
   102   50   51 2    
   103   50   52 1    
   104   52   53 1    
   105   52   54 1    
   106   52  175 1    
   107   53  176 1    
   108   53  177 1    
   109   53  178 1    
   110   54   55 am   BACKBONE|DICT|INTERRES
   111   54  179 1    
   112   55   56 2    
   113   55   57 1    
   114   57   58 1    
   115   57   59 1    
   116   57  180 1    
   117   58  181 1    
   118   58  182 1    
   119   58  183 1    
   120   59   60 am   BACKBONE|DICT|INTERRES
   121   59  184 1    
   122   60   61 2    
   123   60   62 1    
   124   62   63 1    
   125   62   64 1    
   126   62  185 1    
   127   63  186 1    
   128   63  187 1    
   129   63  188 1    
   130   64   65 am   BACKBONE|DICT|INTERRES
   131   64  189 1    
   132   65   66 2    
   133   67   68 2    
   134   67   69 am   BACKBONE|DICT|INTERRES
   135   69   70 1    
   136   69  190 1    
   137   70   71 1    
   138   70   72 1    
   139   70  191 1    
   140   71  192 1    
   141   71  193 1    
   142   71  194 1    
   143   72   73 2    
   144   72   74 am   BACKBONE|DICT|INTERRES
   145   74   75 1    
   146   74  195 1    
   147   75   76 1    
   148   75   77 1    
   149   75  196 1    
   150   76  197 1    
   151   76  198 1    
   152   76  199 1    
   153   77   78 2    
   154   77   79 am   BACKBONE|DICT|INTERRES
   155   79   80 1    
   156   79  200 1    
   157   80   81 1    
   158   80   82 1    
   159   80  201 1    
   160   81  202 1    
   161   81  203 1    
   162   81  204 1    
   163   82   83 2    
   164   82   84 am   BACKBONE|DICT|INTERRES
   165   84   85 1    
   166   84  205 1    
   167   85   86 1    
   168   85   87 1    
   169   85  206 1    
   170   86  207 1    
   171   86  208 1    
   172   86  209 1    
   173   87   88 2    
   174   87   89 am   BACKBONE|DICT|INTERRES
   175   89   90 1    
   176   89  210 1    
   177   90   91 1    
   178   90   92 1    
   179   90  211 1    
   180   91  212 1    
   181   91  213 1    
   182   91  214 1    
   183   92   93 2    
   184   92   94 am   BACKBONE|DICT|INTERRES
   185   94   95 1    
   186   94  215 1    
   187   95   96 1    
   188   95   97 1    
   189   95  216 1    
   190   96  217 1    
   191   96  218 1    
   192   96  219 1    
   193   97   98 2    
   194   97   99 am   BACKBONE|DICT|INTERRES
   195   99  100 1    
   196   99  220 1    
   197  100  101 1    
   198  100  102 1    
   199  100  221 1    
   200  101  222 1    
   201  101  223 1    
   202  101  224 1    
   203  102  103 2    
   204  102  104 am   BACKBONE|DICT|INTERRES
   205  104  105 1    
   206  104  225 1    
   207  105  106 1    
   208  105  107 1    
   209  105  226 1    
   210  106  227 1    
   211  106  228 1    
   212  106  229 1    
   213  107  108 2    
   214  107  109 am   BACKBONE|DICT|INTERRES
   215  109  110 1    
   216  109  230 1    
   217  110  111 1    
   218  110  112 1    
   219  110  231 1    
   220  111  232 1    
   221  111  233 1    
   222  111  234 1    
   223  112  113 2    
   224  112  114 am   BACKBONE|DICT|INTERRES
   225  114  115 1    
   226  114  235 1    
   227  115  116 1    
   228  115  117 1    
   229  115  236 1    
   230  116  237 1    
   231  116  238 1    
   232  116  239 1    
   233  117  118 2    
   234  117  119 am   BACKBONE|DICT|INTERRES
   235  119  120 1    
   236  119  240 1    
   237  120  121 1    
   238  120  124 1    
   239  120  241 1    
   240  121  122 am   BACKBONE|DICT|INTERRES
   241  121  123 2    
   242  122  242 1    
   243  122  243 1    
   244  124  125 1    
   245  124  244 1    
   246  124  245 1    
   247  125  126 1    
   248  126  246 1    
   249  126  247 1    
@<TRIPOS>SUBSTRUCTURE
     1 UNK         1 GROUP             0       ****    0 ROOT    
