@<TRIPOS>MOLECULE
3R540
247   249    1
SMALL
USER_CHARGES


@<TRIPOS>ATOM
      1 CA          7.5697  -13.6413  -49.6946 C.3       0 UNK        -0.1800 
      2 C           6.3398  -13.1241  -48.9619 C.2       0 UNK         0.5000 
      3 O           6.0030  -11.9474  -49.0934 O.2       0 UNK        -0.5000 
      4 N           5.6779  -14.0006  -48.1928 N.am      1 UNK        -0.5000 
      5 CA          4.4654  -13.7337  -47.4034 C.3       1 UNK         0.1400 
      6 C6          3.2113  -13.4008  -48.2594 C.3       23 UNK        -0.0398 
      7 S7          2.8164  -14.7062  -49.4699 S.3       23 UNK        -0.2404 
      8 C8          1.6325  -15.6999  -48.5139 C.3       23 UNK        -0.0205 
      9 C9          1.2222  -16.9501  -49.2745 C.ar      23 UNK        -0.0193 
     10 C10        -0.0347  -17.0338  -49.8817 C.ar      23 UNK        -0.1150 
     11 C11        -0.4219  -18.1997  -50.5490 C.ar      23 UNK        -0.0193 
     12 C12         0.4675  -19.2741  -50.6321 C.ar      23 UNK        -0.1150 
     13 C13         1.7257  -19.2029  -50.0274 C.ar      23 UNK        -0.0193 
     14 C14         2.0941  -18.0401  -49.3448 C.ar      23 UNK        -0.1150 
     15 C15         2.6819  -20.3866  -50.0948 C.3       23 UNK        -0.0205 
     16 S16         1.9921  -21.8894  -49.3285 S.3       23 UNK        -0.2404 
     17 C17         1.4901  -21.2539  -47.6932 C.3       23 UNK        -0.0398 
     18 CA          1.2101  -22.3660  -46.6580 C.3       11 UNK         0.1400 
     19 N           1.0450  -21.8125  -45.3164 N.am      11 UNK        -0.5000 
     20 C           1.0494  -22.5299  -44.1857 C.2       10 UNK         0.5000 
     21 O           1.2913  -23.7358  -44.1393 O.2       10 UNK        -0.5000 
     22 CA          0.6890  -21.7780  -42.8916 C.3       10 UNK         0.1400 
     23 CB          1.9303  -21.0965  -42.2972 C.3       10 UNK        -0.1800 
     24 N          -0.3727  -20.7871  -43.0857 N.am      10 UNK        -0.5000 
     25 C          -1.6262  -21.0841  -43.4607 C.2       9 UNK         0.5000 
     26 O          -2.0288  -22.2318  -43.6526 O.2       9 UNK        -0.5000 
     27 CA         -2.5810  -19.9008  -43.6994 C.3       9 UNK         0.1400 
     28 CB         -3.1100  -19.3514  -42.3663 C.3       9 UNK        -0.1800 
     29 N          -1.9682  -18.8189  -44.4719 N.am      9 UNK        -0.5000 
     30 C          -1.5323  -18.9375  -45.7344 C.2       8 UNK         0.5000 
     31 O          -1.6190  -19.9709  -46.3937 O.2       8 UNK        -0.5000 
     32 CA         -0.8248  -17.7196  -46.3499 C.3       8 UNK         0.1400 
     33 CB         -1.8380  -16.6550  -46.7953 C.3       8 UNK        -0.1800 
     34 N           0.1590  -17.1292  -45.4441 N.am      8 UNK        -0.5000 
     35 C           1.2384  -17.7742  -44.9782 C.2       7 UNK         0.5000 
     36 O           1.5531  -18.9174  -45.3081 O.2       7 UNK        -0.5000 
     37 CA          2.0757  -17.0347  -43.9229 C.3       7 UNK         0.1400 
     38 CB          3.0511  -16.0496  -44.5871 C.3       7 UNK        -0.1800 
     39 N           1.2252  -16.3417  -42.9527 N.am      7 UNK        -0.5000 
     40 C           0.4574  -16.9717  -42.0499 C.2       6 UNK         0.5000 
     41 O           0.4445  -18.1929  -41.8983 O.2       6 UNK        -0.5000 
     42 CA         -0.4997  -16.1013  -41.2172 C.3       6 UNK         0.1400 
     43 CB          0.1896  -15.5713  -39.9531 C.3       6 UNK        -0.1800 
     44 N          -1.0469  -14.9884  -41.9942 N.am      6 UNK        -0.5000 
     45 C          -1.9652  -15.1471  -42.9588 C.2       5 UNK         0.5000 
     46 O          -2.4518  -16.2368  -43.2573 O.2       5 UNK        -0.5000 
     47 CA         -2.3888  -13.8977  -43.7523 C.3       5 UNK         0.1400 
     48 CB         -3.6015  -13.2273  -43.0905 C.3       5 UNK        -0.1800 
     49 N          -1.3217  -12.9107  -43.9121 N.am      5 UNK        -0.5000 
     50 C          -0.1574  -13.1223  -44.5396 C.2       4 UNK         0.5000 
     51 O           0.1532  -14.1981  -45.0549 O.2       4 UNK        -0.5000 
     52 CA          0.8434  -11.9497  -44.5793 C.3       4 UNK         0.1400 
     53 CB          0.2555  -10.5990  -44.1130 C.3       4 UNK        -0.1800 
     54 N           2.0730  -12.2410  -43.8371 N.am      4 UNK        -0.5000 
     55 C           2.1870  -12.6153  -42.5523 C.2       3 UNK         0.5000 
     56 O           1.2187  -12.8337  -41.8226 O.2       3 UNK        -0.5000 
     57 CA          3.6130  -12.7812  -41.9817 C.3       3 UNK         0.1400 
     58 CB          3.7532  -14.0669  -41.1485 C.3       3 UNK        -0.1800 
     59 N           4.6386  -12.7761  -43.0293 N.am      3 UNK        -0.5000 
     60 C           5.3867  -11.7164  -43.3653 C.2       2 UNK         0.5000 
     61 O           5.3335  -10.6282  -42.7914 O.2       2 UNK        -0.5000 
     62 CA          6.3372  -11.8914  -44.5674 C.3       2 UNK         0.1400 
     63 CB          7.7262  -12.3436  -44.0920 C.3       2 UNK        -0.1800 
     64 N           5.8569  -12.8233  -45.5950 N.am      2 UNK        -0.5000 
     65 C           4.7203  -12.6871  -46.2949 C.2       1 UNK         0.5000 
     66 O           3.9029  -11.7894  -46.0870 O.2       1 UNK        -0.5000 
     67 C          -0.0007  -23.2414  -47.0431 C.2       11 UNK         0.5000 
     68 O           0.1830  -24.4139  -47.3708 O.2       11 UNK        -0.5000 
     69 N          -1.2169  -22.6808  -46.9570 N.am      12 UNK        -0.5000 
     70 CA         -2.4819  -23.3255  -47.3261 C.3       12 UNK         0.1400 
     71 CB         -3.6344  -22.3213  -47.1855 C.3       12 UNK        -0.1800 
     72 C          -2.7947  -24.6133  -46.5431 C.2       12 UNK         0.5000 
     73 O          -3.4793  -25.4842  -47.0762 O.2       12 UNK        -0.5000 
     74 N          -2.2516  -24.7472  -45.3261 N.am      13 UNK        -0.5000 
     75 CA         -2.3036  -25.9689  -44.5203 C.3       13 UNK         0.1400 
     76 CB         -1.6827  -25.6892  -43.1435 C.3       13 UNK        -0.1800 
     77 C          -1.6233  -27.1874  -45.1841 C.2       13 UNK         0.5000 
     78 O          -2.0018  -28.3194  -44.8793 O.2       13 UNK        -0.5000 
     79 N          -0.6539  -26.9424  -46.0774 N.am      14 UNK        -0.5000 
     80 CA          0.0423  -27.9622  -46.8616 C.3       14 UNK         0.1400 
     81 CB          1.5577  -27.7858  -46.6750 C.3       14 UNK        -0.1800 
     82 C          -0.3269  -27.8767  -48.3532 C.2       14 UNK         0.5000 
     83 O          -0.5357  -28.9116  -48.9868 O.2       14 UNK        -0.5000 
     84 N          -0.3924  -26.6523  -48.8929 N.am      15 UNK        -0.5000 
     85 CA         -0.5977  -26.3666  -50.3147 C.3       15 UNK         0.1400 
     86 CB         -0.0049  -24.9813  -50.6228 C.3       15 UNK        -0.1800 
     87 C          -2.0694  -26.4224  -50.7659 C.2       15 UNK         0.5000 
     88 O          -2.3260  -26.3336  -51.9671 O.2       15 UNK        -0.5000 
     89 N          -3.0112  -26.5083  -49.8158 N.am      16 UNK        -0.5000 
     90 CA         -4.4756  -26.5088  -49.9568 C.3       16 UNK         0.1400 
     91 CB         -4.9634  -27.6542  -50.8656 C.3       16 UNK        -0.1800 
     92 C          -5.0793  -25.1584  -50.3942 C.2       16 UNK         0.5000 
     93 O          -6.1627  -24.8109  -49.9238 O.2       16 UNK        -0.5000 
     94 N          -4.3811  -24.4307  -51.2797 N.am      17 UNK        -0.5000 
     95 CA         -4.7625  -23.1509  -51.8915 C.3       17 UNK         0.1400 
     96 CB         -4.7800  -22.0200  -50.8423 C.3       17 UNK        -0.1800 
     97 C          -6.0702  -23.2486  -52.7085 C.2       17 UNK         0.5000 
     98 O          -6.8666  -22.3080  -52.7340 O.2       17 UNK        -0.5000 
     99 N          -6.2546  -24.3967  -53.3786 N.am      18 UNK        -0.5000 
    100 CA        -7.4571  -24.7926  -54.1209 C.3       18 UNK         0.1400 
    101 CB        -7.2865  -26.2464  -54.5885 C.3       18 UNK        -0.1800 
    102 C         -7.8258  -23.8802  -55.3089 C.2       18 UNK         0.5000 
    103 O         -8.9695  -23.9162  -55.7645 O.2       18 UNK        -0.5000 
    104 N         -6.8690  -23.0648  -55.7734 N.am      19 UNK        -0.5000 
    105 CA        -7.0672  -22.0164  -56.7754 C.3       19 UNK         0.1400 
    106 CB        -5.6933  -21.4882  -57.2169 C.3       19 UNK        -0.1800 
    107 C         -7.9516  -20.8511  -56.2834 C.2       19 UNK         0.5000 
    108 O         -8.4817  -20.1151  -57.1161 O.2       19 UNK        -0.5000 
    109 N         -8.0761  -20.6864  -54.9554 N.am      20 UNK        -0.5000 
    110 CA        -8.8779  -19.7067  -54.2062 C.3       20 UNK         0.1400 
    111 CB       -10.3768  -19.8444  -54.5315 C.3       20 UNK        -0.1800 
    112 C         -8.4153  -18.2410  -54.3349 C.2       20 UNK         0.5000 
    113 O         -8.4524  -17.5099  -53.3441 O.2       20 UNK        -0.5000 
    114 N         -7.9486  -17.8420  -55.5251 N.am      21 UNK        -0.5000 
    115 CA        -7.4487  -16.5061  -55.8693 C.3       21 UNK         0.1400 
    116 CB        -7.1226  -16.4762  -57.3704 C.3       21 UNK        -0.1800 
    117 C         -6.2283  -16.0491  -55.0434 C.2       21 UNK         0.5000 
    118 O         -5.9859  -14.8464  -54.9347 O.2       21 UNK        -0.5000 
    119 N         -5.5006  -17.0114  -54.4627 N.am      22 UNK        -0.5000 
    120 CA        -4.4319  -16.7898  -53.4783 C.3       22 UNK         0.1400 
    121 C         -4.9355  -16.2622  -52.0976 C.2       22 UNK         0.5000 
    122 N         -6.2172  -16.3728  -51.7638 N.am      22 UNK        -0.7600 
    123 O         -4.1550  -15.7220  -51.3200 O.2       22 UNK        -0.5000 
    124 C124       -3.5640  -18.0682  -53.3284 C.3       23 UNK        -0.0398 
    125 S125       -1.8300  -17.7259  -52.8765 S.3       23 UNK        -0.2404 
    126 C126       -1.8093  -18.3133  -51.1565 C.3       23 UNK        -0.0205 
    127 H127        7.7505  -14.6970  -49.4904 H         1 UNK         0.0600 
    128 H128        8.4525  -13.0799  -49.3886 H         1 UNK         0.0600 
    129 H129        7.4433  -13.5205  -50.7705 H         1 UNK         0.0600 
    130 H130        6.0156  -14.9519  -48.1484 H         1 UNK         0.3000 
    131 H131        4.2522  -14.6629  -46.8753 H         1 UNK         0.0600 
    132 H132        2.3387  -13.2454  -47.6221 H         1 UNK         0.0800 
    133 H133        3.3550  -12.4656  -48.8024 H         1 UNK         0.0800 
    134 H134        0.7597  -15.0912  -48.2732 H         1 UNK         0.0800 
    135 H135        2.0801  -15.9879  -47.5621 H         1 UNK         0.0800 
    136 H136       -0.7198  -16.1996  -49.8218 H         1 UNK         0.1150 
    137 H137        0.1741  -20.1762  -51.1506 H         1 UNK         0.1150 
    138 H138        3.0618  -17.9782  -48.8670 H         1 UNK         0.1150 
    139 H139        2.9165  -20.5964  -51.1391 H         1 UNK         0.0800 
    140 H140        3.6291  -20.1481  -49.6086 H         1 UNK         0.0800 
    141 H141        0.6202  -20.6063  -47.8137 H         1 UNK         0.0800 
    142 H142        2.2935  -20.6130  -47.3270 H         1 UNK         0.0800 
    143 H143        2.0865  -23.0174  -46.6304 H         1 UNK         0.0600 
    144 H144        0.8979  -20.8097  -45.2559 H         1 UNK         0.3000 
    145 H145        0.3277  -22.5153  -42.1717 H         1 UNK         0.0600 
    146 H146        1.7051  -20.6396  -41.3334 H         1 UNK         0.0600 
    147 H147        2.7329  -21.8171  -42.1354 H         1 UNK         0.0600 
    148 H148        2.3150  -20.3170  -42.9554 H         1 UNK         0.0600 
    149 H149       -0.1271  -19.8186  -42.9047 H         1 UNK         0.3000 
    150 H150       -3.4324  -20.2738  -44.2720 H         1 UNK         0.0600 
    151 H151       -3.5822  -20.1394  -41.7783 H         1 UNK         0.0600 
    152 H152       -3.8579  -18.5753  -42.5295 H         1 UNK         0.0600 
    153 H153       -2.3104  -18.9233  -41.7613 H         1 UNK         0.0600 
    154 H154       -1.9087  -17.9135  -44.0144 H         1 UNK         0.3000 
    155 H155       -0.2878  -18.0719  -47.2311 H         1 UNK         0.0600 
    156 H156       -2.4578  -16.3141  -45.9670 H         1 UNK         0.0600 
    157 H157       -2.5052  -17.0536  -47.5605 H         1 UNK         0.0600 
    158 H158       -1.3398  -15.7838  -47.2197 H         1 UNK         0.0600 
    159 H159        0.0029  -16.1686  -45.1550 H         1 UNK         0.3000 
    160 H160        2.6663  -17.7816  -43.3881 H         1 UNK         0.0600 
    161 H161        2.5339  -15.2186  -45.0651 H         1 UNK         0.0600 
    162 H162        3.6428  -16.5522  -45.3533 H         1 UNK         0.0600 
    163 H163        3.7532  -15.6395  -43.8640 H         1 UNK         0.0600 
    164 H164        1.1208  -15.3432  -43.0609 H         1 UNK         0.3000 
    165 H165       -1.3290  -16.7364  -40.8983 H         1 UNK         0.0600 
    166 H166       -0.5063  -15.0075  -39.3318 H         1 UNK         0.0600 
    167 H167        0.5768  -16.3915  -39.3472 H         1 UNK         0.0600 
    168 H168        1.0265  -14.9190  -40.1938 H         1 UNK         0.0600 
    169 H169       -0.6439  -14.0724  -41.8350 H         1 UNK         0.3000 
    170 H170       -2.6845  -14.2265  -44.7502 H         1 UNK         0.0600 
    171 H171       -4.4256  -13.9335  -42.9793 H         1 UNK         0.0600 
    172 H172       -3.3590  -12.8466  -42.0976 H         1 UNK         0.0600 
    173 H173       -3.9685  -12.3942  -43.6902 H         1 UNK         0.0600 
    174 H174       -1.4796  -12.0055  -43.4941 H         1 UNK         0.3000 
    175 H175        1.1318  -11.8385  -45.6253 H         1 UNK         0.0600 
    176 H176       -0.0231  -10.6107  -43.0585 H         1 UNK         0.0600 
    177 H177        0.9804   -9.7963  -44.2496 H         1 UNK         0.0600 
    178 H178       -0.6284  -10.3298  -44.6928 H         1 UNK         0.0600 
    179 H179        2.9231  -12.0961  -44.3710 H         1 UNK         0.3000 
    180 H180        3.7748  -11.9399  -41.3051 H         1 UNK         0.0600 
    181 H181        3.4300  -14.9515  -41.6949 H         1 UNK         0.0600 
    182 H182        3.1535  -14.0043  -40.2406 H         1 UNK         0.0600 
    183 H183        4.7853  -14.2243  -40.8347 H         1 UNK         0.0600 
    184 H184        4.7553  -13.6283  -43.5566 H         1 UNK         0.3000 
    185 H185        6.4423  -10.9127  -45.0402 H         1 UNK         0.0600 
    186 H186        8.1267  -11.6572  -43.3446 H         1 UNK         0.0600 
    187 H187        7.6939  -13.3366  -43.6418 H         1 UNK         0.0600 
    188 H188        8.4369  -12.3713  -44.9182 H         1 UNK         0.0600 
    189 H189        6.4793  -13.5805  -45.8379 H         1 UNK         0.3000 
    190 H190       -1.2902  -21.7062  -46.6673 H         1 UNK         0.3000 
    191 H191       -2.4059  -23.6032  -48.3793 H         1 UNK         0.0600 
    192 H192       -3.7423  -21.9794  -46.1556 H         1 UNK         0.0600 
    193 H193       -3.4745  -21.4459  -47.8149 H         1 UNK         0.0600 
    194 H194       -4.5827  -22.7680  -47.4879 H         1 UNK         0.0600 
    195 H195       -1.7645  -23.9540  -44.9248 H         1 UNK         0.3000 
    196 H196       -3.3555  -26.2223  -44.3747 H         1 UNK         0.0600 
    197 H197       -1.7442  -26.5681  -42.5006 H         1 UNK         0.0600 
    198 H198       -2.2010  -24.8770  -42.6335 H         1 UNK         0.0600 
    199 H199       -0.6306  -25.4161  -43.2264 H         1 UNK         0.0600 
    200 H200       -0.4127  -25.9779  -46.2802 H         1 UNK         0.3000 
    201 H201       -0.2231  -28.9631  -46.5151 H         1 UNK         0.0600 
    202 H202        1.8409  -27.9116  -45.6299 H         1 UNK         0.0600 
    203 H203        1.8923  -26.7977  -46.9942 H         1 UNK         0.0600 
    204 H204        2.1125  -28.5252  -47.2540 H         1 UNK         0.0600 
    205 H205       -0.1802  -25.8456  -48.3075 H         1 UNK         0.3000 
    206 H206       -0.0505  -27.1068  -50.9020 H         1 UNK         0.0600 
    207 H207        1.0451  -24.9274  -50.3345 H         1 UNK         0.0600 
    208 H208       -0.0588  -24.7573  -51.6889 H         1 UNK         0.0600 
    209 H209       -0.5361  -24.1883  -50.0950 H         1 UNK         0.0600 
    210 H210       -2.6959  -26.5051  -48.8536 H         1 UNK         0.3000 
    211 H211       -4.8647  -26.7101  -48.9579 H         1 UNK         0.0600 
    212 H212       -4.6666  -27.5118  -51.9047 H         1 UNK         0.0600 
    213 H213       -6.0518  -27.7233  -50.8490 H         1 UNK         0.0600 
    214 H214       -4.5719  -28.6153  -50.5325 H         1 UNK         0.0600 
    215 H215       -3.5293  -24.8563  -51.6339 H         1 UNK         0.3000 
    216 H216       -3.9783  -22.9131  -52.6114 H         1 UNK         0.0600 
    217 H217       -4.9484  -21.0506  -51.3128 H         1 UNK         0.0600 
    218 H218       -3.8285  -21.9610  -50.3140 H         1 UNK         0.0600 
    219 H219       -5.5671  -22.1647  -50.1018 H         1 UNK         0.0600 
    220 H220       -5.5325  -25.0985  -53.3050 H         1 UNK         0.3000 
    221 H221       -8.2952  -24.7559  -53.4222 H         1 UNK         0.0600 
    222 H222       -6.4405  -26.3524  -55.2687 H         1 UNK         0.0600 
    223 H223       -7.1257  -26.9170  -53.7440 H         1 UNK         0.0600 
    224 H224       -8.1761  -26.5970  -55.1137 H         1 UNK         0.0600 
    225 H225       -5.9563  -23.1177  -55.3466 H         1 UNK         0.3000 
    226 H226       -7.5613  -22.4610  -57.6418 H         1 UNK         0.0600 
    227 H227       -5.7970  -20.7237  -57.9882 H         1 UNK         0.0600 
    228 H228       -5.1465  -21.0424  -56.3849 H         1 UNK         0.0600 
    229 H229       -5.0790  -22.2863  -57.6344 H         1 UNK         0.0600 
    230 H230       -7.5719  -21.3369  -54.3601 H         1 UNK         0.3000 
    231 H231       -8.7488  -19.9761  -53.1566 H         1 UNK         0.0600 
    232 H232      -10.7202  -20.8675  -54.3773 H         1 UNK         0.0600 
    233 H233      -10.5989  -19.5674  -55.5623 H         1 UNK         0.0600 
    234 H234      -10.9749  -19.1997  -53.8863 H         1 UNK         0.0600 
    235 H235       -7.9999  -18.5189  -56.2819 H         1 UNK         0.3000 
    236 H236       -8.2539  -15.7945  -55.6771 H         1 UNK         0.0600 
    237 H237       -6.7745  -15.4889  -57.6771 H         1 UNK         0.0600 
    238 H238       -6.3425  -17.1947  -57.6253 H         1 UNK         0.0600 
    239 H239       -8.0026  -16.7101  -57.9700 H         1 UNK         0.0600 
    240 H240       -5.7853  -17.9674  -54.6116 H         1 UNK         0.3000 
    241 H241       -3.7986  -16.0017  -53.8906 H         1 UNK         0.0600 
    242 H242       -6.5216  -16.0151  -50.8727 H         1 UNK         0.3800 
    243 H243       -6.9000  -16.7856  -52.3914 H         1 UNK         0.3800 
    244 H244       -4.0157  -18.7734  -52.6283 H         1 UNK         0.0800 
    245 H245       -3.5176  -18.5980  -54.2810 H         1 UNK         0.0800 
    246 H246       -2.5219  -17.7397  -50.5625 H         1 UNK         0.0800 
    247 H247       -2.1445  -19.3513  -51.1210 H         1 UNK         0.0800 
@<TRIPOS>BOND
     1    1    2 1    
     2    1  127 1    
     3    1  128 1    
     4    1  129 1    
     5    2    3 2    
     6    2    4 am   BACKBONE|DICT|INTERRES
     7    4    5 1    
     8    4  130 1    
     9    5    6 1    
    10    5   65 1    
    11    5  131 1    
    12    6    7 1    
    13    6  132 1    
    14    6  133 1    
    15    7    8 1    
    16    8    9 1    
    17    8  134 1    
    18    8  135 1    
    19    9   10 ar   
    20    9   14 ar   
    21   10   11 ar   
    22   10  136 1    
    23   11   12 ar   
    24   11  126 1    
    25   12   13 ar   
    26   12  137 1    
    27   13   14 ar   
    28   13   15 1    
    29   14  138 1    
    30   15   16 1    
    31   15  139 1    
    32   15  140 1    
    33   16   17 1    
    34   17   18 1    
    35   17  141 1    
    36   17  142 1    
    37   18   19 1    
    38   18   67 1    
    39   18  143 1    
    40   19   20 am   BACKBONE|DICT|INTERRES
    41   19  144 1    
    42   20   21 2    
    43   20   22 1    
    44   22   23 1    
    45   22   24 1    
    46   22  145 1    
    47   23  146 1    
    48   23  147 1    
    49   23  148 1    
    50   24   25 am   BACKBONE|DICT|INTERRES
    51   24  149 1    
    52   25   26 2    
    53   25   27 1    
    54   27   28 1    
    55   27   29 1    
    56   27  150 1    
    57   28  151 1    
    58   28  152 1    
    59   28  153 1    
    60   29   30 am   BACKBONE|DICT|INTERRES
    61   29  154 1    
    62   30   31 2    
    63   30   32 1    
    64   32   33 1    
    65   32   34 1    
    66   32  155 1    
    67   33  156 1    
    68   33  157 1    
    69   33  158 1    
    70   34   35 am   BACKBONE|DICT|INTERRES
    71   34  159 1    
    72   35   36 2    
    73   35   37 1    
    74   37   38 1    
    75   37   39 1    
    76   37  160 1    
    77   38  161 1    
    78   38  162 1    
    79   38  163 1    
    80   39   40 am   BACKBONE|DICT|INTERRES
    81   39  164 1    
    82   40   41 2    
    83   40   42 1    
    84   42   43 1    
    85   42   44 1    
    86   42  165 1    
    87   43  166 1    
    88   43  167 1    
    89   43  168 1    
    90   44   45 am   BACKBONE|DICT|INTERRES
    91   44  169 1    
    92   45   46 2    
    93   45   47 1    
    94   47   48 1    
    95   47   49 1    
    96   47  170 1    
    97   48  171 1    
    98   48  172 1    
    99   48  173 1    
   100   49   50 am   BACKBONE|DICT|INTERRES
   101   49  174 1    
   102   50   51 2    
   103   50   52 1    
   104   52   53 1    
   105   52   54 1    
   106   52  175 1    
   107   53  176 1    
   108   53  177 1    
   109   53  178 1    
   110   54   55 am   BACKBONE|DICT|INTERRES
   111   54  179 1    
   112   55   56 2    
   113   55   57 1    
   114   57   58 1    
   115   57   59 1    
   116   57  180 1    
   117   58  181 1    
   118   58  182 1    
   119   58  183 1    
   120   59   60 am   BACKBONE|DICT|INTERRES
   121   59  184 1    
   122   60   61 2    
   123   60   62 1    
   124   62   63 1    
   125   62   64 1    
   126   62  185 1    
   127   63  186 1    
   128   63  187 1    
   129   63  188 1    
   130   64   65 am   BACKBONE|DICT|INTERRES
   131   64  189 1    
   132   65   66 2    
   133   67   68 2    
   134   67   69 am   BACKBONE|DICT|INTERRES
   135   69   70 1    
   136   69  190 1    
   137   70   71 1    
   138   70   72 1    
   139   70  191 1    
   140   71  192 1    
   141   71  193 1    
   142   71  194 1    
   143   72   73 2    
   144   72   74 am   BACKBONE|DICT|INTERRES
   145   74   75 1    
   146   74  195 1    
   147   75   76 1    
   148   75   77 1    
   149   75  196 1    
   150   76  197 1    
   151   76  198 1    
   152   76  199 1    
   153   77   78 2    
   154   77   79 am   BACKBONE|DICT|INTERRES
   155   79   80 1    
   156   79  200 1    
   157   80   81 1    
   158   80   82 1    
   159   80  201 1    
   160   81  202 1    
   161   81  203 1    
   162   81  204 1    
   163   82   83 2    
   164   82   84 am   BACKBONE|DICT|INTERRES
   165   84   85 1    
   166   84  205 1    
   167   85   86 1    
   168   85   87 1    
   169   85  206 1    
   170   86  207 1    
   171   86  208 1    
   172   86  209 1    
   173   87   88 2    
   174   87   89 am   BACKBONE|DICT|INTERRES
   175   89   90 1    
   176   89  210 1    
   177   90   91 1    
   178   90   92 1    
   179   90  211 1    
   180   91  212 1    
   181   91  213 1    
   182   91  214 1    
   183   92   93 2    
   184   92   94 am   BACKBONE|DICT|INTERRES
   185   94   95 1    
   186   94  215 1    
   187   95   96 1    
   188   95   97 1    
   189   95  216 1    
   190   96  217 1    
   191   96  218 1    
   192   96  219 1    
   193   97   98 2    
   194   97   99 am   BACKBONE|DICT|INTERRES
   195   99  100 1    
   196   99  220 1    
   197  100  101 1    
   198  100  102 1    
   199  100  221 1    
   200  101  222 1    
   201  101  223 1    
   202  101  224 1    
   203  102  103 2    
   204  102  104 am   BACKBONE|DICT|INTERRES
   205  104  105 1    
   206  104  225 1    
   207  105  106 1    
   208  105  107 1    
   209  105  226 1    
   210  106  227 1    
   211  106  228 1    
   212  106  229 1    
   213  107  108 2    
   214  107  109 am   BACKBONE|DICT|INTERRES
   215  109  110 1    
   216  109  230 1    
   217  110  111 1    
   218  110  112 1    
   219  110  231 1    
   220  111  232 1    
   221  111  233 1    
   222  111  234 1    
   223  112  113 2    
   224  112  114 am   BACKBONE|DICT|INTERRES
   225  114  115 1    
   226  114  235 1    
   227  115  116 1    
   228  115  117 1    
   229  115  236 1    
   230  116  237 1    
   231  116  238 1    
   232  116  239 1    
   233  117  118 2    
   234  117  119 am   BACKBONE|DICT|INTERRES
   235  119  120 1    
   236  119  240 1    
   237  120  121 1    
   238  120  124 1    
   239  120  241 1    
   240  121  122 am   BACKBONE|DICT|INTERRES
   241  121  123 2    
   242  122  242 1    
   243  122  243 1    
   244  124  125 1    
   245  124  244 1    
   246  124  245 1    
   247  125  126 1    
   248  126  246 1    
   249  126  247 1    
@<TRIPOS>SUBSTRUCTURE
     1 UNK         1 GROUP             0       ****    0 ROOT    
