@<TRIPOS>MOLECULE
3R540
247   249    1
SMALL
USER_CHARGES


@<TRIPOS>ATOM
      1 CA         -1.5214  -17.0840  -48.6662 C.3       0 UNK        -0.1800 
      2 C          -1.3995  -15.5739  -48.7732 C.2       0 UNK         0.5000 
      3 O          -2.3430  -14.8519  -48.4541 O.2       0 UNK        -0.5000 
      4 N          -0.2221  -15.0984  -49.1971 N.am      1 UNK        -0.5000 
      5 CA          0.1393  -13.6781  -49.2852 C.3       1 UNK         0.1400 
      6 C6          1.3164  -13.4419  -50.2634 C.3       23 UNK        -0.0398 
      7 S7          2.8214  -14.4123  -49.8880 S.3       23 UNK        -0.2404 
      8 C8          2.9457  -15.4974  -51.3475 C.3       23 UNK        -0.0205 
      9 C9          2.0207  -16.7021  -51.2502 C.ar      23 UNK        -0.0193 
     10 C10         0.7899  -16.7185  -51.9154 C.ar      23 UNK        -0.1150 
     11 C11        -0.0471  -17.8367  -51.8309 C.ar      23 UNK        -0.0193 
     12 C12         0.3587  -18.9438  -51.0802 C.ar      23 UNK        -0.1150 
     13 C13         1.5913  -18.9437  -50.4215 C.ar      23 UNK        -0.0193 
     14 C14         2.4146  -17.8184  -50.5079 C.ar      23 UNK        -0.1150 
     15 C15         2.0521  -20.1632  -49.6372 C.3       23 UNK        -0.0205 
     16 S16         1.9084  -19.9138  -47.8408 S.3       23 UNK        -0.2404 
     17 C17         0.1114  -20.0901  -47.5915 C.3       23 UNK        -0.0398 
     18 CA         -0.2639  -21.4823  -47.0436 C.3       11 UNK         0.1400 
     19 N           0.1739  -21.6892  -45.6619 N.am      11 UNK        -0.5000 
     20 C           0.1182  -22.8598  -45.0129 C.2       10 UNK         0.5000 
     21 O          -0.3213  -23.8962  -45.5115 O.2       10 UNK        -0.5000 
     22 CA          0.5862  -22.8644  -43.5482 C.3       10 UNK         0.1400 
     23 CB          2.1171  -22.7780  -43.4582 C.3       10 UNK        -0.1800 
     24 N          -0.0213  -21.7859  -42.7692 N.am      10 UNK        -0.5000 
     25 C          -1.3332  -21.6887  -42.5086 C.2       9 UNK         0.5000 
     26 O          -2.1657  -22.5252  -42.8614 O.2       9 UNK        -0.5000 
     27 CA         -1.8001  -20.4308  -41.7528 C.3       9 UNK         0.1400 
     28 CB         -1.5486  -20.5748  -40.2444 C.3       9 UNK        -0.1800 
     29 N          -1.1691  -19.2023  -42.2358 N.am      9 UNK        -0.5000 
     30 C          -1.2989  -18.7140  -43.4781 C.2       8 UNK         0.5000 
     31 O          -1.9735  -19.2414  -44.3613 O.2       8 UNK        -0.5000 
     32 CA         -0.4905  -17.4469  -43.8038 C.3       8 UNK         0.1400 
     33 CB         -1.1357  -16.2168  -43.1443 C.3       8 UNK        -0.1800 
     34 N           0.9100  -17.5594  -43.3922 N.am      8 UNK        -0.5000 
     35 C           1.7557  -18.5167  -43.8039 C.2       7 UNK         0.5000 
     36 O           1.4561  -19.3954  -44.6081 O.2       7 UNK        -0.5000 
     37 CA          3.1494  -18.5404  -43.1578 C.3       7 UNK         0.1400 
     38 CB          4.0754  -17.4908  -43.7919 C.3       7 UNK        -0.1800 
     39 N           3.0754  -18.3433  -41.7108 N.am      7 UNK        -0.5000 
     40 C           2.5232  -19.2185  -40.8568 C.2       6 UNK         0.5000 
     41 O           2.0595  -20.3079  -41.1936 O.2       6 UNK        -0.5000 
     42 CA          2.4360  -18.7783  -39.3849 C.3       6 UNK         0.1400 
     43 CB          3.7571  -19.0604  -38.6541 C.3       6 UNK        -0.1800 
     44 N           2.0984  -17.3606  -39.2507 N.am      6 UNK        -0.5000 
     45 C           0.9163  -16.8303  -39.5952 C.2       5 UNK         0.5000 
     46 O          -0.0327  -17.4912  -40.0185 O.2       5 UNK        -0.5000 
     47 CA          0.8001  -15.2969  -39.4979 C.3       5 UNK         0.1400 
     48 CB          0.4296  -14.8703  -38.0697 C.3       5 UNK        -0.1800 
     49 N           2.0243  -14.6023  -39.9152 N.am      5 UNK        -0.5000 
     50 C           2.5121  -14.6347  -41.1613 C.2       4 UNK         0.5000 
     51 O           1.9785  -15.2596  -42.0833 O.2       4 UNK        -0.5000 
     52 CA          3.8247  -13.8820  -41.4236 C.3       4 UNK         0.1400 
     53 CB          5.0367  -14.6906  -40.9296 C.3       4 UNK        -0.1800 
     54 N           3.9165  -13.6793  -42.8619 N.am      4 UNK        -0.5000 
     55 C           4.5839  -12.7203  -43.5108 C.2       3 UNK         0.5000 
     56 O           5.3388  -11.9167  -42.9623 O.2       3 UNK        -0.5000 
     57 CA          4.3404  -12.6327  -45.0348 C.3       3 UNK         0.1400 
     58 CB          5.4510  -13.3684  -45.8000 C.3       3 UNK        -0.1800 
     59 N           3.0406  -13.1818  -45.4412 N.am      3 UNK        -0.5000 
     60 C           1.8545  -12.6608  -45.0963 C.2       2 UNK         0.5000 
     61 O           1.7249  -11.5860  -44.5071 O.2       2 UNK        -0.5000 
     62 CA          0.6250  -13.5205  -45.4408 C.3       2 UNK         0.1400 
     63 CB         -0.7032  -12.9151  -44.9405 C.3       2 UNK        -0.1800 
     64 N           0.5353  -13.8646  -46.8605 N.am      2 UNK        -0.5000 
     65 C           0.3881  -13.0299  -47.9016 C.2       1 UNK         0.5000 
     66 O           0.4091  -11.8018  -47.8091 O.2       1 UNK        -0.5000 
     67 C          -1.7690  -21.7413  -47.2229 C.2       11 UNK         0.5000 
     68 O          -2.1419  -22.3782  -48.2055 O.2       11 UNK        -0.5000 
     69 N          -2.6027  -21.3045  -46.2681 N.am      12 UNK        -0.5000 
     70 CA         -4.0490  -21.5413  -46.2671 C.3       12 UNK         0.1400 
     71 CB         -4.6947  -20.8067  -45.0835 C.3       12 UNK        -0.1800 
     72 C          -4.4341  -23.0343  -46.2558 C.2       12 UNK         0.5000 
     73 O          -5.4670  -23.3909  -46.8228 O.2       12 UNK        -0.5000 
     74 N          -3.5919  -23.8756  -45.6428 N.am      13 UNK        -0.5000 
     75 CA         -3.7315  -25.3280  -45.6562 C.3       13 UNK         0.1400 
     76 CB         -3.0853  -25.9109  -44.3890 C.3       13 UNK        -0.1800 
     77 C          -3.1190  -25.9526  -46.9238 C.2       13 UNK         0.5000 
     78 O          -3.7695  -26.7771  -47.5670 O.2       13 UNK        -0.5000 
     79 N          -1.8709  -25.5807  -47.2396 N.am      14 UNK        -0.5000 
     80 CA         -1.0549  -26.2331  -48.2650 C.3       14 UNK         0.1400 
     81 CB          0.4282  -25.9518  -47.9753 C.3       14 UNK        -0.1800 
     82 C          -1.3970  -25.8258  -49.7092 C.2       14 UNK         0.5000 
     83 O          -1.4096  -26.6872  -50.5898 O.2       14 UNK        -0.5000 
     84 N          -1.6205  -24.5270  -49.9342 N.am      15 UNK        -0.5000 
     85 CA         -1.7645  -23.9153  -51.2588 C.3       15 UNK         0.1400 
     86 CB         -0.6914  -22.8203  -51.3924 C.3       15 UNK        -0.1800 
     87 C          -3.1587  -23.3074  -51.4887 C.2       15 UNK         0.5000 
     88 O          -3.5588  -23.1661  -52.6446 O.2       15 UNK        -0.5000 
     89 N          -3.8426  -22.9621  -50.3879 N.am      16 UNK        -0.5000 
     90 CA         -5.0201  -22.1000  -50.2574 C.3       16 UNK         0.1400 
     91 CB         -6.1413  -22.4477  -51.2553 C.3       16 UNK        -0.1800 
     92 C          -4.6257  -20.6122  -50.3262 C.2       16 UNK         0.5000 
     93 O          -3.6167  -20.2538  -50.9363 O.2       16 UNK        -0.5000 
     94 N          -5.4285  -19.7605  -49.6736 N.am      17 UNK        -0.5000 
     95 CA         -5.2252  -18.3080  -49.6467 C.3       17 UNK         0.1400 
     96 CB         -6.0897  -17.6941  -48.5356 C.3       17 UNK        -0.1800 
     97 C          -5.5207  -17.6452  -51.0062 C.2       17 UNK         0.5000 
     98 O          -4.8545  -16.6806  -51.3815 O.2       17 UNK        -0.5000 
     99 N          -6.4999  -18.2035  -51.7209 N.am      18 UNK        -0.5000 
    100 CA        -6.8867  -17.8810  -53.0850 C.3       18 UNK         0.1400 
    101 CB        -7.8553  -16.6865  -53.0948 C.3       18 UNK        -0.1800 
    102 C         -7.5381  -19.1423  -53.6664 C.2       18 UNK         0.5000 
    103 O         -8.0701  -19.9533  -52.9011 O.2       18 UNK        -0.5000 
    104 N         -7.4711  -19.2838  -54.9959 N.am      19 UNK        -0.5000 
    105 CA        -7.7950  -20.4907  -55.7679 C.3       19 UNK         0.1400 
    106 CB        -9.2632  -20.9259  -55.5649 C.3       19 UNK        -0.1800 
    107 C         -6.7842  -21.6289  -55.5020 C.2       19 UNK         0.5000 
    108 O         -5.7728  -21.4104  -54.8306 O.2       19 UNK        -0.5000 
    109 N         -7.0389  -22.8096  -56.0843 N.am      20 UNK        -0.5000 
    110 CA        -6.1634  -23.9876  -56.0821 C.3       20 UNK         0.1400 
    111 CB        -6.0957  -24.6244  -54.6768 C.3       20 UNK        -0.1800 
    112 C         -4.7880  -23.6590  -56.7025 C.2       20 UNK         0.5000 
    113 O         -4.7213  -23.4565  -57.9164 O.2       20 UNK        -0.5000 
    114 N         -3.7304  -23.5771  -55.8830 N.am      21 UNK        -0.5000 
    115 CA        -2.3886  -23.1799  -56.3194 C.3       21 UNK         0.1400 
    116 CB        -1.3573  -23.6899  -55.3025 C.3       21 UNK        -0.1800 
    117 C         -2.2436  -21.6568  -56.5249 C.2       21 UNK         0.5000 
    118 O         -1.3138  -21.2311  -57.2114 O.2       21 UNK        -0.5000 
    119 N         -3.1587  -20.8721  -55.9451 N.am      22 UNK        -0.5000 
    120 CA        -3.2219  -19.4046  -56.0106 C.3       22 UNK         0.1400 
    121 C         -4.5016  -18.9288  -56.7581 C.2       22 UNK         0.5000 
    122 N         -4.9365  -19.6251  -57.8020 N.am      22 UNK        -0.7600 
    123 O         -5.1250  -17.9339  -56.3949 O.2       22 UNK        -0.5000 
    124 C124       -3.0627  -18.7739  -54.6006 C.3       23 UNK        -0.0398 
    125 S125       -1.3794  -19.0170  -53.9426 S.3       23 UNK        -0.2404 
    126 C126       -1.3919  -17.8568  -52.5429 C.3       23 UNK        -0.0205 
    127 H127       -0.5359  -17.5402  -48.5885 H         1 UNK         0.0600 
    128 H128       -2.0125  -17.4844  -49.5506 H         1 UNK         0.0600 
    129 H129       -2.0994  -17.3656  -47.7857 H         1 UNK         0.0600 
    130 H130        0.5079  -15.7430  -49.4710 H         1 UNK         0.3000 
    131 H131       -0.7228  -13.1532  -49.7025 H         1 UNK         0.0600 
    132 H132        0.9843  -13.6707  -51.2763 H         1 UNK         0.0800 
    133 H133        1.5880  -12.3850  -50.2873 H         1 UNK         0.0800 
    134 H134        2.7492  -14.9283  -52.2574 H         1 UNK         0.0800 
    135 H135        3.9764  -15.8451  -51.4322 H         1 UNK         0.0800 
    136 H136        0.4834  -15.8614  -52.4983 H         1 UNK         0.1150 
    137 H137       -0.2878  -19.8077  -51.0232 H         1 UNK         0.1150 
    138 H138        3.3681  -17.8141  -49.9981 H         1 UNK         0.1150 
    139 H139        1.4926  -21.0523  -49.9314 H         1 UNK         0.0800 
    140 H140        3.0957  -20.3691  -49.8789 H         1 UNK         0.0800 
    141 H141       -0.2225  -19.3100  -46.9052 H         1 UNK         0.0800 
    142 H142       -0.3943  -19.9009  -48.5390 H         1 UNK         0.0800 
    143 H143        0.2486  -22.2290  -47.6544 H         1 UNK         0.0600 
    144 H144        0.5736  -20.8778  -45.1925 H         1 UNK         0.3000 
    145 H145        0.2759  -23.8129  -43.1047 H         1 UNK         0.0600 
    146 H146        2.4556  -22.8665  -42.4257 H         1 UNK         0.0600 
    147 H147        2.5876  -23.5820  -44.0254 H         1 UNK         0.0600 
    148 H148        2.4935  -21.8337  -43.8522 H         1 UNK         0.0600 
    149 H149        0.6063  -21.0728  -42.4123 H         1 UNK         0.3000 
    150 H150       -2.8762  -20.3324  -41.9101 H         1 UNK         0.0600 
    151 H151       -2.0253  -21.4740  -39.8523 H         1 UNK         0.0600 
    152 H152       -1.9540  -19.7249  -39.6950 H         1 UNK         0.0600 
    153 H153       -0.4839  -20.6404  -40.0181 H         1 UNK         0.0600 
    154 H154       -0.6084  -18.6853  -41.5659 H         1 UNK         0.3000 
    155 H155       -0.5023  -17.3039  -44.8863 H         1 UNK         0.0600 
    156 H156       -0.5374  -15.3201  -43.2868 H         1 UNK         0.0600 
    157 H157       -1.2641  -16.3501  -42.0706 H         1 UNK         0.0600 
    158 H158       -2.1218  -16.0237  -43.5680 H         1 UNK         0.0600 
    159 H159        1.2531  -16.8498  -42.7502 H         1 UNK         0.3000 
    160 H160        3.5845  -19.5253  -43.3404 H         1 UNK         0.0600 
    161 H161        3.6955  -16.4786  -43.6642 H         1 UNK         0.0600 
    162 H162        4.1795  -17.6654  -44.8636 H         1 UNK         0.0600 
    163 H163        5.0746  -17.5319  -43.3583 H         1 UNK         0.0600 
    164 H164        3.3926  -17.4557  -41.3543 H         1 UNK         0.3000 
    165 H165        1.6479  -19.3645  -38.9071 H         1 UNK         0.0600 
    166 H166        4.5825  -18.4827  -39.0722 H         1 UNK         0.0600 
    167 H167        3.6804  -18.8180  -37.5941 H         1 UNK         0.0600 
    168 H168        4.0246  -20.1154  -38.7267 H         1 UNK         0.0600 
    169 H169        2.8218  -16.7466  -38.9073 H         1 UNK         0.3000 
    170 H170       -0.0067  -14.9861  -40.1652 H         1 UNK         0.0600 
    171 H171       -0.4879  -15.3610  -37.7419 H         1 UNK         0.0600 
    172 H172        1.2126  -15.1267  -37.3550 H         1 UNK         0.0600 
    173 H173        0.2599  -13.7951  -38.0111 H         1 UNK         0.0600 
    174 H174        2.5104  -14.0725  -39.2058 H         1 UNK         0.3000 
    175 H175        3.7840  -12.9148  -40.9185 H         1 UNK         0.0600 
    176 H176        5.1005  -15.6622  -41.4206 H         1 UNK         0.0600 
    177 H177        5.9690  -14.1596  -41.1226 H         1 UNK         0.0600 
    178 H178        4.9821  -14.8661  -39.8547 H         1 UNK         0.0600 
    179 H179        3.2796  -14.2671  -43.3838 H         1 UNK         0.3000 
    180 H180        4.3679  -11.5777  -45.3153 H         1 UNK         0.0600 
    181 H181        5.3248  -13.2625  -46.8778 H         1 UNK         0.0600 
    182 H182        6.4324  -12.9650  -45.5472 H         1 UNK         0.0600 
    183 H183        5.4637  -14.4337  -45.5656 H         1 UNK         0.0600 
    184 H184        3.0586  -14.0477  -45.9600 H         1 UNK         0.3000 
    185 H185        0.7727  -14.4649  -44.9168 H         1 UNK         0.0600 
    186 H186       -0.6790  -12.7600  -43.8612 H         1 UNK         0.0600 
    187 H187       -0.9117  -11.9507  -45.4046 H         1 UNK         0.0600 
    188 H188       -1.5423  -13.5775  -45.1540 H         1 UNK         0.0600 
    189 H189        0.5197  -14.8518  -47.0705 H         1 UNK         0.3000 
    190 H190       -2.2361  -20.7472  -45.4998 H         1 UNK         0.3000 
    191 H191       -4.4491  -21.1101  -47.1860 H         1 UNK         0.0600 
    192 H192       -5.7714  -20.9782  -45.0544 H         1 UNK         0.0600 
    193 H193       -4.5415  -19.7301  -45.1582 H         1 UNK         0.0600 
    194 H194       -4.2814  -21.1400  -44.1311 H         1 UNK         0.0600 
    195 H195       -2.7655  -23.4986  -45.1971 H         1 UNK         0.3000 
    196 H196       -4.7922  -25.5875  -45.6336 H         1 UNK         0.0600 
    197 H197       -3.1838  -26.9969  -44.3647 H         1 UNK         0.0600 
    198 H198       -3.5628  -25.5201  -43.4903 H         1 UNK         0.0600 
    199 H199       -2.0222  -25.6759  -44.3279 H         1 UNK         0.0600 
    200 H200       -1.3924  -24.9089  -46.6435 H         1 UNK         0.3000 
    201 H201       -1.2067  -27.3118  -48.1848 H         1 UNK         0.0600 
    202 H202        0.7120  -26.3136  -46.9868 H         1 UNK         0.0600 
    203 H203        0.6513  -24.8849  -48.0162 H         1 UNK         0.0600 
    204 H204        1.0715  -26.4506  -48.7014 H         1 UNK         0.0600 
    205 H205       -1.6414  -23.8870  -49.1451 H         1 UNK         0.3000 
    206 H206       -1.6001  -24.6520  -52.0477 H         1 UNK         0.0600 
    207 H207        0.3118  -23.2447  -51.3567 H         1 UNK         0.0600 
    208 H208       -0.7845  -22.2782  -52.3338 H         1 UNK         0.0600 
    209 H209       -0.7737  -22.0863  -50.5906 H         1 UNK         0.0600 
    210 H210       -3.3329  -23.0676  -49.5171 H         1 UNK         0.3000 
    211 H211       -5.4040  -22.2907  -49.2557 H         1 UNK         0.0600 
    212 H212       -5.9004  -22.1166  -52.2651 H         1 UNK         0.0600 
    213 H213       -7.0745  -21.9576  -50.9767 H         1 UNK         0.0600 
    214 H214       -6.3318  -23.5204  -51.2857 H         1 UNK         0.0600 
    215 H215       -6.2423  -20.1136  -49.1912 H         1 UNK         0.3000 
    216 H216       -4.1809  -18.1155  -49.4020 H         1 UNK         0.0600 
    217 H217       -5.9359  -16.6158  -48.4753 H         1 UNK         0.0600 
    218 H218       -5.8349  -18.1123  -47.5614 H         1 UNK         0.0600 
    219 H219       -7.1527  -17.8655  -48.7092 H         1 UNK         0.0600 
    220 H220       -6.9677  -19.0265  -51.3609 H         1 UNK         0.3000 
    221 H221       -5.9942  -17.6418  -53.6674 H         1 UNK         0.0600 
    222 H222       -8.7583  -16.8979  -52.5207 H         1 UNK         0.0600 
    223 H223       -7.3897  -15.7962  -52.6719 H         1 UNK         0.0600 
    224 H224       -8.1609  -16.4412  -54.1126 H         1 UNK         0.0600 
    225 H225       -6.9515  -18.5834  -55.5137 H         1 UNK         0.3000 
    226 H226       -7.6754  -20.2106  -56.8150 H         1 UNK         0.0600 
    227 H227       -9.9405  -20.0749  -55.6376 H         1 UNK         0.0600 
    228 H228       -9.5704  -21.6434  -56.3259 H         1 UNK         0.0600 
    229 H229       -9.4203  -21.3973  -54.5944 H         1 UNK         0.0600 
    230 H230       -7.8702  -22.8926  -56.6519 H         1 UNK         0.3000 
    231 H231       -6.6258  -24.7194  -56.7460 H         1 UNK         0.0600 
    232 H232       -5.4479  -25.5018  -54.6722 H         1 UNK         0.0600 
    233 H233       -7.0832  -24.9518  -54.3523 H         1 UNK         0.0600 
    234 H234       -5.7206  -23.9319  -53.9251 H         1 UNK         0.0600 
    235 H235       -3.8724  -23.6703  -54.8835 H         1 UNK         0.3000 
    236 H236       -2.1771  -23.6606  -57.2770 H         1 UNK         0.0600 
    237 H237       -1.4375  -24.7676  -55.1599 H         1 UNK         0.0600 
    238 H238       -0.3410  -23.4788  -55.6372 H         1 UNK         0.0600 
    239 H239       -1.4873  -23.2106  -54.3341 H         1 UNK         0.0600 
    240 H240       -3.9264  -21.3045  -55.4373 H         1 UNK         0.3000 
    241 H241       -2.4020  -19.0277  -56.6239 H         1 UNK         0.0600 
    242 H242       -4.4457  -20.4510  -58.1081 H         1 UNK         0.3800 
    243 H243       -5.7443  -19.3053  -58.3116 H         1 UNK         0.3800 
    244 H244       -3.2520  -17.6997  -54.6326 H         1 UNK         0.0800 
    245 H245       -3.7866  -19.1982  -53.9019 H         1 UNK         0.0800 
    246 H246       -2.1739  -18.1512  -51.8420 H         1 UNK         0.0800 
    247 H247       -1.6534  -16.8589  -52.8982 H         1 UNK         0.0800 
@<TRIPOS>BOND
     1    1    2 1    
     2    1  127 1    
     3    1  128 1    
     4    1  129 1    
     5    2    3 2    
     6    2    4 am   BACKBONE|DICT|INTERRES
     7    4    5 1    
     8    4  130 1    
     9    5    6 1    
    10    5   65 1    
    11    5  131 1    
    12    6    7 1    
    13    6  132 1    
    14    6  133 1    
    15    7    8 1    
    16    8    9 1    
    17    8  134 1    
    18    8  135 1    
    19    9   10 ar   
    20    9   14 ar   
    21   10   11 ar   
    22   10  136 1    
    23   11   12 ar   
    24   11  126 1    
    25   12   13 ar   
    26   12  137 1    
    27   13   14 ar   
    28   13   15 1    
    29   14  138 1    
    30   15   16 1    
    31   15  139 1    
    32   15  140 1    
    33   16   17 1    
    34   17   18 1    
    35   17  141 1    
    36   17  142 1    
    37   18   19 1    
    38   18   67 1    
    39   18  143 1    
    40   19   20 am   BACKBONE|DICT|INTERRES
    41   19  144 1    
    42   20   21 2    
    43   20   22 1    
    44   22   23 1    
    45   22   24 1    
    46   22  145 1    
    47   23  146 1    
    48   23  147 1    
    49   23  148 1    
    50   24   25 am   BACKBONE|DICT|INTERRES
    51   24  149 1    
    52   25   26 2    
    53   25   27 1    
    54   27   28 1    
    55   27   29 1    
    56   27  150 1    
    57   28  151 1    
    58   28  152 1    
    59   28  153 1    
    60   29   30 am   BACKBONE|DICT|INTERRES
    61   29  154 1    
    62   30   31 2    
    63   30   32 1    
    64   32   33 1    
    65   32   34 1    
    66   32  155 1    
    67   33  156 1    
    68   33  157 1    
    69   33  158 1    
    70   34   35 am   BACKBONE|DICT|INTERRES
    71   34  159 1    
    72   35   36 2    
    73   35   37 1    
    74   37   38 1    
    75   37   39 1    
    76   37  160 1    
    77   38  161 1    
    78   38  162 1    
    79   38  163 1    
    80   39   40 am   BACKBONE|DICT|INTERRES
    81   39  164 1    
    82   40   41 2    
    83   40   42 1    
    84   42   43 1    
    85   42   44 1    
    86   42  165 1    
    87   43  166 1    
    88   43  167 1    
    89   43  168 1    
    90   44   45 am   BACKBONE|DICT|INTERRES
    91   44  169 1    
    92   45   46 2    
    93   45   47 1    
    94   47   48 1    
    95   47   49 1    
    96   47  170 1    
    97   48  171 1    
    98   48  172 1    
    99   48  173 1    
   100   49   50 am   BACKBONE|DICT|INTERRES
   101   49  174 1    
   102   50   51 2    
   103   50   52 1    
   104   52   53 1    
   105   52   54 1    
   106   52  175 1    
   107   53  176 1    
   108   53  177 1    
   109   53  178 1    
   110   54   55 am   BACKBONE|DICT|INTERRES
   111   54  179 1    
   112   55   56 2    
   113   55   57 1    
   114   57   58 1    
   115   57   59 1    
   116   57  180 1    
   117   58  181 1    
   118   58  182 1    
   119   58  183 1    
   120   59   60 am   BACKBONE|DICT|INTERRES
   121   59  184 1    
   122   60   61 2    
   123   60   62 1    
   124   62   63 1    
   125   62   64 1    
   126   62  185 1    
   127   63  186 1    
   128   63  187 1    
   129   63  188 1    
   130   64   65 am   BACKBONE|DICT|INTERRES
   131   64  189 1    
   132   65   66 2    
   133   67   68 2    
   134   67   69 am   BACKBONE|DICT|INTERRES
   135   69   70 1    
   136   69  190 1    
   137   70   71 1    
   138   70   72 1    
   139   70  191 1    
   140   71  192 1    
   141   71  193 1    
   142   71  194 1    
   143   72   73 2    
   144   72   74 am   BACKBONE|DICT|INTERRES
   145   74   75 1    
   146   74  195 1    
   147   75   76 1    
   148   75   77 1    
   149   75  196 1    
   150   76  197 1    
   151   76  198 1    
   152   76  199 1    
   153   77   78 2    
   154   77   79 am   BACKBONE|DICT|INTERRES
   155   79   80 1    
   156   79  200 1    
   157   80   81 1    
   158   80   82 1    
   159   80  201 1    
   160   81  202 1    
   161   81  203 1    
   162   81  204 1    
   163   82   83 2    
   164   82   84 am   BACKBONE|DICT|INTERRES
   165   84   85 1    
   166   84  205 1    
   167   85   86 1    
   168   85   87 1    
   169   85  206 1    
   170   86  207 1    
   171   86  208 1    
   172   86  209 1    
   173   87   88 2    
   174   87   89 am   BACKBONE|DICT|INTERRES
   175   89   90 1    
   176   89  210 1    
   177   90   91 1    
   178   90   92 1    
   179   90  211 1    
   180   91  212 1    
   181   91  213 1    
   182   91  214 1    
   183   92   93 2    
   184   92   94 am   BACKBONE|DICT|INTERRES
   185   94   95 1    
   186   94  215 1    
   187   95   96 1    
   188   95   97 1    
   189   95  216 1    
   190   96  217 1    
   191   96  218 1    
   192   96  219 1    
   193   97   98 2    
   194   97   99 am   BACKBONE|DICT|INTERRES
   195   99  100 1    
   196   99  220 1    
   197  100  101 1    
   198  100  102 1    
   199  100  221 1    
   200  101  222 1    
   201  101  223 1    
   202  101  224 1    
   203  102  103 2    
   204  102  104 am   BACKBONE|DICT|INTERRES
   205  104  105 1    
   206  104  225 1    
   207  105  106 1    
   208  105  107 1    
   209  105  226 1    
   210  106  227 1    
   211  106  228 1    
   212  106  229 1    
   213  107  108 2    
   214  107  109 am   BACKBONE|DICT|INTERRES
   215  109  110 1    
   216  109  230 1    
   217  110  111 1    
   218  110  112 1    
   219  110  231 1    
   220  111  232 1    
   221  111  233 1    
   222  111  234 1    
   223  112  113 2    
   224  112  114 am   BACKBONE|DICT|INTERRES
   225  114  115 1    
   226  114  235 1    
   227  115  116 1    
   228  115  117 1    
   229  115  236 1    
   230  116  237 1    
   231  116  238 1    
   232  116  239 1    
   233  117  118 2    
   234  117  119 am   BACKBONE|DICT|INTERRES
   235  119  120 1    
   236  119  240 1    
   237  120  121 1    
   238  120  124 1    
   239  120  241 1    
   240  121  122 am   BACKBONE|DICT|INTERRES
   241  121  123 2    
   242  122  242 1    
   243  122  243 1    
   244  124  125 1    
   245  124  244 1    
   246  124  245 1    
   247  125  126 1    
   248  126  246 1    
   249  126  247 1    
@<TRIPOS>SUBSTRUCTURE
     1 UNK         1 GROUP             0       ****    0 ROOT    
