@<TRIPOS>MOLECULE
3R540
247   249    1
SMALL
USER_CHARGES


@<TRIPOS>ATOM
      1 CA         -0.7989  -17.4083  -42.0615 C.3       0 UNK        -0.1800 
      2 C          -1.2607  -15.9639  -41.9412 C.2       0 UNK         0.5000 
      3 O          -1.1926  -15.3845  -40.8569 O.2       0 UNK        -0.5000 
      4 N          -1.7522  -15.3905  -43.0451 N.am      1 UNK        -0.5000 
      5 CA         -2.1953  -13.9998  -43.1370 C.3       1 UNK         0.1400 
      6 C6         -3.2706  -13.8008  -44.2378 C.3       23 UNK        -0.0398 
      7 S7         -2.7610  -14.2425  -45.9400 S.3       23 UNK        -0.2404 
      8 C8         -3.3664  -15.9550  -46.0451 C.3       23 UNK        -0.0205 
      9 C9         -3.1924  -16.5385  -47.4373 C.ar      23 UNK        -0.0193 
     10 C10        -4.3079  -16.8037  -48.2350 C.ar      23 UNK        -0.1150 
     11 C11        -4.1591  -17.3692  -49.5049 C.ar      23 UNK        -0.0193 
     12 C12        -2.8742  -17.6362  -49.9899 C.ar      23 UNK        -0.1150 
     13 C13        -1.7476  -17.3655  -49.2040 C.ar      23 UNK        -0.0193 
     14 C14        -1.9167  -16.8343  -47.9222 C.ar      23 UNK        -0.1150 
     15 C15        -0.3443  -17.5985  -49.7481 C.3       23 UNK        -0.0205 
     16 S16         0.0959  -19.3589  -49.8810 S.3       23 UNK        -0.2404 
     17 C17         0.0556  -19.9205  -48.1524 C.3       23 UNK        -0.0398 
     18 CA         -0.9166  -21.1089  -47.9504 C.3       11 UNK         0.1400 
     19 N          -0.4431  -22.0271  -46.9158 N.am      11 UNK        -0.5000 
     20 C          -0.9399  -23.2471  -46.6703 C.2       10 UNK         0.5000 
     21 O          -1.8352  -23.7733  -47.3341 O.2       10 UNK        -0.5000 
     22 CA         -0.3535  -23.9803  -45.4497 C.3       10 UNK         0.1400 
     23 CB          0.8941  -24.7789  -45.8536 C.3       10 UNK        -0.1800 
     24 N          -0.0136  -23.0622  -44.3578 N.am      10 UNK        -0.5000 
     25 C          -0.9204  -22.3780  -43.6451 C.2       9 UNK         0.5000 
     26 O          -2.1342  -22.4909  -43.8043 O.2       9 UNK        -0.5000 
     27 CA         -0.3850  -21.3583  -42.6249 C.3       9 UNK         0.1400 
     28 CB         -0.0555  -22.0413  -41.2901 C.3       9 UNK        -0.1800 
     29 N           0.7904  -20.6237  -43.0958 N.am      9 UNK        -0.5000 
     30 C           0.8240  -19.8026  -44.1525 C.2       8 UNK         0.5000 
     31 O          -0.1426  -19.6362  -44.8991 O.2       8 UNK        -0.5000 
     32 CA          2.1462  -19.0449  -44.4164 C.3       8 UNK         0.1400 
     33 CB          1.9514  -17.8572  -45.3778 C.3       8 UNK        -0.1800 
     34 N           2.8075  -18.5645  -43.1951 N.am      8 UNK        -0.5000 
     35 C           3.5303  -19.3200  -42.3523 C.2       7 UNK         0.5000 
     36 O           3.6259  -20.5422  -42.4710 O.2       7 UNK        -0.5000 
     37 CA          4.2763  -18.6295  -41.1916 C.3       7 UNK         0.1400 
     38 CB          5.7948  -18.6961  -41.4212 C.3       7 UNK        -0.1800 
     39 N           3.9013  -17.2297  -41.0058 N.am      7 UNK        -0.5000 
     40 C           2.8406  -16.7965  -40.3121 C.2       6 UNK         0.5000 
     41 O           2.0764  -17.5408  -39.6979 O.2       6 UNK        -0.5000 
     42 CA          2.5841  -15.2729  -40.3214 C.3       6 UNK         0.1400 
     43 CB          3.1081  -14.6306  -39.0281 C.3       6 UNK        -0.1800 
     44 N           3.1718  -14.5751  -41.4735 N.am      6 UNK        -0.5000 
     45 C           2.8219  -14.8015  -42.7454 C.2       5 UNK         0.5000 
     46 O           1.9821  -15.6410  -43.0747 O.2       5 UNK        -0.5000 
     47 CA          3.5831  -14.0299  -43.8303 C.3       5 UNK         0.1400 
     48 CB          4.8676  -14.8013  -44.1992 C.3       5 UNK        -0.1800 
     49 N           2.6854  -13.9005  -44.9723 N.am      5 UNK        -0.5000 
     50 C           2.9208  -13.3240  -46.1545 C.2       4 UNK         0.5000 
     51 O           3.9811  -12.7798  -46.4646 O.2       4 UNK        -0.5000 
     52 CA          1.7491  -13.3254  -47.1474 C.3       4 UNK         0.1400 
     53 CB          1.0756  -14.7052  -47.2633 C.3       4 UNK        -0.1800 
     54 N           0.7640  -12.3466  -46.7038 N.am      4 UNK        -0.5000 
     55 C           0.5880  -11.1324  -47.2418 C.2       3 UNK         0.5000 
     56 O           1.1811  -10.7339  -48.2452 O.2       3 UNK        -0.5000 
     57 CA         -0.4157  -10.1917  -46.5424 C.3       3 UNK         0.1400 
     58 CB         -1.7868  -10.2629  -47.2322 C.3       3 UNK        -0.1800 
     59 N          -0.5887  -10.4835  -45.1190 N.am      3 UNK        -0.5000 
     60 C           0.3520  -10.3257  -44.1770 C.2       2 UNK         0.5000 
     61 O           1.4481   -9.8057  -44.3870 O.2       2 UNK        -0.5000 
     62 CA          0.0262  -10.8622  -42.7671 C.3       2 UNK         0.1400 
     63 CB         -0.3538   -9.7079  -41.8272 C.3       2 UNK        -0.1800 
     64 N          -1.0363  -11.8753  -42.7292 N.am      2 UNK        -0.5000 
     65 C          -0.9816  -13.0717  -43.3304 C.2       1 UNK         0.5000 
     66 O          -0.0450  -13.4298  -44.0475 O.2       1 UNK        -0.5000 
     67 C          -2.3561  -20.6513  -47.6608 C.2       11 UNK         0.5000 
     68 O          -3.2104  -20.7547  -48.5404 O.2       11 UNK        -0.5000 
     69 N          -2.5921  -20.2346  -46.4079 N.am      12 UNK        -0.5000 
     70 CA         -3.8998  -19.8599  -45.8731 C.3       12 UNK         0.1400 
     71 CB         -3.7211  -19.3260  -44.4421 C.3       12 UNK        -0.1800 
     72 C          -4.9098  -21.0210  -45.8836 C.2       12 UNK         0.5000 
     73 O          -6.0896  -20.7947  -46.1527 O.2       12 UNK        -0.5000 
     74 N          -4.4301  -22.2365  -45.5830 N.am      13 UNK        -0.5000 
     75 CA         -5.2229  -23.4625  -45.5806 C.3       13 UNK         0.1400 
     76 CB         -4.4280  -24.6040  -44.9283 C.3       13 UNK        -0.1800 
     77 C          -5.7036  -23.8645  -46.9843 C.2       13 UNK         0.5000 
     78 O          -6.8781  -24.2068  -47.1295 O.2       13 UNK        -0.5000 
     79 N          -4.8094  -23.8117  -47.9838 N.am      14 UNK        -0.5000 
     80 CA         -5.1384  -24.1529  -49.3687 C.3       14 UNK         0.1400 
     81 CB         -5.3944  -25.6677  -49.5191 C.3       14 UNK        -0.1800 
     82 C          -4.0794  -23.7287  -50.3948 C.2       14 UNK         0.5000 
     83 O          -4.4595  -23.3592  -51.5065 O.2       14 UNK        -0.5000 
     84 N          -2.7901  -23.8751  -50.0498 N.am      15 UNK        -0.5000 
     85 CA         -1.7048  -24.0973  -51.0119 C.3       15 UNK         0.1400 
     86 CB         -0.3808  -24.3617  -50.2781 C.3       15 UNK        -0.1800 
     87 C          -1.5173  -23.0362  -52.1081 C.2       15 UNK         0.5000 
     88 O          -1.2013  -23.4208  -53.2325 O.2       15 UNK        -0.5000 
     89 N          -1.7121  -21.7479  -51.7886 N.am      16 UNK        -0.5000 
     90 CA         -1.6426  -20.6009  -52.7113 C.3       16 UNK         0.1400 
     91 CB         -2.9179  -20.5457  -53.5684 C.3       16 UNK        -0.1800 
     92 C          -0.3630  -20.5628  -53.5794 C.2       16 UNK         0.5000 
     93 O          -0.4491  -20.3958  -54.7961 O.2       16 UNK        -0.5000 
     94 N           0.7977  -20.7873  -52.9464 N.am      17 UNK        -0.5000 
     95 CA          2.1207  -20.9151  -53.5754 C.3       17 UNK         0.1400 
     96 CB          2.5837  -19.5636  -54.1590 C.3       17 UNK        -0.1800 
     97 C           2.1922  -22.0771  -54.5954 C.2       17 UNK         0.5000 
     98 O           2.7974  -21.9391  -55.6593 O.2       17 UNK        -0.5000 
     99 N           1.5551  -23.1988  -54.2304 N.am      18 UNK        -0.5000 
    100 CA         1.4124  -24.4626  -54.9625 C.3       18 UNK         0.1400 
    101 CB         2.7771  -25.0390  -55.3957 C.3       18 UNK        -0.1800 
    102 C          0.3831  -24.4285  -56.1129 C.2       18 UNK         0.5000 
    103 O          0.3100  -25.3928  -56.8767 O.2       18 UNK        -0.5000 
    104 N         -0.4245  -23.3621  -56.2073 N.am      19 UNK        -0.5000 
    105 CA        -1.5424  -23.2648  -57.1508 C.3       19 UNK         0.1400 
    106 CB        -1.8410  -21.7849  -57.4365 C.3       19 UNK        -0.1800 
    107 C         -2.8166  -23.9764  -56.6501 C.2       19 UNK         0.5000 
    108 O         -3.6859  -24.2834  -57.4658 O.2       19 UNK        -0.5000 
    109 N         -2.9218  -24.1951  -55.3283 N.am      20 UNK        -0.5000 
    110 CA        -4.0511  -24.7865  -54.5912 C.3       20 UNK         0.1400 
    111 CB        -4.2904  -26.2471  -55.0237 C.3       20 UNK        -0.1800 
    112 C         -5.3456  -23.9394  -54.6264 C.2       20 UNK         0.5000 
    113 O         -6.4230  -24.4395  -54.2982 O.2       20 UNK        -0.5000 
    114 N         -5.2193  -22.6668  -55.0216 N.am      21 UNK        -0.5000 
    115 CA        -6.3156  -21.7346  -55.2738 C.3       21 UNK         0.1400 
    116 CB        -5.7762  -20.5667  -56.1153 C.3       21 UNK        -0.1800 
    117 C         -7.0243  -21.2089  -54.0109 C.2       21 UNK         0.5000 
    118 O         -8.1326  -20.6861  -54.1383 O.2       21 UNK        -0.5000 
    119 N         -6.4004  -21.3373  -52.8300 N.am      22 UNK        -0.5000 
    120 CA        -6.9955  -20.9233  -51.5462 C.3       22 UNK         0.1400 
    121 C         -7.9801  -21.9719  -50.9447 C.2       22 UNK         0.5000 
    122 N         -8.0965  -23.1737  -51.5009 N.am      22 UNK        -0.7600 
    123 O         -8.6666  -21.6878  -49.9682 O.2       22 UNK        -0.5000 
    124 C124       -5.9227  -20.4485  -50.5198 C.3       23 UNK        -0.0398 
    125 S125       -6.4483  -18.9465  -49.6235 S.3       23 UNK        -0.2404 
    126 C126       -5.3927  -17.6495  -50.3536 C.3       23 UNK        -0.0205 
    127 H127        0.2807  -17.4716  -41.9329 H         1 UNK         0.0600 
    128 H128       -1.0515  -17.8258  -43.0349 H         1 UNK         0.0600 
    129 H129       -1.2709  -18.0236  -41.2958 H         1 UNK         0.0600 
    130 H130       -1.7011  -15.8818  -43.9239 H         1 UNK         0.3000 
    131 H131       -2.6640  -13.7338  -42.1868 H         1 UNK         0.0600 
    132 H132       -4.1619  -14.3723  -43.9760 H         1 UNK         0.0800 
    133 H133       -3.5987  -12.7601  -44.2511 H         1 UNK         0.0800 
    134 H134       -2.8151  -16.5696  -45.3374 H         1 UNK         0.0800 
    135 H135       -4.4145  -15.9927  -45.7442 H         1 UNK         0.0800 
    136 H136       -5.2993  -16.5839  -47.8644 H         1 UNK         0.1150 
    137 H137       -2.7506  -18.0457  -50.9809 H         1 UNK         0.1150 
    138 H138       -1.0552  -16.6312  -47.3030 H         1 UNK         0.1150 
    139 H139       -0.2692  -17.1452  -50.7374 H         1 UNK         0.0800 
    140 H140        0.4000  -17.0951  -49.1294 H         1 UNK         0.0800 
    141 H141       -0.1760  -19.0899  -47.4856 H         1 UNK         0.0800 
    142 H142        1.0752  -20.2202  -47.9067 H         1 UNK         0.0800 
    143 H143       -0.9528  -21.6828  -48.8755 H         1 UNK         0.0600 
    144 H144        0.2442  -21.6602  -46.2752 H         1 UNK         0.3000 
    145 H145       -1.1065  -24.6826  -45.0868 H         1 UNK         0.0600 
    146 H146        1.2786  -25.3598  -45.0151 H         1 UNK         0.0600 
    147 H147        0.6642  -25.4813  -46.6561 H         1 UNK         0.0600 
    148 H148        1.6947  -24.1278  -46.2069 H         1 UNK         0.0600 
    149 H149        0.9663  -22.9178  -44.1623 H         1 UNK         0.3000 
    150 H150       -1.1780  -20.6290  -42.4464 H         1 UNK         0.0600 
    151 H151       -0.9201  -22.5830  -40.9042 H         1 UNK         0.0600 
    152 H152        0.2324  -21.3096  -40.5348 H         1 UNK         0.0600 
    153 H153        0.7620  -22.7559  -41.3937 H         1 UNK         0.0600 
    154 H154        1.6499  -20.7378  -42.5697 H         1 UNK         0.3000 
    155 H155        2.8185  -19.7516  -44.9067 H         1 UNK         0.0600 
    156 H156        1.1667  -17.1836  -45.0315 H         1 UNK         0.0600 
    157 H157        2.8669  -17.2764  -45.4874 H         1 UNK         0.0600 
    158 H158        1.6717  -18.1982  -46.3733 H         1 UNK         0.0600 
    159 H159        2.7014  -17.5745  -43.0019 H         1 UNK         0.3000 
    160 H160        4.0462  -19.1851  -40.2800 H         1 UNK         0.0600 
    161 H161        6.0893  -18.1612  -42.3251 H         1 UNK         0.0600 
    162 H162        6.1314  -19.7284  -41.5264 H         1 UNK         0.0600 
    163 H163        6.3399  -18.2637  -40.5819 H         1 UNK         0.0600 
    164 H164        4.4763  -16.5434  -41.4708 H         1 UNK         0.3000 
    165 H165        1.5029  -15.1273  -40.3607 H         1 UNK         0.0600 
    166 H166        2.8546  -13.5713  -38.9825 H         1 UNK         0.0600 
    167 H167        2.6687  -15.1059  -38.1500 H         1 UNK         0.0600 
    168 H168        4.1916  -14.7225  -38.9437 H         1 UNK         0.0600 
    169 H169        3.8839  -13.8884  -41.2698 H         1 UNK         0.3000 
    170 H170        3.8309  -13.0329  -43.4620 H         1 UNK         0.0600 
    171 H171        4.6405  -15.7757  -44.6329 H         1 UNK         0.0600 
    172 H172        5.4798  -14.2521  -44.9136 H         1 UNK         0.0600 
    173 H173        5.4899  -14.9715  -43.3199 H         1 UNK         0.0600 
    174 H174        1.7537  -14.2594  -44.7799 H         1 UNK         0.3000 
    175 H175        2.1445  -13.0639  -48.1311 H         1 UNK         0.0600 
    176 H176        0.3264  -14.7001  -48.0550 H         1 UNK         0.0600 
    177 H177        0.5745  -14.9996  -46.3404 H         1 UNK         0.0600 
    178 H178        1.8041  -15.4790  -47.5078 H         1 UNK         0.0600 
    179 H179        0.2773  -12.5760  -45.8433 H         1 UNK         0.3000 
    180 H180       -0.0351   -9.1725  -46.6364 H         1 UNK         0.0600 
    181 H181       -2.2239  -11.2595  -47.1557 H         1 UNK         0.0600 
    182 H182       -1.7034  -10.0222  -48.2928 H         1 UNK         0.0600 
    183 H183       -2.4880   -9.5530  -46.7932 H         1 UNK         0.0600 
    184 H184       -1.4609  -10.9128  -44.8501 H         1 UNK         0.3000 
    185 H185        0.9370  -11.3284  -42.3851 H         1 UNK         0.0600 
    186 H186       -1.2765   -9.2197  -42.1431 H         1 UNK         0.0600 
    187 H187       -0.4914  -10.0597  -40.8045 H         1 UNK         0.0600 
    188 H188        0.4283   -8.9477  -41.8040 H         1 UNK         0.0600 
    189 H189       -1.8434  -11.6467  -42.1666 H         1 UNK         0.3000 
    190 H190       -1.8053  -20.1645  -45.7692 H         1 UNK         0.3000 
    191 H191       -4.2980  -19.0617  -46.5007 H         1 UNK         0.0600 
    192 H192       -2.9293  -18.5823  -44.3866 H         1 UNK         0.0600 
    193 H193       -4.6396  -18.8599  -44.0842 H         1 UNK         0.0600 
    194 H194       -3.4643  -20.1223  -43.7431 H         1 UNK         0.0600 
    195 H195       -3.4667  -22.3165  -45.2753 H         1 UNK         0.3000 
    196 H196       -6.1077  -23.2813  -44.9666 H         1 UNK         0.0600 
    197 H197       -5.0207  -25.5188  -44.8913 H         1 UNK         0.0600 
    198 H198       -4.1498  -24.3570  -43.9038 H         1 UNK         0.0600 
    199 H199       -3.5160  -24.8287  -45.4802 H         1 UNK         0.0600 
    200 H200       -3.8647  -23.4990  -47.7885 H         1 UNK         0.3000 
    201 H201       -6.0560  -23.6266  -49.6286 H         1 UNK         0.0600 
    202 H202       -6.2709  -25.9912  -48.9588 H         1 UNK         0.0600 
    203 H203       -4.5416  -26.2529  -49.1731 H         1 UNK         0.0600 
    204 H204       -5.5740  -25.9338  -50.5620 H         1 UNK         0.0600 
    205 H205       -2.5629  -24.1015  -49.0867 H         1 UNK         0.3000 
    206 H206       -1.9631  -25.0216  -51.5330 H         1 UNK         0.0600 
    207 H207       -0.4848  -25.1685  -49.5523 H         1 UNK         0.0600 
    208 H208        0.3982  -24.6608  -50.9807 H         1 UNK         0.0600 
    209 H209       -0.0161  -23.4827  -49.7507 H         1 UNK         0.0600 
    210 H210       -2.0055  -21.5369  -50.8450 H         1 UNK         0.3000 
    211 H211       -1.6271  -19.6988  -52.1036 H         1 UNK         0.0600 
    212 H212       -2.9817  -21.4081  -54.2284 H         1 UNK         0.0600 
    213 H213       -2.9380  -19.6494  -54.1894 H         1 UNK         0.0600 
    214 H214       -3.8081  -20.5259  -52.9461 H         1 UNK         0.0600 
    215 H215        0.7711  -20.9060  -51.9428 H         1 UNK         0.3000 
    216 H216        2.8137  -21.1769  -52.7746 H         1 UNK         0.0600 
    217 H217        3.6176  -19.6200  -54.5013 H         1 UNK         0.0600 
    218 H218        2.5335  -18.7737  -53.4097 H         1 UNK         0.0600 
    219 H219        1.9749  -19.2578  -55.0102 H         1 UNK         0.0600 
    220 H220        1.0124  -23.1576  -53.3782 H         1 UNK         0.3000 
    221 H221        0.9947  -25.1593  -54.2342 H         1 UNK         0.0600 
    222 H222        3.2224  -24.4653  -56.2085 H         1 UNK         0.0600 
    223 H223        3.4828  -25.0529  -54.5652 H         1 UNK         0.0600 
    224 H224        2.6725  -26.0662  -55.7468 H         1 UNK         0.0600 
    225 H225       -0.3150  -22.6047  -55.5445 H         1 UNK         0.3000 
    226 H226       -1.2521  -23.7322  -58.0941 H         1 UNK         0.0600 
    227 H227       -0.9481  -21.2586  -57.7743 H         1 UNK         0.0600 
    228 H228       -2.5940  -21.6842  -58.2192 H         1 UNK         0.0600 
    229 H229       -2.2202  -21.2695  -56.5546 H         1 UNK         0.0600 
    230 H230       -2.1498  -23.8940  -54.7365 H         1 UNK         0.3000 
    231 H231       -3.7388  -24.8122  -53.5479 H         1 UNK         0.0600 
    232 H232       -4.6854  -26.3114  -56.0377 H         1 UNK         0.0600 
    233 H233       -5.0073  -26.7372  -54.3640 H         1 UNK         0.0600 
    234 H234       -3.3676  -26.8258  -54.9845 H         1 UNK         0.0600 
    235 H235       -4.2946  -22.3469  -55.2627 H         1 UNK         0.3000 
    236 H236       -7.0674  -22.2584  -55.8680 H         1 UNK         0.0600 
    237 H237       -5.3294  -20.9215  -57.0444 H         1 UNK         0.0600 
    238 H238       -6.5767  -19.8766  -56.3852 H         1 UNK         0.0600 
    239 H239       -5.0210  -19.9950  -55.5757 H         1 UNK         0.0600 
    240 H240       -5.5311  -21.8539  -52.7776 H         1 UNK         0.3000 
    241 H241       -7.6241  -20.0588  -51.7684 H         1 UNK         0.0600 
    242 H242       -7.5468  -23.4248  -52.3100 H         1 UNK         0.3800 
    243 H243       -8.7484  -23.8367  -51.1129 H         1 UNK         0.3800 
    244 H244       -5.6991  -21.2206  -49.7829 H         1 UNK         0.0800 
    245 H245       -4.9703  -20.2417  -51.0061 H         1 UNK         0.0800 
    246 H246       -5.1193  -17.9146  -51.3760 H         1 UNK         0.0800 
    247 H247       -5.9768  -16.7313  -50.4279 H         1 UNK         0.0800 
@<TRIPOS>BOND
     1    1    2 1    
     2    1  127 1    
     3    1  128 1    
     4    1  129 1    
     5    2    3 2    
     6    2    4 am   BACKBONE|DICT|INTERRES
     7    4    5 1    
     8    4  130 1    
     9    5    6 1    
    10    5   65 1    
    11    5  131 1    
    12    6    7 1    
    13    6  132 1    
    14    6  133 1    
    15    7    8 1    
    16    8    9 1    
    17    8  134 1    
    18    8  135 1    
    19    9   10 ar   
    20    9   14 ar   
    21   10   11 ar   
    22   10  136 1    
    23   11   12 ar   
    24   11  126 1    
    25   12   13 ar   
    26   12  137 1    
    27   13   14 ar   
    28   13   15 1    
    29   14  138 1    
    30   15   16 1    
    31   15  139 1    
    32   15  140 1    
    33   16   17 1    
    34   17   18 1    
    35   17  141 1    
    36   17  142 1    
    37   18   19 1    
    38   18   67 1    
    39   18  143 1    
    40   19   20 am   BACKBONE|DICT|INTERRES
    41   19  144 1    
    42   20   21 2    
    43   20   22 1    
    44   22   23 1    
    45   22   24 1    
    46   22  145 1    
    47   23  146 1    
    48   23  147 1    
    49   23  148 1    
    50   24   25 am   BACKBONE|DICT|INTERRES
    51   24  149 1    
    52   25   26 2    
    53   25   27 1    
    54   27   28 1    
    55   27   29 1    
    56   27  150 1    
    57   28  151 1    
    58   28  152 1    
    59   28  153 1    
    60   29   30 am   BACKBONE|DICT|INTERRES
    61   29  154 1    
    62   30   31 2    
    63   30   32 1    
    64   32   33 1    
    65   32   34 1    
    66   32  155 1    
    67   33  156 1    
    68   33  157 1    
    69   33  158 1    
    70   34   35 am   BACKBONE|DICT|INTERRES
    71   34  159 1    
    72   35   36 2    
    73   35   37 1    
    74   37   38 1    
    75   37   39 1    
    76   37  160 1    
    77   38  161 1    
    78   38  162 1    
    79   38  163 1    
    80   39   40 am   BACKBONE|DICT|INTERRES
    81   39  164 1    
    82   40   41 2    
    83   40   42 1    
    84   42   43 1    
    85   42   44 1    
    86   42  165 1    
    87   43  166 1    
    88   43  167 1    
    89   43  168 1    
    90   44   45 am   BACKBONE|DICT|INTERRES
    91   44  169 1    
    92   45   46 2    
    93   45   47 1    
    94   47   48 1    
    95   47   49 1    
    96   47  170 1    
    97   48  171 1    
    98   48  172 1    
    99   48  173 1    
   100   49   50 am   BACKBONE|DICT|INTERRES
   101   49  174 1    
   102   50   51 2    
   103   50   52 1    
   104   52   53 1    
   105   52   54 1    
   106   52  175 1    
   107   53  176 1    
   108   53  177 1    
   109   53  178 1    
   110   54   55 am   BACKBONE|DICT|INTERRES
   111   54  179 1    
   112   55   56 2    
   113   55   57 1    
   114   57   58 1    
   115   57   59 1    
   116   57  180 1    
   117   58  181 1    
   118   58  182 1    
   119   58  183 1    
   120   59   60 am   BACKBONE|DICT|INTERRES
   121   59  184 1    
   122   60   61 2    
   123   60   62 1    
   124   62   63 1    
   125   62   64 1    
   126   62  185 1    
   127   63  186 1    
   128   63  187 1    
   129   63  188 1    
   130   64   65 am   BACKBONE|DICT|INTERRES
   131   64  189 1    
   132   65   66 2    
   133   67   68 2    
   134   67   69 am   BACKBONE|DICT|INTERRES
   135   69   70 1    
   136   69  190 1    
   137   70   71 1    
   138   70   72 1    
   139   70  191 1    
   140   71  192 1    
   141   71  193 1    
   142   71  194 1    
   143   72   73 2    
   144   72   74 am   BACKBONE|DICT|INTERRES
   145   74   75 1    
   146   74  195 1    
   147   75   76 1    
   148   75   77 1    
   149   75  196 1    
   150   76  197 1    
   151   76  198 1    
   152   76  199 1    
   153   77   78 2    
   154   77   79 am   BACKBONE|DICT|INTERRES
   155   79   80 1    
   156   79  200 1    
   157   80   81 1    
   158   80   82 1    
   159   80  201 1    
   160   81  202 1    
   161   81  203 1    
   162   81  204 1    
   163   82   83 2    
   164   82   84 am   BACKBONE|DICT|INTERRES
   165   84   85 1    
   166   84  205 1    
   167   85   86 1    
   168   85   87 1    
   169   85  206 1    
   170   86  207 1    
   171   86  208 1    
   172   86  209 1    
   173   87   88 2    
   174   87   89 am   BACKBONE|DICT|INTERRES
   175   89   90 1    
   176   89  210 1    
   177   90   91 1    
   178   90   92 1    
   179   90  211 1    
   180   91  212 1    
   181   91  213 1    
   182   91  214 1    
   183   92   93 2    
   184   92   94 am   BACKBONE|DICT|INTERRES
   185   94   95 1    
   186   94  215 1    
   187   95   96 1    
   188   95   97 1    
   189   95  216 1    
   190   96  217 1    
   191   96  218 1    
   192   96  219 1    
   193   97   98 2    
   194   97   99 am   BACKBONE|DICT|INTERRES
   195   99  100 1    
   196   99  220 1    
   197  100  101 1    
   198  100  102 1    
   199  100  221 1    
   200  101  222 1    
   201  101  223 1    
   202  101  224 1    
   203  102  103 2    
   204  102  104 am   BACKBONE|DICT|INTERRES
   205  104  105 1    
   206  104  225 1    
   207  105  106 1    
   208  105  107 1    
   209  105  226 1    
   210  106  227 1    
   211  106  228 1    
   212  106  229 1    
   213  107  108 2    
   214  107  109 am   BACKBONE|DICT|INTERRES
   215  109  110 1    
   216  109  230 1    
   217  110  111 1    
   218  110  112 1    
   219  110  231 1    
   220  111  232 1    
   221  111  233 1    
   222  111  234 1    
   223  112  113 2    
   224  112  114 am   BACKBONE|DICT|INTERRES
   225  114  115 1    
   226  114  235 1    
   227  115  116 1    
   228  115  117 1    
   229  115  236 1    
   230  116  237 1    
   231  116  238 1    
   232  116  239 1    
   233  117  118 2    
   234  117  119 am   BACKBONE|DICT|INTERRES
   235  119  120 1    
   236  119  240 1    
   237  120  121 1    
   238  120  124 1    
   239  120  241 1    
   240  121  122 am   BACKBONE|DICT|INTERRES
   241  121  123 2    
   242  122  242 1    
   243  122  243 1    
   244  124  125 1    
   245  124  244 1    
   246  124  245 1    
   247  125  126 1    
   248  126  246 1    
   249  126  247 1    
@<TRIPOS>SUBSTRUCTURE
     1 UNK         1 GROUP             0       ****    0 ROOT    
