@<TRIPOS>MOLECULE
3R540
247   249    1
SMALL
USER_CHARGES


@<TRIPOS>ATOM
      1 CA          1.0831  -14.9089  -44.0086 C.3       0 UNK        -0.1800 
      2 C           0.1854  -13.7003  -43.7964 C.2       0 UNK         0.5000 
      3 O           0.1785  -13.1300  -42.7066 O.2       0 UNK        -0.5000 
      4 N          -0.5566  -13.3026  -44.8405 N.am      1 UNK        -0.5000 
      5 CA         -1.5716  -12.2348  -44.8393 C.3       1 UNK         0.1400 
      6 C6         -2.2762  -12.1049  -46.2144 C.3       23 UNK        -0.0398 
      7 S7         -2.8517  -13.6958  -46.9035 S.3       23 UNK        -0.2404 
      8 C8         -4.6033  -13.6962  -46.4202 C.3       23 UNK        -0.0205 
      9 C9         -5.3482  -14.8521  -47.0707 C.ar      23 UNK        -0.0193 
     10 C10        -6.0607  -14.6509  -48.2550 C.ar      23 UNK        -0.1150 
     11 C11        -6.7584  -15.7028  -48.8588 C.ar      23 UNK        -0.0193 
     12 C12        -6.7365  -16.9694  -48.2628 C.ar      23 UNK        -0.1150 
     13 C13        -6.0369  -17.1814  -47.0691 C.ar      23 UNK        -0.0193 
     14 C14        -5.3446  -16.1182  -46.4811 C.ar      23 UNK        -0.1150 
     15 C15        -6.0628  -18.5414  -46.3845 C.3       23 UNK        -0.0205 
     16 S16        -4.7784  -19.6534  -47.0322 S.3       23 UNK        -0.2404 
     17 C17        -4.7141  -20.9011  -45.7023 C.3       23 UNK        -0.0398 
     18 CA         -3.8427  -22.1267  -46.0724 C.3       11 UNK         0.1400 
     19 N          -2.4073  -21.8098  -46.1780 N.am      11 UNK        -0.5000 
     20 C          -1.4296  -22.6664  -46.5190 C.2       10 UNK         0.5000 
     21 O          -1.6388  -23.8402  -46.8284 O.2       10 UNK        -0.5000 
     22 CA          0.0225  -22.1544  -46.4939 C.3       10 UNK         0.1400 
     23 CB          0.4488  -21.6595  -47.8843 C.3       10 UNK        -0.1800 
     24 N           0.2503  -21.1070  -45.4973 N.am      10 UNK        -0.5000 
     25 C           0.1689  -21.2872  -44.1704 C.2       9 UNK         0.5000 
     26 O          -0.0702  -22.3731  -43.6425 O.2       9 UNK        -0.5000 
     27 CA          0.3307  -20.0356  -43.2901 C.3       9 UNK         0.1400 
     28 CB          1.8127  -19.7232  -43.0317 C.3       9 UNK        -0.1800 
     29 N          -0.3260  -18.8789  -43.8991 N.am      9 UNK        -0.5000 
     30 C          -1.6519  -18.6797  -43.8677 C.2       8 UNK         0.5000 
     31 O          -2.4302  -19.3842  -43.2248 O.2       8 UNK        -0.5000 
     32 CA         -2.2168  -17.5206  -44.7118 C.3       8 UNK         0.1400 
     33 CB         -2.4382  -16.2795  -43.8355 C.3       8 UNK        -0.1800 
     34 N          -1.3953  -17.1727  -45.8769 N.am      8 UNK        -0.5000 
     35 C          -1.1998  -17.9937  -46.9187 C.2       7 UNK         0.5000 
     36 O          -1.6428  -19.1371  -46.9694 O.2       7 UNK        -0.5000 
     37 CA         -0.3013  -17.4924  -48.0618 C.3       7 UNK         0.1400 
     38 CB         -1.0664  -16.5257  -48.9751 C.3       7 UNK        -0.1800 
     39 N           0.9493  -16.8668  -47.6250 N.am      7 UNK        -0.5000 
     40 C           1.8595  -17.4024  -46.8016 C.2       6 UNK         0.5000 
     41 O           1.6851  -18.4670  -46.2078 O.2       6 UNK        -0.5000 
     42 CA          3.1789  -16.6298  -46.5700 C.3       6 UNK         0.1400 
     43 CB          4.3315  -17.2912  -47.3477 C.3       6 UNK        -0.1800 
     44 N           3.1528  -15.1772  -46.8205 N.am      6 UNK        -0.5000 
     45 C           2.9419  -14.5173  -47.9707 C.2       5 UNK         0.5000 
     46 O           2.6340  -15.0649  -49.0285 O.2       5 UNK        -0.5000 
     47 CA          3.0595  -12.9803  -47.9339 C.3       5 UNK         0.1400 
     48 CB          1.6652  -12.3434  -47.8244 C.3       5 UNK        -0.1800 
     49 N           3.8998  -12.4672  -46.8487 N.am      5 UNK        -0.5000 
     50 C           5.2294  -12.6175  -46.7608 C.2       4 UNK         0.5000 
     51 O           5.9013  -13.2408  -47.5830 O.2       4 UNK        -0.5000 
     52 CA          5.9310  -11.9506  -45.5603 C.3       4 UNK         0.1400 
     53 CB          6.6603  -10.6744  -46.0077 C.3       4 UNK        -0.1800 
     54 N           5.0209  -11.6073  -44.4647 N.am      4 UNK        -0.5000 
     55 C           4.4703  -12.4777  -43.6115 C.2       3 UNK         0.5000 
     56 O           4.6463  -13.6942  -43.6762 O.2       3 UNK        -0.5000 
     57 CA          3.5389  -11.8981  -42.5289 C.3       3 UNK         0.1400 
     58 CB          4.3246  -11.0992  -41.4712 C.3       3 UNK        -0.1800 
     59 N           2.4099  -11.1275  -43.0691 N.am      3 UNK        -0.5000 
     60 C           2.4159   -9.9602  -43.7341 C.2       2 UNK         0.5000 
     61 O           3.4385   -9.3163  -43.9741 O.2       2 UNK        -0.5000 
     62 CA          1.0536   -9.4708  -44.2644 C.3       2 UNK         0.1400 
     63 CB          1.1866   -8.4736  -45.4302 C.3       2 UNK        -0.1800 
     64 N           0.2629  -10.6194  -44.7014 N.am      2 UNK        -0.5000 
     65 C          -1.0195  -10.8576  -44.4036 C.2       1 UNK         0.5000 
     66 O          -1.7465  -10.0678  -43.8002 O.2       1 UNK        -0.5000 
     67 C          -4.1420  -23.3139  -45.1280 C.2       11 UNK         0.5000 
     68 O          -5.0958  -24.0503  -45.3809 O.2       11 UNK        -0.5000 
     69 N          -3.2970  -23.5273  -44.1076 N.am      12 UNK        -0.5000 
     70 CA         -3.3556  -24.6795  -43.2022 C.3       12 UNK         0.1400 
     71 CB         -2.4154  -24.4291  -42.0138 C.3       12 UNK        -0.1800 
     72 C          -3.0174  -26.0247  -43.8829 C.2       12 UNK         0.5000 
     73 O          -3.4254  -27.0719  -43.3805 O.2       12 UNK        -0.5000 
     74 N          -2.3051  -25.9755  -45.0162 N.am      13 UNK        -0.5000 
     75 CA         -1.9421  -27.1125  -45.8619 C.3       13 UNK         0.1400 
     76 CB         -0.4245  -27.0677  -46.1194 C.3       13 UNK        -0.1800 
     77 C          -2.7548  -27.0884  -47.1728 C.2       13 UNK         0.5000 
     78 O          -2.2257  -27.4269  -48.2336 O.2       13 UNK        -0.5000 
     79 N          -4.0209  -26.6492  -47.0871 N.am      14 UNK        -0.5000 
     80 CA         -4.9810  -26.4967  -48.1883 C.3       14 UNK         0.1400 
     81 CB         -5.3802  -27.8736  -48.7597 C.3       14 UNK        -0.1800 
     82 C          -4.4883  -25.5163  -49.2730 C.2       14 UNK         0.5000 
     83 O          -4.6523  -25.7725  -50.4661 O.2       14 UNK        -0.5000 
     84 N          -3.8511  -24.4263  -48.8244 N.am      15 UNK        -0.5000 
     85 CA         -3.1884  -23.3942  -49.6277 C.3       15 UNK         0.1400 
     86 CB         -4.2041  -22.6109  -50.4728 C.3       15 UNK        -0.1800 
     87 C          -2.0168  -23.9770  -50.4363 C.2       15 UNK         0.5000 
     88 O          -1.9076  -23.7270  -51.6363 O.2       15 UNK        -0.5000 
     89 N          -1.1929  -24.7861  -49.7525 N.am      16 UNK        -0.5000 
     90 CA         -0.0993  -25.6014  -50.2929 C.3       16 UNK         0.1400 
     91 CB          1.0734  -24.7060  -50.7456 C.3       16 UNK        -0.1800 
     92 C          -0.5900  -26.5570  -51.4011 C.2       16 UNK         0.5000 
     93 O          -0.0108  -26.5950  -52.4864 O.2       16 UNK        -0.5000 
     94 N          -1.6946  -27.2657  -51.1222 N.am      17 UNK        -0.5000 
     95 CA         -2.4611  -28.0994  -52.0583 C.3       17 UNK         0.1400 
     96 CB         -1.6809  -29.3844  -52.4033 C.3       17 UNK        -0.1800 
     97 C          -2.9174  -27.3091  -53.3073 C.2       17 UNK         0.5000 
     98 O          -2.7237  -27.7555  -54.4393 O.2       17 UNK        -0.5000 
     99 N          -3.4845  -26.1220  -53.0549 N.am      18 UNK        -0.5000 
    100 CA        -3.9675  -25.1110  -54.0006 C.3       18 UNK         0.1400 
    101 CB        -5.1119  -25.6709  -54.8697 C.3       18 UNK        -0.1800 
    102 C         -2.8793  -24.4146  -54.8489 C.2       18 UNK         0.5000 
    103 O         -3.2300  -23.6241  -55.7264 O.2       18 UNK        -0.5000 
    104 N         -1.5896  -24.6659  -54.5799 N.am      19 UNK        -0.5000 
    105 CA        -0.4704  -24.0278  -55.2805 C.3       19 UNK         0.1400 
    106 CB         0.8124  -24.8396  -55.0505 C.3       19 UNK        -0.1800 
    107 C         -0.2514  -22.5587  -54.8680 C.2       19 UNK         0.5000 
    108 O          0.2974  -21.7887  -55.6572 O.2       19 UNK        -0.5000 
    109 N         -0.6800  -22.1968  -53.6529 N.am      20 UNK        -0.5000 
    110 CA        -0.5555  -20.8665  -53.0594 C.3       20 UNK         0.1400 
    111 CB         0.3434  -20.9630  -51.8118 C.3       20 UNK        -0.1800 
    112 C         -1.9414  -20.2787  -52.7314 C.2       20 UNK         0.5000 
    113 O         -2.0590  -19.5051  -51.7794 O.2       20 UNK        -0.5000 
    114 N         -2.9646  -20.6622  -53.5129 N.am      21 UNK        -0.5000 
    115 CA        -4.3708  -20.2551  -53.4051 C.3       21 UNK         0.1400 
    116 CB        -5.1608  -20.8936  -54.5596 C.3       21 UNK        -0.1800 
    117 C         -4.5612  -18.7261  -53.3612 C.2       21 UNK         0.5000 
    118 O         -4.5727  -18.0795  -54.4105 O.2       21 UNK        -0.5000 
    119 N         -4.6764  -18.1860  -52.1394 N.am      22 UNK        -0.5000 
    120 CA        -4.7382  -16.7465  -51.8365 C.3       22 UNK         0.1400 
    121 C         -3.4231  -15.9716  -52.1747 C.2       22 UNK         0.5000 
    122 N         -2.2726  -16.6339  -52.2219 N.am      22 UNK        -0.7600 
    123 O         -3.4303  -14.7624  -52.3874 O.2       22 UNK        -0.5000 
    124 C124       -6.0318  -16.0985  -52.4068 C.3       23 UNK        -0.0398 
    125 S125       -6.6317  -14.6625  -51.4545 S.3       23 UNK        -0.2404 
    126 C126       -7.5879  -15.4486  -50.1133 C.3       23 UNK        -0.0205 
    127 H127        0.8716  -15.3983  -44.9567 H         1 UNK         0.0600 
    128 H128        0.9336  -15.6367  -43.2111 H         1 UNK         0.0600 
    129 H129        2.1291  -14.6077  -44.0006 H         1 UNK         0.0600 
    130 H130       -0.5029  -13.8109  -45.7100 H         1 UNK         0.3000 
    131 H131       -2.3249  -12.5226  -44.1030 H         1 UNK         0.0600 
    132 H132       -1.5949  -11.6708  -46.9488 H         1 UNK         0.0800 
    133 H133       -3.1192  -11.4149  -46.1467 H         1 UNK         0.0800 
    134 H134       -5.0633  -12.7493  -46.7071 H         1 UNK         0.0800 
    135 H135       -4.6812  -13.7631  -45.3340 H         1 UNK         0.0800 
    136 H136       -6.0802  -13.6686  -48.7059 H         1 UNK         0.1150 
    137 H137       -7.2832  -17.7867  -48.7120 H         1 UNK         0.1150 
    138 H138       -4.8123  -16.2699  -45.5546 H         1 UNK         0.1150 
    139 H139       -5.9243  -18.4141  -45.3096 H         1 UNK         0.0800 
    140 H140       -7.0409  -19.0069  -46.5141 H         1 UNK         0.0800 
    141 H141       -5.7426  -21.2082  -45.5010 H         1 UNK         0.0800 
    142 H142       -4.3493  -20.4325  -44.7877 H         1 UNK         0.0800 
    143 H143       -4.1661  -22.4462  -47.0615 H         1 UNK         0.0600 
    144 H144       -2.1564  -20.8305  -46.0772 H         1 UNK         0.3000 
    145 H145        0.6586  -23.0023  -46.2316 H         1 UNK         0.0600 
    146 H146       -0.1675  -20.8318  -48.2323 H         1 UNK         0.0600 
    147 H147        1.4874  -21.3285  -47.8863 H         1 UNK         0.0600 
    148 H148        0.3590  -22.4566  -48.6216 H         1 UNK         0.0600 
    149 H149        0.4642  -20.1809  -45.8495 H         1 UNK         0.3000 
    150 H150       -0.1379  -20.2404  -42.3250 H         1 UNK         0.0600 
    151 H151        2.2948  -20.5488  -42.5069 H         1 UNK         0.0600 
    152 H152        1.9261  -18.8337  -42.4119 H         1 UNK         0.0600 
    153 H153        2.3659  -19.5606  -43.9563 H         1 UNK         0.0600 
    154 H154        0.2434  -18.3017  -44.5034 H         1 UNK         0.3000 
    155 H155       -3.1878  -17.8466  -45.0877 H         1 UNK         0.0600 
    156 H156       -3.1925  -16.4775  -43.0731 H         1 UNK         0.0600 
    157 H157       -2.7854  -15.4279  -44.4190 H         1 UNK         0.0600 
    158 H158       -1.5276  -15.9873  -43.3153 H         1 UNK         0.0600 
    159 H159       -1.0008  -16.2474  -45.9085 H         1 UNK         0.3000 
    160 H160       -0.0278  -18.3646  -48.6589 H         1 UNK         0.0600 
    161 H161       -0.4970  -16.3074  -49.8785 H         1 UNK         0.0600 
    162 H162       -1.2744  -15.5796  -48.4777 H         1 UNK         0.0600 
    163 H163       -2.0213  -16.9519  -49.2869 H         1 UNK         0.0600 
    164 H164        1.2404  -16.0392  -48.1345 H         1 UNK         0.3000 
    165 H165        3.4017  -16.7360  -45.5070 H         1 UNK         0.0600 
    166 H166        4.1756  -17.2409  -48.4257 H         1 UNK         0.0600 
    167 H167        5.2840  -16.8105  -47.1238 H         1 UNK         0.0600 
    168 H168        4.4289  -18.3446  -47.0817 H         1 UNK         0.0600 
    169 H169        3.4013  -14.6116  -46.0210 H         1 UNK         0.3000 
    170 H170        3.5048  -12.6663  -48.8803 H         1 UNK         0.0600 
    171 H171        1.1720  -12.6192  -46.8942 H         1 UNK         0.0600 
    172 H172        1.7211  -11.2554  -47.8683 H         1 UNK         0.0600 
    173 H173        1.0213  -12.6664  -48.6438 H         1 UNK         0.0600 
    174 H174        3.4469  -11.9156  -46.1373 H         1 UNK         0.3000 
    175 H175        6.6743  -12.6560  -45.1830 H         1 UNK         0.0600 
    176 H176        5.9627   -9.9228  -46.3797 H         1 UNK         0.0600 
    177 H177        7.2218  -10.2324  -45.1843 H         1 UNK         0.0600 
    178 H178        7.3716  -10.8880  -46.8067 H         1 UNK         0.0600 
    179 H179        4.7701  -10.6275  -44.3587 H         1 UNK         0.3000 
    180 H180        3.0899  -12.7511  -42.0173 H         1 UNK         0.0600 
    181 H181        4.8205  -10.2260  -41.8955 H         1 UNK         0.0600 
    182 H182        5.0965  -11.7186  -41.0129 H         1 UNK         0.0600 
    183 H183        3.6680  -10.7551  -40.6721 H         1 UNK         0.0600 
    184 H184        1.5084  -11.5727  -42.9273 H         1 UNK         0.3000 
    185 H185        0.5595   -8.9677  -43.4309 H         1 UNK         0.0600 
    186 H186        0.2076   -8.1461  -45.7803 H         1 UNK         0.0600 
    187 H187        1.7353   -7.5818  -45.1248 H         1 UNK         0.0600 
    188 H188        1.7149   -8.9138  -46.2768 H         1 UNK         0.0600 
    189 H189        0.7704  -11.3405  -45.1905 H         1 UNK         0.3000 
    190 H190       -2.5155  -22.8973  -43.9832 H         1 UNK         0.3000 
    191 H191       -4.3755  -24.7542  -42.8193 H         1 UNK         0.0600 
    192 H192       -1.3740  -24.3691  -42.3317 H         1 UNK         0.0600 
    193 H193       -2.6643  -23.5004  -41.4999 H         1 UNK         0.0600 
    194 H194       -2.4879  -25.2348  -41.2822 H         1 UNK         0.0600 
    195 H195       -2.0460  -25.0683  -45.3914 H         1 UNK         0.3000 
    196 H196       -2.1736  -28.0538  -45.3602 H         1 UNK         0.0600 
    197 H197        0.1330  -27.0775  -45.1828 H         1 UNK         0.0600 
    198 H198       -0.1354  -26.1722  -46.6707 H         1 UNK         0.0600 
    199 H199       -0.0974  -27.9319  -46.6989 H         1 UNK         0.0600 
    200 H200       -4.3537  -26.3553  -46.1785 H         1 UNK         0.3000 
    201 H201       -5.8756  -26.0456  -47.7567 H         1 UNK         0.0600 
    202 H202       -6.1777  -27.7747  -49.4971 H         1 UNK         0.0600 
    203 H203       -5.7468  -28.5341  -47.9741 H         1 UNK         0.0600 
    204 H204       -4.5425  -28.3698  -49.2501 H         1 UNK         0.0600 
    205 H205       -3.6940  -24.3659  -47.8283 H         1 UNK         0.3000 
    206 H206       -2.7478  -22.6728  -48.9442 H         1 UNK         0.0600 
    207 H207       -5.0345  -22.2525  -49.8645 H         1 UNK         0.0600 
    208 H208       -4.6122  -23.2036  -51.2908 H         1 UNK         0.0600 
    209 H209       -3.7157  -21.7374  -50.8974 H         1 UNK         0.0600 
    210 H210       -1.3876  -24.9185  -48.7676 H         1 UNK         0.3000 
    211 H211        0.2562  -26.2315  -49.4763 H         1 UNK         0.0600 
    212 H212        1.4413  -24.0913  -49.9254 H         1 UNK         0.0600 
    213 H213        1.9123  -25.3088  -51.0951 H         1 UNK         0.0600 
    214 H214        0.7875  -24.0423  -51.5619 H         1 UNK         0.0600 
    215 H215       -2.0720  -27.1946  -50.1810 H         1 UNK         0.3000 
    216 H216       -3.3706  -28.3951  -51.5336 H         1 UNK         0.0600 
    217 H217       -2.2861  -30.0561  -53.0131 H         1 UNK         0.0600 
    218 H218       -0.7690  -29.1688  -52.9609 H         1 UNK         0.0600 
    219 H219       -1.4015  -29.9286  -51.5012 H         1 UNK         0.0600 
    220 H220       -3.6321  -25.8815  -52.0776 H         1 UNK         0.3000 
    221 H221       -4.3932  -24.3226  -53.3799 H         1 UNK         0.0600 
    222 H222       -4.7561  -26.4233  -55.5738 H         1 UNK         0.0600 
    223 H223       -5.8879  -26.1256  -54.2539 H         1 UNK         0.0600 
    224 H224       -5.5855  -24.8796  -55.4518 H         1 UNK         0.0600 
    225 H225       -1.3572  -25.3025  -53.8274 H         1 UNK         0.3000 
    226 H226       -0.6864  -24.0423  -56.3509 H         1 UNK         0.0600 
    227 H227        0.6701  -25.8897  -55.3065 H         1 UNK         0.0600 
    228 H228        1.6278  -24.4604  -55.6676 H         1 UNK         0.0600 
    229 H229        1.1403  -24.7866  -54.0121 H         1 UNK         0.0600 
    230 H230       -1.1397  -22.8910  -53.0641 H         1 UNK         0.3000 
    231 H231       -0.0858  -20.1754  -53.7616 H         1 UNK         0.0600 
    232 H232        0.5264  -19.9788  -51.3787 H         1 UNK         0.0600 
    233 H233        1.3143  -21.3931  -52.0578 H         1 UNK         0.0600 
    234 H234       -0.1101  -21.5829  -51.0382 H         1 UNK         0.0600 
    235 H235       -2.7502  -21.2945  -54.2706 H         1 UNK         0.3000 
    236 H236       -4.7794  -20.6617  -52.4814 H         1 UNK         0.0600 
    237 H237       -5.1482  -21.9813  -54.4910 H         1 UNK         0.0600 
    238 H238       -6.2058  -20.5815  -54.5395 H         1 UNK         0.0600 
    239 H239       -4.7523  -20.6147  -55.5317 H         1 UNK         0.0600 
    240 H240       -4.5833  -18.7925  -51.3371 H         1 UNK         0.3000 
    241 H241       -4.8031  -16.7038  -50.7492 H         1 UNK         0.0600 
    242 H242       -1.4255  -16.1363  -52.4410 H         1 UNK         0.3800 
    243 H243       -2.2417  -17.6322  -52.0326 H         1 UNK         0.3800 
    244 H244       -5.8788  -15.7902  -53.4422 H         1 UNK         0.0800 
    245 H245       -6.8394  -16.8307  -52.4409 H         1 UNK         0.0800 
    246 H246       -8.0507  -16.3685  -50.4732 H         1 UNK         0.0800 
    247 H247       -8.4097  -14.7835  -49.8448 H         1 UNK         0.0800 
@<TRIPOS>BOND
     1    1    2 1    
     2    1  127 1    
     3    1  128 1    
     4    1  129 1    
     5    2    3 2    
     6    2    4 am   BACKBONE|DICT|INTERRES
     7    4    5 1    
     8    4  130 1    
     9    5    6 1    
    10    5   65 1    
    11    5  131 1    
    12    6    7 1    
    13    6  132 1    
    14    6  133 1    
    15    7    8 1    
    16    8    9 1    
    17    8  134 1    
    18    8  135 1    
    19    9   10 ar   
    20    9   14 ar   
    21   10   11 ar   
    22   10  136 1    
    23   11   12 ar   
    24   11  126 1    
    25   12   13 ar   
    26   12  137 1    
    27   13   14 ar   
    28   13   15 1    
    29   14  138 1    
    30   15   16 1    
    31   15  139 1    
    32   15  140 1    
    33   16   17 1    
    34   17   18 1    
    35   17  141 1    
    36   17  142 1    
    37   18   19 1    
    38   18   67 1    
    39   18  143 1    
    40   19   20 am   BACKBONE|DICT|INTERRES
    41   19  144 1    
    42   20   21 2    
    43   20   22 1    
    44   22   23 1    
    45   22   24 1    
    46   22  145 1    
    47   23  146 1    
    48   23  147 1    
    49   23  148 1    
    50   24   25 am   BACKBONE|DICT|INTERRES
    51   24  149 1    
    52   25   26 2    
    53   25   27 1    
    54   27   28 1    
    55   27   29 1    
    56   27  150 1    
    57   28  151 1    
    58   28  152 1    
    59   28  153 1    
    60   29   30 am   BACKBONE|DICT|INTERRES
    61   29  154 1    
    62   30   31 2    
    63   30   32 1    
    64   32   33 1    
    65   32   34 1    
    66   32  155 1    
    67   33  156 1    
    68   33  157 1    
    69   33  158 1    
    70   34   35 am   BACKBONE|DICT|INTERRES
    71   34  159 1    
    72   35   36 2    
    73   35   37 1    
    74   37   38 1    
    75   37   39 1    
    76   37  160 1    
    77   38  161 1    
    78   38  162 1    
    79   38  163 1    
    80   39   40 am   BACKBONE|DICT|INTERRES
    81   39  164 1    
    82   40   41 2    
    83   40   42 1    
    84   42   43 1    
    85   42   44 1    
    86   42  165 1    
    87   43  166 1    
    88   43  167 1    
    89   43  168 1    
    90   44   45 am   BACKBONE|DICT|INTERRES
    91   44  169 1    
    92   45   46 2    
    93   45   47 1    
    94   47   48 1    
    95   47   49 1    
    96   47  170 1    
    97   48  171 1    
    98   48  172 1    
    99   48  173 1    
   100   49   50 am   BACKBONE|DICT|INTERRES
   101   49  174 1    
   102   50   51 2    
   103   50   52 1    
   104   52   53 1    
   105   52   54 1    
   106   52  175 1    
   107   53  176 1    
   108   53  177 1    
   109   53  178 1    
   110   54   55 am   BACKBONE|DICT|INTERRES
   111   54  179 1    
   112   55   56 2    
   113   55   57 1    
   114   57   58 1    
   115   57   59 1    
   116   57  180 1    
   117   58  181 1    
   118   58  182 1    
   119   58  183 1    
   120   59   60 am   BACKBONE|DICT|INTERRES
   121   59  184 1    
   122   60   61 2    
   123   60   62 1    
   124   62   63 1    
   125   62   64 1    
   126   62  185 1    
   127   63  186 1    
   128   63  187 1    
   129   63  188 1    
   130   64   65 am   BACKBONE|DICT|INTERRES
   131   64  189 1    
   132   65   66 2    
   133   67   68 2    
   134   67   69 am   BACKBONE|DICT|INTERRES
   135   69   70 1    
   136   69  190 1    
   137   70   71 1    
   138   70   72 1    
   139   70  191 1    
   140   71  192 1    
   141   71  193 1    
   142   71  194 1    
   143   72   73 2    
   144   72   74 am   BACKBONE|DICT|INTERRES
   145   74   75 1    
   146   74  195 1    
   147   75   76 1    
   148   75   77 1    
   149   75  196 1    
   150   76  197 1    
   151   76  198 1    
   152   76  199 1    
   153   77   78 2    
   154   77   79 am   BACKBONE|DICT|INTERRES
   155   79   80 1    
   156   79  200 1    
   157   80   81 1    
   158   80   82 1    
   159   80  201 1    
   160   81  202 1    
   161   81  203 1    
   162   81  204 1    
   163   82   83 2    
   164   82   84 am   BACKBONE|DICT|INTERRES
   165   84   85 1    
   166   84  205 1    
   167   85   86 1    
   168   85   87 1    
   169   85  206 1    
   170   86  207 1    
   171   86  208 1    
   172   86  209 1    
   173   87   88 2    
   174   87   89 am   BACKBONE|DICT|INTERRES
   175   89   90 1    
   176   89  210 1    
   177   90   91 1    
   178   90   92 1    
   179   90  211 1    
   180   91  212 1    
   181   91  213 1    
   182   91  214 1    
   183   92   93 2    
   184   92   94 am   BACKBONE|DICT|INTERRES
   185   94   95 1    
   186   94  215 1    
   187   95   96 1    
   188   95   97 1    
   189   95  216 1    
   190   96  217 1    
   191   96  218 1    
   192   96  219 1    
   193   97   98 2    
   194   97   99 am   BACKBONE|DICT|INTERRES
   195   99  100 1    
   196   99  220 1    
   197  100  101 1    
   198  100  102 1    
   199  100  221 1    
   200  101  222 1    
   201  101  223 1    
   202  101  224 1    
   203  102  103 2    
   204  102  104 am   BACKBONE|DICT|INTERRES
   205  104  105 1    
   206  104  225 1    
   207  105  106 1    
   208  105  107 1    
   209  105  226 1    
   210  106  227 1    
   211  106  228 1    
   212  106  229 1    
   213  107  108 2    
   214  107  109 am   BACKBONE|DICT|INTERRES
   215  109  110 1    
   216  109  230 1    
   217  110  111 1    
   218  110  112 1    
   219  110  231 1    
   220  111  232 1    
   221  111  233 1    
   222  111  234 1    
   223  112  113 2    
   224  112  114 am   BACKBONE|DICT|INTERRES
   225  114  115 1    
   226  114  235 1    
   227  115  116 1    
   228  115  117 1    
   229  115  236 1    
   230  116  237 1    
   231  116  238 1    
   232  116  239 1    
   233  117  118 2    
   234  117  119 am   BACKBONE|DICT|INTERRES
   235  119  120 1    
   236  119  240 1    
   237  120  121 1    
   238  120  124 1    
   239  120  241 1    
   240  121  122 am   BACKBONE|DICT|INTERRES
   241  121  123 2    
   242  122  242 1    
   243  122  243 1    
   244  124  125 1    
   245  124  244 1    
   246  124  245 1    
   247  125  126 1    
   248  126  246 1    
   249  126  247 1    
@<TRIPOS>SUBSTRUCTURE
     1 UNK         1 GROUP             0       ****    0 ROOT    
