@<TRIPOS>MOLECULE
3R540
247   249    1
SMALL
USER_CHARGES


@<TRIPOS>ATOM
      1 CA         -1.9840  -10.6620  -48.9197 C.3       0 UNK        -0.1800 
      2 C          -0.5400  -10.8723  -48.4871 C.2       0 UNK         0.5000 
      3 O           0.1246   -9.9205  -48.0784 O.2       0 UNK        -0.5000 
      4 N          -0.0556  -12.1177  -48.5688 N.am      1 UNK        -0.5000 
      5 CA          1.3018  -12.5241  -48.1793 C.3       1 UNK         0.1400 
      6 C6          1.7430  -13.8236  -48.9040 C.3       23 UNK        -0.0398 
      7 S7          0.7082  -15.2834  -48.5263 S.3       23 UNK        -0.2404 
      8 C8         -0.3588  -15.3611  -49.9997 C.3       23 UNK        -0.0205 
      9 C9         -1.5917  -16.2179  -49.7545 C.ar      23 UNK        -0.0193 
     10 C10        -1.8229  -17.3703  -50.5111 C.ar      23 UNK        -0.1150 
     11 C11        -2.9771  -18.1336  -50.3074 C.ar      23 UNK        -0.0193 
     12 C12        -3.8971  -17.7438  -49.3300 C.ar      23 UNK        -0.1150 
     13 C13        -3.6568  -16.6169  -48.5386 C.ar      23 UNK        -0.0193 
     14 C14        -2.5151  -15.8469  -48.7732 C.ar      23 UNK        -0.1150 
     15 C15        -4.6121  -16.2235  -47.4210 C.3       23 UNK        -0.0205 
     16 S16        -3.8634  -16.5069  -45.7815 S.3       23 UNK        -0.2404 
     17 C17        -4.5611  -18.1224  -45.2883 C.3       23 UNK        -0.0398 
     18 CA         -4.0540  -19.3314  -46.1131 C.3       11 UNK         0.1400 
     19 N          -2.5911  -19.4075  -46.1809 N.am      11 UNK        -0.5000 
     20 C          -1.9064  -20.1396  -47.0723 C.2       10 UNK         0.5000 
     21 O          -2.4416  -20.8382  -47.9318 O.2       10 UNK        -0.5000 
     22 CA         -0.3724  -20.1665  -46.9355 C.3       10 UNK         0.1400 
     23 CB          0.2511  -19.0676  -47.8062 C.3       10 UNK        -0.1800 
     24 N           0.0893  -20.0214  -45.5527 N.am      10 UNK        -0.5000 
     25 C          -0.2282  -20.8498  -44.5431 C.2       9 UNK         0.5000 
     26 O          -0.8740  -21.8868  -44.6995 O.2       9 UNK        -0.5000 
     27 CA          0.1796  -20.4347  -43.1134 C.3       9 UNK         0.1400 
     28 CB          1.4498  -21.1807  -42.6817 C.3       9 UNK        -0.1800 
     29 N           0.3935  -18.9962  -42.9477 N.am      9 UNK        -0.5000 
     30 C          -0.5020  -18.0331  -43.2087 C.2       8 UNK         0.5000 
     31 O          -1.6695  -18.2582  -43.5261 O.2       8 UNK        -0.5000 
     32 CA          0.0059  -16.5790  -43.1740 C.3       8 UNK         0.1400 
     33 CB         -0.3957  -15.9082  -41.8531 C.3       8 UNK        -0.1800 
     34 N           1.4549  -16.4460  -43.3617 N.am      8 UNK        -0.5000 
     35 C           2.1462  -16.8459  -44.4407 C.2       7 UNK         0.5000 
     36 O           1.6319  -17.3922  -45.4150 O.2       7 UNK        -0.5000 
     37 CA          3.6718  -16.6636  -44.3932 C.3       7 UNK         0.1400 
     38 CB          4.0709  -15.2393  -44.7989 C.3       7 UNK        -0.1800 
     39 N           4.1951  -16.9546  -43.0597 N.am      7 UNK        -0.5000 
     40 C           4.5215  -18.1810  -42.6296 C.2       6 UNK         0.5000 
     41 O           4.4748  -19.1880  -43.3358 O.2       6 UNK        -0.5000 
     42 CA          4.9642  -18.3108  -41.1594 C.3       6 UNK         0.1400 
     43 CB          6.4900  -18.1750  -41.0435 C.3       6 UNK        -0.1800 
     44 N           4.3291  -17.3294  -40.2784 N.am      6 UNK        -0.5000 
     45 C           3.0260  -17.3170  -39.9659 C.2       5 UNK         0.5000 
     46 O           2.2177  -18.1552  -40.3655 O.2       5 UNK        -0.5000 
     47 CA          2.5402  -16.1435  -39.0921 C.3       5 UNK         0.1400 
     48 CB          2.6629  -16.4984  -37.6028 C.3       5 UNK        -0.1800 
     49 N           3.2360  -14.8757  -39.3456 N.am      5 UNK        -0.5000 
     50 C           3.2781  -14.2419  -40.5246 C.2       4 UNK         0.5000 
     51 O           2.7923  -14.6950  -41.5653 O.2       4 UNK        -0.5000 
     52 CA          4.0165  -12.8985  -40.5593 C.3       4 UNK         0.1400 
     53 CB          5.5359  -13.1103  -40.6658 C.3       4 UNK        -0.1800 
     54 N           3.5461  -12.1576  -41.7221 N.am      4 UNK        -0.5000 
     55 C           3.4271  -10.8302  -41.8246 C.2       3 UNK         0.5000 
     56 O           3.7705  -10.0433  -40.9413 O.2       3 UNK        -0.5000 
     57 CA          2.8223  -10.2851  -43.1346 C.3       3 UNK         0.1400 
     58 CB          3.9283   -9.7363  -44.0490 C.3       3 UNK        -0.1800 
     59 N           2.0621  -11.2930  -43.8766 N.am      3 UNK        -0.5000 
     60 C           0.8331  -11.7240  -43.5743 C.2       2 UNK         0.5000 
     61 O           0.1725  -11.2634  -42.6419 O.2       2 UNK        -0.5000 
     62 CA          0.2576  -12.8631  -44.4508 C.3       2 UNK         0.1400 
     63 CB         -1.2223  -13.1545  -44.1372 C.3       2 UNK        -0.1800 
     64 N           0.3716  -12.6482  -45.8962 N.am      2 UNK        -0.5000 
     65 C           1.4826  -12.6364  -46.6476 C.2       1 UNK         0.5000 
     66 O           2.6195  -12.7160  -46.1831 O.2       1 UNK        -0.5000 
     67 C          -4.7074  -20.6448  -45.6277 C.2       11 UNK         0.5000 
     68 O          -5.9266  -20.7780  -45.7386 O.2       11 UNK        -0.5000 
     69 N          -3.9026  -21.5899  -45.1240 N.am      12 UNK        -0.5000 
     70 CA         -4.3073  -22.9555  -44.8218 C.3       12 UNK         0.1400 
     71 CB         -3.8808  -23.3129  -43.3873 C.3       12 UNK        -0.1800 
     72 C          -3.6911  -23.9110  -45.8550 C.2       12 UNK         0.5000 
     73 O          -4.4294  -24.5378  -46.6127 O.2       12 UNK        -0.5000 
     74 N          -2.3545  -24.0080  -45.8657 N.am      13 UNK        -0.5000 
     75 CA         -1.5903  -25.0117  -46.6062 C.3       13 UNK         0.1400 
     76 CB         -0.1244  -24.9772  -46.1425 C.3       13 UNK        -0.1800 
     77 C          -1.6987  -24.8664  -48.1324 C.2       13 UNK         0.5000 
     78 O          -2.2031  -25.7715  -48.7981 O.2       13 UNK        -0.5000 
     79 N          -1.2336  -23.7256  -48.6587 N.am      14 UNK        -0.5000 
     80 CA         -1.2341  -23.4215  -50.0927 C.3       14 UNK         0.1400 
     81 CB         -0.3591  -22.1884  -50.3605 C.3       14 UNK        -0.1800 
     82 C          -2.6527  -23.2392  -50.6617 C.2       14 UNK         0.5000 
     83 O          -2.8851  -23.5615  -51.8275 O.2       14 UNK        -0.5000 
     84 N          -3.5747  -22.7646  -49.8140 N.am      15 UNK        -0.5000 
     85 CA         -5.0000  -22.6484  -50.0975 C.3       15 UNK         0.1400 
     86 CB         -5.6872  -21.8695  -48.9676 C.3       15 UNK        -0.1800 
     87 C          -5.6739  -24.0137  -50.3111 C.2       15 UNK         0.5000 
     88 O          -6.3687  -24.1904  -51.3128 O.2       15 UNK        -0.5000 
     89 N          -5.4358  -24.9577  -49.3871 N.am      16 UNK        -0.5000 
     90 CA         -5.9529  -26.3269  -49.4511 C.3       16 UNK         0.1400 
     91 CB         -5.7532  -27.0234  -48.0971 C.3       16 UNK        -0.1800 
     92 C          -5.3114  -27.1520  -50.5791 C.2       16 UNK         0.5000 
     93 O          -6.0042  -27.9430  -51.2204 O.2       16 UNK        -0.5000 
     94 N          -4.0098  -26.9372  -50.8181 N.am      17 UNK        -0.5000 
     95 CA         -3.2630  -27.5351  -51.9267 C.3       17 UNK         0.1400 
     96 CB         -1.7603  -27.3128  -51.6985 C.3       17 UNK        -0.1800 
     97 C          -3.6772  -26.9838  -53.3057 C.2       17 UNK         0.5000 
     98 O          -3.4661  -27.6664  -54.3086 O.2       17 UNK        -0.5000 
     99 N          -4.2447  -25.7675  -53.3215 N.am      18 UNK        -0.5000 
    100 CA        -4.6373  -24.9687  -54.4829 C.3       18 UNK         0.1400 
    101 CB        -5.8127  -25.6236  -55.2358 C.3       18 UNK        -0.1800 
    102 C         -3.4229  -24.6700  -55.3794 C.2       18 UNK         0.5000 
    103 O         -3.3671  -25.1140  -56.5288 O.2       18 UNK        -0.5000 
    104 N         -2.4454  -23.9592  -54.8021 N.am      19 UNK        -0.5000 
    105 CA        -1.1543  -23.5955  -55.3922 C.3       19 UNK         0.1400 
    106 CB        -0.2427  -23.0821  -54.2636 C.3       19 UNK        -0.1800 
    107 C         -1.2716  -22.5892  -56.5617 C.2       19 UNK         0.5000 
    108 O         -0.8100  -21.4525  -56.4523 O.2       19 UNK        -0.5000 
    109 N         -1.9155  -23.0299  -57.6520 N.am      20 UNK        -0.5000 
    110 CA        -2.2279  -22.3215  -58.9033 C.3       20 UNK         0.1400 
    111 CB        -0.9446  -21.8217  -59.5976 C.3       20 UNK        -0.1800 
    112 C         -3.2826  -21.2009  -58.7629 C.2       20 UNK         0.5000 
    113 O         -3.6173  -20.5562  -59.7580 O.2       20 UNK        -0.5000 
    114 N         -3.8051  -21.0072  -57.5497 N.am      21 UNK        -0.5000 
    115 CA        -4.7763  -20.0091  -57.1211 C.3       21 UNK         0.1400 
    116 CB        -4.1872  -18.5875  -57.2632 C.3       21 UNK        -0.1800 
    117 C         -5.1265  -20.3202  -55.6543 C.2       21 UNK         0.5000 
    118 O         -4.6324  -21.3137  -55.1112 O.2       21 UNK        -0.5000 
    119 N         -5.9562  -19.4576  -55.0516 N.am      22 UNK        -0.5000 
    120 CA        -6.2811  -19.2987  -53.6151 C.3       22 UNK         0.1400 
    121 C         -6.7433  -20.5377  -52.7863 C.2       22 UNK         0.5000 
    122 N         -6.6490  -21.7602  -53.2842 N.am      22 UNK        -0.7600 
    123 O         -7.2358  -20.3750  -51.6738 O.2       22 UNK        -0.5000 
    124 C124       -5.2370  -18.4254  -52.8556 C.3       23 UNK        -0.0398 
    125 S125       -3.5196  -19.0542  -52.8738 S.3       23 UNK        -0.2404 
    126 C126       -3.2101  -19.3996  -51.1172 C.3       23 UNK        -0.0205 
    127 H127       -2.0288   -9.9477  -49.7419 H         1 UNK         0.0600 
    128 H128       -2.5702  -10.2662  -48.0904 H         1 UNK         0.0600 
    129 H129       -2.4481  -11.5914  -49.2512 H         1 UNK         0.0600 
    130 H130       -0.6510  -12.8613  -48.9019 H         1 UNK         0.3000 
    131 H131        1.9860  -11.7366  -48.5030 H         1 UNK         0.0600 
    132 H132        1.7521  -13.6579  -49.9821 H         1 UNK         0.0800 
    133 H133        2.7747  -14.0666  -48.6435 H         1 UNK         0.0800 
    134 H134        0.2239  -15.7467  -50.8377 H         1 UNK         0.0800 
    135 H135       -0.6832  -14.3599  -50.2839 H         1 UNK         0.0800 
    136 H136       -1.1113  -17.6728  -51.2665 H         1 UNK         0.1150 
    137 H137       -4.7887  -18.3330  -49.1722 H         1 UNK         0.1150 
    138 H138       -2.3328  -14.9681  -48.1710 H         1 UNK         0.1150 
    139 H139       -4.8519  -15.1637  -47.5179 H         1 UNK         0.0800 
    140 H140       -5.5589  -16.7592  -47.5037 H         1 UNK         0.0800 
    141 H141       -5.6486  -18.0501  -45.3457 H         1 UNK         0.0800 
    142 H142       -4.3269  -18.2680  -44.2324 H         1 UNK         0.0800 
    143 H143       -4.4155  -19.2013  -47.1306 H         1 UNK         0.0600 
    144 H144       -2.0905  -18.8885  -45.4679 H         1 UNK         0.3000 
    145 H145       -0.0211  -21.1333  -47.2993 H         1 UNK         0.0600 
    146 H146        1.3398  -19.0950  -47.7638 H         1 UNK         0.0600 
    147 H147       -0.0380  -19.1805  -48.8515 H         1 UNK         0.0600 
    148 H148       -0.0725  -18.0760  -47.4868 H         1 UNK         0.0600 
    149 H149        0.6180  -19.1791  -45.3482 H         1 UNK         0.3000 
    150 H150       -0.6347  -20.7239  -42.4465 H         1 UNK         0.0600 
    151 H151        1.3076  -22.2607  -42.7394 H         1 UNK         0.0600 
    152 H152        1.7183  -20.9420  -41.6522 H         1 UNK         0.0600 
    153 H153        2.2988  -20.9266  -43.3173 H         1 UNK         0.0600 
    154 H154        1.3157  -18.7092  -42.6499 H         1 UNK         0.3000 
    155 H155       -0.4775  -16.0489  -43.9961 H         1 UNK         0.0600 
    156 H156       -0.0307  -16.4724  -40.9956 H         1 UNK         0.0600 
    157 H157       -1.4810  -15.8466  -41.7644 H         1 UNK         0.0600 
    158 H158       -0.0029  -14.8942  -41.7799 H         1 UNK         0.0600 
    159 H159        1.9598  -15.9701  -42.6186 H         1 UNK         0.3000 
    160 H160        4.1171  -17.3518  -45.1150 H         1 UNK         0.0600 
    161 H161        5.1499  -15.0975  -44.7397 H         1 UNK         0.0600 
    162 H162        3.5979  -14.4853  -44.1692 H         1 UNK         0.0600 
    163 H163        3.7754  -15.0428  -45.8297 H         1 UNK         0.0600 
    164 H164        4.2045  -16.1880  -42.4009 H         1 UNK         0.3000 
    165 H165        4.6819  -19.3085  -40.8163 H         1 UNK         0.0600 
    166 H166        6.8242  -18.3405  -40.0191 H         1 UNK         0.0600 
    167 H167        6.9961  -18.9093  -41.6717 H         1 UNK         0.0600 
    168 H168        6.8313  -17.1865  -41.3536 H         1 UNK         0.0600 
    169 H169        4.9196  -16.6019  -39.9034 H         1 UNK         0.3000 
    170 H170        1.4840  -15.9845  -39.3129 H         1 UNK         0.0600 
    171 H171        2.1353  -17.4263  -37.3774 H         1 UNK         0.0600 
    172 H172        3.7035  -16.6317  -37.3046 H         1 UNK         0.0600 
    173 H173        2.2297  -15.7202  -36.9743 H         1 UNK         0.0600 
    174 H174        3.6750  -14.4427  -38.5456 H         1 UNK         0.3000 
    175 H175        3.7792  -12.3485  -39.6463 H         1 UNK         0.0600 
    176 H176        5.9184  -13.6630  -39.8069 H         1 UNK         0.0600 
    177 H177        6.0643  -12.1573  -40.6984 H         1 UNK         0.0600 
    178 H178        5.8016  -13.6698  -41.5638 H         1 UNK         0.0600 
    179 H179        3.1842  -12.7404  -42.4650 H         1 UNK         0.3000 
    180 H180        2.1525   -9.4632  -42.8736 H         1 UNK         0.0600 
    181 H181        4.6238  -10.5200  -44.3525 H         1 UNK         0.0600 
    182 H182        4.5056   -8.9607  -43.5440 H         1 UNK         0.0600 
    183 H183        3.5086   -9.2925  -44.9520 H         1 UNK         0.0600 
    184 H184        2.5209  -11.7221  -44.6781 H         1 UNK         0.3000 
    185 H185        0.8331  -13.7574  -44.2060 H         1 UNK         0.0600 
    186 H186       -1.3693  -13.3851  -43.0820 H         1 UNK         0.0600 
    187 H187       -1.8560  -12.2991  -44.3743 H         1 UNK         0.0600 
    188 H188       -1.5894  -14.0082  -44.7076 H         1 UNK         0.0600 
    189 H189       -0.5030  -12.5379  -46.3865 H         1 UNK         0.3000 
    190 H190       -2.9077  -21.4049  -45.0880 H         1 UNK         0.3000 
    191 H191       -5.3923  -23.0634  -44.8818 H         1 UNK         0.0600 
    192 H192       -2.8091  -23.1870  -43.2303 H         1 UNK         0.0600 
    193 H193       -4.1286  -24.3490  -43.1536 H         1 UNK         0.0600 
    194 H194       -4.3961  -22.6843  -42.6610 H         1 UNK         0.0600 
    195 H195       -1.8147  -23.3868  -45.2682 H         1 UNK         0.3000 
    196 H196       -1.9967  -25.9915  -46.3464 H         1 UNK         0.0600 
    197 H197        0.4761  -25.7081  -46.6857 H         1 UNK         0.0600 
    198 H198       -0.0441  -25.2158  -45.0818 H         1 UNK         0.0600 
    199 H199        0.3294  -23.9974  -46.2959 H         1 UNK         0.0600 
    200 H200       -0.8867  -23.0108  -48.0385 H         1 UNK         0.3000 
    201 H201       -0.7816  -24.2669  -50.6139 H         1 UNK         0.0600 
    202 H202        0.6690  -22.3574  -50.0404 H         1 UNK         0.0600 
    203 H203       -0.7299  -21.3070  -49.8414 H         1 UNK         0.0600 
    204 H204       -0.3327  -21.9509  -51.4238 H         1 UNK         0.0600 
    205 H205       -3.2596  -22.4360  -48.9078 H         1 UNK         0.3000 
    206 H206       -5.0976  -22.0792  -51.0207 H         1 UNK         0.0600 
    207 H207       -5.2472  -20.8810  -48.8413 H         1 UNK         0.0600 
    208 H208       -6.7472  -21.7274  -49.1814 H         1 UNK         0.0600 
    209 H209       -5.6121  -22.3933  -48.0147 H         1 UNK         0.0600 
    210 H210       -4.8727  -24.7297  -48.5733 H         1 UNK         0.3000 
    211 H211       -7.0255  -26.2731  -49.6488 H         1 UNK         0.0600 
    212 H212       -4.6984  -27.0734  -47.8232 H         1 UNK         0.0600 
    213 H213       -6.1365  -28.0442  -48.1208 H         1 UNK         0.0600 
    214 H214       -6.2815  -26.4969  -47.3021 H         1 UNK         0.0600 
    215 H215       -3.4904  -26.3271  -50.1931 H         1 UNK         0.3000 
    216 H216       -3.4543  -28.6102  -51.9268 H         1 UNK         0.0600 
    217 H217       -1.1706  -27.7954  -52.4789 H         1 UNK         0.0600 
    218 H218       -1.4385  -27.7282  -50.7434 H         1 UNK         0.0600 
    219 H219       -1.5085  -26.2524  -51.7067 H         1 UNK         0.0600 
    220 H220       -4.3207  -25.2861  -52.4350 H         1 UNK         0.3000 
    221 H221       -4.9856  -24.0108  -54.0949 H         1 UNK         0.0600 
    222 H222       -6.1538  -24.9844  -56.0509 H         1 UNK         0.0600 
    223 H223       -6.6614  -25.7847  -54.5710 H         1 UNK         0.0600 
    224 H224       -5.5379  -26.5860  -55.6682 H         1 UNK         0.0600 
    225 H225       -2.5927  -23.6589  -53.8428 H         1 UNK         0.3000 
    226 H226       -0.7023  -24.5039  -55.7951 H         1 UNK         0.0600 
    227 H227        0.7526  -22.8429  -54.6400 H         1 UNK         0.0600 
    228 H228       -0.6488  -22.1793  -53.8055 H         1 UNK         0.0600 
    229 H229       -0.1229  -23.8306  -53.4799 H         1 UNK         0.0600 
    230 H230       -2.3383  -23.9521  -57.5675 H         1 UNK         0.3000 
    231 H231       -2.6795  -23.0703  -59.5555 H         1 UNK         0.0600 
    232 H232       -0.2159  -22.6249  -59.7072 H         1 UNK         0.0600 
    233 H233       -0.4715  -21.0104  -59.0440 H         1 UNK         0.0600 
    234 H234       -1.1635  -21.4455  -60.5976 H         1 UNK         0.0600 
    235 H235       -3.4972  -21.6004  -56.7880 H         1 UNK         0.3000 
    236 H236       -5.6792  -20.1066  -57.7262 H         1 UNK         0.0600 
    237 H237       -3.9155  -18.3619  -58.2939 H         1 UNK         0.0600 
    238 H238       -4.9026  -17.8239  -56.9572 H         1 UNK         0.0600 
    239 H239       -3.2936  -18.4651  -56.6494 H         1 UNK         0.0600 
    240 H240       -6.3418  -18.7272  -55.6320 H         1 UNK         0.3000 
    241 H241       -7.1885  -18.6941  -53.6460 H         1 UNK         0.0600 
    242 H242       -6.9299  -22.5583  -52.7320 H         1 UNK         0.3800 
    243 H243       -6.1010  -21.8794  -54.1296 H         1 UNK         0.3800 
    244 H244       -5.5555  -18.2523  -51.8265 H         1 UNK         0.0800 
    245 H245       -5.2112  -17.4347  -53.3104 H         1 UNK         0.0800 
    246 H246       -2.3303  -20.0368  -51.0365 H         1 UNK         0.0800 
    247 H247       -4.0414  -19.9737  -50.7113 H         1 UNK         0.0800 
@<TRIPOS>BOND
     1    1    2 1    
     2    1  127 1    
     3    1  128 1    
     4    1  129 1    
     5    2    3 2    
     6    2    4 am   BACKBONE|DICT|INTERRES
     7    4    5 1    
     8    4  130 1    
     9    5    6 1    
    10    5   65 1    
    11    5  131 1    
    12    6    7 1    
    13    6  132 1    
    14    6  133 1    
    15    7    8 1    
    16    8    9 1    
    17    8  134 1    
    18    8  135 1    
    19    9   10 ar   
    20    9   14 ar   
    21   10   11 ar   
    22   10  136 1    
    23   11   12 ar   
    24   11  126 1    
    25   12   13 ar   
    26   12  137 1    
    27   13   14 ar   
    28   13   15 1    
    29   14  138 1    
    30   15   16 1    
    31   15  139 1    
    32   15  140 1    
    33   16   17 1    
    34   17   18 1    
    35   17  141 1    
    36   17  142 1    
    37   18   19 1    
    38   18   67 1    
    39   18  143 1    
    40   19   20 am   BACKBONE|DICT|INTERRES
    41   19  144 1    
    42   20   21 2    
    43   20   22 1    
    44   22   23 1    
    45   22   24 1    
    46   22  145 1    
    47   23  146 1    
    48   23  147 1    
    49   23  148 1    
    50   24   25 am   BACKBONE|DICT|INTERRES
    51   24  149 1    
    52   25   26 2    
    53   25   27 1    
    54   27   28 1    
    55   27   29 1    
    56   27  150 1    
    57   28  151 1    
    58   28  152 1    
    59   28  153 1    
    60   29   30 am   BACKBONE|DICT|INTERRES
    61   29  154 1    
    62   30   31 2    
    63   30   32 1    
    64   32   33 1    
    65   32   34 1    
    66   32  155 1    
    67   33  156 1    
    68   33  157 1    
    69   33  158 1    
    70   34   35 am   BACKBONE|DICT|INTERRES
    71   34  159 1    
    72   35   36 2    
    73   35   37 1    
    74   37   38 1    
    75   37   39 1    
    76   37  160 1    
    77   38  161 1    
    78   38  162 1    
    79   38  163 1    
    80   39   40 am   BACKBONE|DICT|INTERRES
    81   39  164 1    
    82   40   41 2    
    83   40   42 1    
    84   42   43 1    
    85   42   44 1    
    86   42  165 1    
    87   43  166 1    
    88   43  167 1    
    89   43  168 1    
    90   44   45 am   BACKBONE|DICT|INTERRES
    91   44  169 1    
    92   45   46 2    
    93   45   47 1    
    94   47   48 1    
    95   47   49 1    
    96   47  170 1    
    97   48  171 1    
    98   48  172 1    
    99   48  173 1    
   100   49   50 am   BACKBONE|DICT|INTERRES
   101   49  174 1    
   102   50   51 2    
   103   50   52 1    
   104   52   53 1    
   105   52   54 1    
   106   52  175 1    
   107   53  176 1    
   108   53  177 1    
   109   53  178 1    
   110   54   55 am   BACKBONE|DICT|INTERRES
   111   54  179 1    
   112   55   56 2    
   113   55   57 1    
   114   57   58 1    
   115   57   59 1    
   116   57  180 1    
   117   58  181 1    
   118   58  182 1    
   119   58  183 1    
   120   59   60 am   BACKBONE|DICT|INTERRES
   121   59  184 1    
   122   60   61 2    
   123   60   62 1    
   124   62   63 1    
   125   62   64 1    
   126   62  185 1    
   127   63  186 1    
   128   63  187 1    
   129   63  188 1    
   130   64   65 am   BACKBONE|DICT|INTERRES
   131   64  189 1    
   132   65   66 2    
   133   67   68 2    
   134   67   69 am   BACKBONE|DICT|INTERRES
   135   69   70 1    
   136   69  190 1    
   137   70   71 1    
   138   70   72 1    
   139   70  191 1    
   140   71  192 1    
   141   71  193 1    
   142   71  194 1    
   143   72   73 2    
   144   72   74 am   BACKBONE|DICT|INTERRES
   145   74   75 1    
   146   74  195 1    
   147   75   76 1    
   148   75   77 1    
   149   75  196 1    
   150   76  197 1    
   151   76  198 1    
   152   76  199 1    
   153   77   78 2    
   154   77   79 am   BACKBONE|DICT|INTERRES
   155   79   80 1    
   156   79  200 1    
   157   80   81 1    
   158   80   82 1    
   159   80  201 1    
   160   81  202 1    
   161   81  203 1    
   162   81  204 1    
   163   82   83 2    
   164   82   84 am   BACKBONE|DICT|INTERRES
   165   84   85 1    
   166   84  205 1    
   167   85   86 1    
   168   85   87 1    
   169   85  206 1    
   170   86  207 1    
   171   86  208 1    
   172   86  209 1    
   173   87   88 2    
   174   87   89 am   BACKBONE|DICT|INTERRES
   175   89   90 1    
   176   89  210 1    
   177   90   91 1    
   178   90   92 1    
   179   90  211 1    
   180   91  212 1    
   181   91  213 1    
   182   91  214 1    
   183   92   93 2    
   184   92   94 am   BACKBONE|DICT|INTERRES
   185   94   95 1    
   186   94  215 1    
   187   95   96 1    
   188   95   97 1    
   189   95  216 1    
   190   96  217 1    
   191   96  218 1    
   192   96  219 1    
   193   97   98 2    
   194   97   99 am   BACKBONE|DICT|INTERRES
   195   99  100 1    
   196   99  220 1    
   197  100  101 1    
   198  100  102 1    
   199  100  221 1    
   200  101  222 1    
   201  101  223 1    
   202  101  224 1    
   203  102  103 2    
   204  102  104 am   BACKBONE|DICT|INTERRES
   205  104  105 1    
   206  104  225 1    
   207  105  106 1    
   208  105  107 1    
   209  105  226 1    
   210  106  227 1    
   211  106  228 1    
   212  106  229 1    
   213  107  108 2    
   214  107  109 am   BACKBONE|DICT|INTERRES
   215  109  110 1    
   216  109  230 1    
   217  110  111 1    
   218  110  112 1    
   219  110  231 1    
   220  111  232 1    
   221  111  233 1    
   222  111  234 1    
   223  112  113 2    
   224  112  114 am   BACKBONE|DICT|INTERRES
   225  114  115 1    
   226  114  235 1    
   227  115  116 1    
   228  115  117 1    
   229  115  236 1    
   230  116  237 1    
   231  116  238 1    
   232  116  239 1    
   233  117  118 2    
   234  117  119 am   BACKBONE|DICT|INTERRES
   235  119  120 1    
   236  119  240 1    
   237  120  121 1    
   238  120  124 1    
   239  120  241 1    
   240  121  122 am   BACKBONE|DICT|INTERRES
   241  121  123 2    
   242  122  242 1    
   243  122  243 1    
   244  124  125 1    
   245  124  244 1    
   246  124  245 1    
   247  125  126 1    
   248  126  246 1    
   249  126  247 1    
@<TRIPOS>SUBSTRUCTURE
     1 UNK         1 GROUP             0       ****    0 ROOT    
