@<TRIPOS>MOLECULE
3R540
247   249    1
SMALL
USER_CHARGES


@<TRIPOS>ATOM
      1 CA         -4.7845  -14.0331  -52.7446 C.3       0 UNK        -0.1800 
      2 C          -3.7822  -13.5350  -51.7151 C.2       0 UNK         0.5000 
      3 O          -3.6240  -12.3266  -51.5437 O.2       0 UNK        -0.5000 
      4 N          -3.1160  -14.4646  -51.0248 N.am      1 UNK        -0.5000 
      5 CA         -2.0923  -14.2132  -50.0048 C.3       1 UNK         0.1400 
      6 C6         -0.8557  -15.1376  -50.1771 C.3       23 UNK        -0.0398 
      7 S7         -0.2484  -15.3192  -51.8935 S.3       23 UNK        -0.2404 
      8 C8         -0.2514  -17.1367  -52.0883 C.3       23 UNK        -0.0205 
      9 C9          1.0595  -17.7625  -51.6248 C.ar      23 UNK        -0.0193 
     10 C10         1.9279  -18.3453  -52.5557 C.ar      23 UNK        -0.1150 
     11 C11         3.1469  -18.8944  -52.1443 C.ar      23 UNK        -0.0193 
     12 C12         3.5021  -18.8376  -50.7941 C.ar      23 UNK        -0.1150 
     13 C13         2.6373  -18.2811  -49.8516 C.ar      23 UNK        -0.0193 
     14 C14         1.4127  -17.7567  -50.2702 C.ar      23 UNK        -0.1150 
     15 C15         3.0484  -18.2277  -48.3892 C.3       23 UNK        -0.0205 
     16 S16         3.0209  -19.8712  -47.6149 S.3       23 UNK        -0.2404 
     17 C17         1.2432  -20.0803  -47.2653 C.3       23 UNK        -0.0398 
     18 CA          0.7774  -21.5382  -47.4772 C.3       11 UNK         0.1400 
     19 N           1.5306  -22.4819  -46.6505 N.am      11 UNK        -0.5000 
     20 C           1.5591  -23.8100  -46.8220 C.2       10 UNK         0.5000 
     21 O           0.9742  -24.3999  -47.7303 O.2       10 UNK        -0.5000 
     22 CA          2.3363  -24.6099  -45.7595 C.3       10 UNK         0.1400 
     23 CB          3.8202  -24.7150  -46.1403 C.3       10 UNK        -0.1800 
     24 N           2.2200  -24.0128  -44.4261 N.am      10 UNK        -0.5000 
     25 C           1.0802  -23.9098  -43.7319 C.2       9 UNK         0.5000 
     26 O           0.0144  -24.3938  -44.1116 O.2       9 UNK        -0.5000 
     27 CA          1.1068  -23.0779  -42.4364 C.3       9 UNK         0.1400 
     28 CB          1.5382  -23.9309  -41.2289 C.3       9 UNK        -0.1800 
     29 N           1.8779  -21.8288  -42.5279 N.am      9 UNK        -0.5000 
     30 C           3.2077  -21.6556  -42.6132 C.2       8 UNK         0.5000 
     31 O           4.0077  -22.5855  -42.7206 O.2       8 UNK        -0.5000 
     32 CA          3.7461  -20.2068  -42.6035 C.3       8 UNK         0.1400 
     33 CB          4.2682  -19.8215  -43.9948 C.3       8 UNK        -0.1800 
     34 N           2.7574  -19.2099  -42.1910 N.am      8 UNK        -0.5000 
     35 C           2.2380  -19.0907  -40.9608 C.2       7 UNK         0.5000 
     36 O           2.6364  -19.7360  -39.9907 O.2       7 UNK        -0.5000 
     37 CA          1.0502  -18.1200  -40.7862 C.3       7 UNK         0.1400 
     38 CB          1.4781  -16.8878  -39.9752 C.3       7 UNK        -0.1800 
     39 N           0.4293  -17.6819  -42.0434 N.am      7 UNK        -0.5000 
     40 C          -0.1960  -18.4814  -42.9237 C.2       6 UNK         0.5000 
     41 O          -0.2803  -19.7019  -42.7832 O.2       6 UNK        -0.5000 
     42 CA         -0.7789  -17.8293  -44.1950 C.3       6 UNK         0.1400 
     43 CB         -2.2981  -17.6466  -44.0650 C.3       6 UNK        -0.1800 
     44 N          -0.1584  -16.5442  -44.5276 N.am      6 UNK        -0.5000 
     45 C           1.1128  -16.4035  -44.9364 C.2       5 UNK         0.5000 
     46 O           1.8756  -17.3555  -45.0992 O.2       5 UNK        -0.5000 
     47 CA          1.6415  -14.9712  -45.1621 C.3       5 UNK         0.1400 
     48 CB          1.6145  -14.6093  -46.6543 C.3       5 UNK        -0.1800 
     49 N           0.9160  -13.9454  -44.4090 N.am      5 UNK        -0.5000 
     50 C           0.8819  -13.8552  -43.0718 C.2       4 UNK         0.5000 
     51 O           1.4883  -14.6234  -42.3265 O.2       4 UNK        -0.5000 
     52 CA         -0.0050  -12.7526  -42.4576 C.3       4 UNK         0.1400 
     53 CB          0.8466  -11.5320  -42.0776 C.3       4 UNK        -0.1800 
     54 N          -1.1169  -12.3123  -43.3087 N.am      4 UNK        -0.5000 
     55 C          -2.1009  -13.0963  -43.7705 C.2       3 UNK         0.5000 
     56 O          -2.1445  -14.3121  -43.5674 O.2       3 UNK        -0.5000 
     57 CA         -3.2021  -12.4316  -44.6166 C.3       3 UNK         0.1400 
     58 CB         -2.8135  -11.0595  -45.2048 C.3       3 UNK        -0.1800 
     59 N          -3.5420  -13.3456  -45.6966 N.am      3 UNK        -0.5000 
     60 C          -4.7489  -13.5667  -46.2160 C.2       2 UNK         0.5000 
     61 O          -5.7593  -12.9382  -45.8942 O.2       2 UNK        -0.5000 
     62 CA         -4.8168  -14.6827  -47.2801 C.3       2 UNK         0.1400 
     63 CB         -6.2571  -15.0108  -47.7119 C.3       2 UNK        -0.1800 
     64 N          -4.0280  -14.3891  -48.4784 N.am      2 UNK        -0.5000 
     65 C          -2.6904  -14.3848  -48.5871 C.2       1 UNK         0.5000 
     66 O          -1.9368  -14.5587  -47.6275 O.2       1 UNK        -0.5000 
     67 C          -0.7378  -21.6611  -47.2260 C.2       11 UNK         0.5000 
     68 O          -1.5169  -21.5612  -48.1710 O.2       11 UNK        -0.5000 
     69 N          -1.1376  -21.9129  -45.9685 N.am      12 UNK        -0.5000 
     70 CA         -2.5381  -22.0562  -45.5562 C.3       12 UNK         0.1400 
     71 CB         -2.6396  -22.0930  -44.0254 C.3       12 UNK        -0.1800 
     72 C          -3.2546  -23.2706  -46.1769 C.2       12 UNK         0.5000 
     73 O          -4.4826  -23.2591  -46.2705 O.2       12 UNK        -0.5000 
     74 N          -2.4867  -24.2689  -46.6368 N.am      13 UNK        -0.5000 
     75 CA         -2.9816  -25.4125  -47.4046 C.3       13 UNK         0.1400 
     76 CB         -1.8446  -26.4264  -47.5957 C.3       13 UNK        -0.1800 
     77 C          -3.5846  -25.0120  -48.7670 C.2       13 UNK         0.5000 
     78 O          -4.4642  -25.7146  -49.2661 O.2       13 UNK        -0.5000 
     79 N          -3.1518  -23.8711  -49.3250 N.am      14 UNK        -0.5000 
     80 CA         -3.6877  -23.2723  -50.5464 C.3       14 UNK         0.1400 
     81 CB         -2.5786  -22.4451  -51.2208 C.3       14 UNK        -0.1800 
     82 C          -4.9541  -22.4429  -50.2497 C.2       14 UNK         0.5000 
     83 O          -5.0020  -21.2563  -50.5744 O.2       14 UNK        -0.5000 
     84 N          -5.9498  -23.0796  -49.6156 N.am      15 UNK        -0.5000 
     85 CA         -7.2635  -22.5365  -49.2484 C.3       15 UNK         0.1400 
     86 CB         -8.1126  -22.3072  -50.5171 C.3       15 UNK        -0.1800 
     87 C          -7.1584  -21.2738  -48.3679 C.2       15 UNK         0.5000 
     88 O          -7.6483  -20.2114  -48.7495 O.2       15 UNK        -0.5000 
     89 N          -6.4563  -21.3971  -47.2313 N.am      16 UNK        -0.5000 
     90 CA         -6.1036  -20.3133  -46.3007 C.3       16 UNK         0.1400 
     91 CB         -7.3595  -19.6956  -45.6507 C.3       16 UNK        -0.1800 
     92 C          -5.1758  -19.2584  -46.9430 C.2       16 UNK         0.5000 
     93 O          -5.2024  -18.0913  -46.5551 O.2       16 UNK        -0.5000 
     94 N          -4.3774  -19.7103  -47.9207 N.am      17 UNK        -0.5000 
     95 CA         -3.4612  -18.9517  -48.7741 C.3       17 UNK         0.1400 
     96 CB         -2.3950  -18.2163  -47.9363 C.3       17 UNK        -0.1800 
     97 C          -4.1733  -18.0393  -49.7947 C.2       17 UNK         0.5000 
     98 O          -3.5229  -17.1817  -50.3901 O.2       17 UNK        -0.5000 
     99 N          -5.4814  -18.2380  -50.0153 N.am      18 UNK        -0.5000 
    100 CA        -6.2579  -17.5141  -51.0223 C.3       18 UNK         0.1400 
    101 CB        -7.7554  -17.6463  -50.7108 C.3       18 UNK        -0.1800 
    102 C         -5.9639  -17.9846  -52.4598 C.2       18 UNK         0.5000 
    103 O         -6.1607  -17.2053  -53.3930 O.2       18 UNK        -0.5000 
    104 N         -5.5057  -19.2326  -52.6223 N.am      19 UNK        -0.5000 
    105 CA        -5.0580  -19.7854  -53.8974 C.3       19 UNK         0.1400 
    106 CB        -5.4664  -21.2659  -53.9760 C.3       19 UNK        -0.1800 
    107 C         -3.5350  -19.6246  -54.0479 C.2       19 UNK         0.5000 
    108 O         -2.8160  -19.4776  -53.0578 O.2       19 UNK        -0.5000 
    109 N         -3.0631  -19.6995  -55.2971 N.am      20 UNK        -0.5000 
    110 CA        -1.6523  -19.5682  -55.6756 C.3       20 UNK         0.1400 
    111 CB        -1.5863  -19.0192  -57.1111 C.3       20 UNK        -0.1800 
    112 C         -0.8475  -20.8809  -55.5456 C.2       20 UNK         0.5000 
    113 O          0.3080  -20.9206  -55.9694 O.2       20 UNK        -0.5000 
    114 N         -1.4597  -21.9351  -54.9845 N.am      21 UNK        -0.5000 
    115 CA        -0.8980  -23.2856  -54.8634 C.3       21 UNK         0.1400 
    116 CB        -2.0143  -24.2660  -54.4673 C.3       21 UNK        -0.1800 
    117 C          0.3241  -23.4109  -53.9262 C.2       21 UNK         0.5000 
    118 O          1.0122  -24.4303  -53.9868 O.2       21 UNK        -0.5000 
    119 N          0.6006  -22.3778  -53.1161 N.am      22 UNK        -0.5000 
    120 CA         1.8460  -22.2115  -52.3422 C.3       22 UNK         0.1400 
    121 C          1.9816  -23.1326  -51.0887 C.2       22 UNK         0.5000 
    122 N          0.9014  -23.7174  -50.5871 N.am      22 UNK        -0.7600 
    123 O          3.0633  -23.2914  -50.5315 O.2       22 UNK        -0.5000 
    124 C124        3.0938  -22.2040  -53.2787 C.3       23 UNK        -0.0398 
    125 S125        4.5285  -21.2492  -52.6789 S.3       23 UNK        -0.2404 
    126 C126        4.0907  -19.5410  -53.1492 C.3       23 UNK        -0.0205 
    127 H127       -4.5777  -15.0648  -53.0286 H         1 UNK         0.0600 
    128 H128       -5.7971  -13.9805  -52.3448 H         1 UNK         0.0600 
    129 H129       -4.7380  -13.4223  -53.6461 H         1 UNK         0.0600 
    130 H130       -3.3206  -15.4529  -51.1561 H         1 UNK         0.3000 
    131 H131       -1.7447  -13.1812  -50.0789 H         1 UNK         0.0600 
    132 H132       -1.0958  -16.1276  -49.7965 H         1 UNK         0.0800 
    133 H133       -0.0279  -14.7750  -49.5658 H         1 UNK         0.0800 
    134 H134       -0.4233  -17.3617  -53.1414 H         1 UNK         0.0800 
    135 H135       -1.0896  -17.5857  -51.5536 H         1 UNK         0.0800 
    136 H136        1.6572  -18.3681  -53.6021 H         1 UNK         0.1150 
    137 H137        4.4490  -19.2469  -50.4706 H         1 UNK         0.1150 
    138 H138        0.7499  -17.3235  -49.5381 H         1 UNK         0.1150 
    139 H139        4.0582  -17.8216  -48.3165 H         1 UNK         0.0800 
    140 H140        2.4062  -17.5521  -47.8244 H         1 UNK         0.0800 
    141 H141        1.0643  -19.7592  -46.2383 H         1 UNK         0.0800 
    142 H142        0.6701  -19.4065  -47.9045 H         1 UNK         0.0800 
    143 H143        0.9526  -21.7937  -48.5237 H         1 UNK         0.0600 
    144 H144        2.0731  -22.0866  -45.8979 H         1 UNK         0.3000 
    145 H145        1.9145  -25.6164  -45.7228 H         1 UNK         0.0600 
    146 H146        4.3661  -25.3368  -45.4306 H         1 UNK         0.0600 
    147 H147        3.9386  -25.1656  -47.1267 H         1 UNK         0.0600 
    148 H148        4.2998  -23.7356  -46.1668 H         1 UNK         0.0600 
    149 H149        3.0557  -23.6033  -44.0173 H         1 UNK         0.3000 
    150 H150        0.0786  -22.7617  -42.2534 H         1 UNK         0.0600 
    151 H151        0.8719  -24.7848  -41.1009 H         1 UNK         0.0600 
    152 H152        1.5053  -23.3514  -40.3062 H         1 UNK         0.0600 
    153 H153        2.5487  -24.3237  -41.3433 H         1 UNK         0.0600 
    154 H154        1.3057  -20.9907  -42.5012 H         1 UNK         0.3000 
    155 H155        4.5802  -20.1744  -41.8998 H         1 UNK         0.0600 
    156 H156        5.0153  -20.5320  -44.3509 H         1 UNK         0.0600 
    157 H157        4.7357  -18.8368  -43.9831 H         1 UNK         0.0600 
    158 H158        3.4604  -19.7967  -44.7255 H         1 UNK         0.0600 
    159 H159        2.3778  -18.6266  -42.9246 H         1 UNK         0.3000 
    160 H160        0.2857  -18.6514  -40.2158 H         1 UNK         0.0600 
    161 H161        2.2878  -16.3472  -40.4661 H         1 UNK         0.0600 
    162 H162        0.6476  -16.1961  -39.8331 H         1 UNK         0.0600 
    163 H163        1.8333  -17.1765  -38.9851 H         1 UNK         0.0600 
    164 H164        0.5038  -16.6947  -42.2551 H         1 UNK         0.3000 
    165 H165       -0.5967  -18.5142  -45.0247 H         1 UNK         0.0600 
    166 H166       -2.7240  -17.2040  -44.9659 H         1 UNK         0.0600 
    167 H167       -2.7950  -18.6049  -43.9094 H         1 UNK         0.0600 
    168 H168       -2.5546  -17.0025  -43.2233 H         1 UNK         0.0600 
    169 H169       -0.7250  -15.7165  -44.3800 H         1 UNK         0.3000 
    170 H170        2.6809  -14.9537  -44.8276 H         1 UNK         0.0600 
    171 H171        2.2252  -15.2992  -47.2361 H         1 UNK         0.0600 
    172 H172        0.6033  -14.6453  -47.0574 H         1 UNK         0.0600 
    173 H173        2.0099  -13.6082  -46.8267 H         1 UNK         0.0600 
    174 H174        0.3810  -13.2801  -44.9469 H         1 UNK         0.3000 
    175 H175       -0.4375  -13.1640  -41.5432 H         1 UNK         0.0600 
    176 H176        1.2801  -11.0549  -42.9575 H         1 UNK         0.0600 
    177 H177        0.2543  -10.7862  -41.5472 H         1 UNK         0.0600 
    178 H178        1.6691  -11.8178  -41.4204 H         1 UNK         0.0600 
    179 H179       -1.1440  -11.3281  -43.5330 H         1 UNK         0.3000 
    180 H180       -4.0664  -12.3040  -43.9620 H         1 UNK         0.0600 
    181 H181       -2.6330  -10.3243  -44.4200 H         1 UNK         0.0600 
    182 H182       -1.9165  -11.1243  -45.8222 H         1 UNK         0.0600 
    183 H183       -3.6143  -10.6630  -45.8294 H         1 UNK         0.0600 
    184 H184       -2.7734  -13.9055  -46.0577 H         1 UNK         0.3000 
    185 H185       -4.4010  -15.5791  -46.8173 H         1 UNK         0.0600 
    186 H186       -6.8748  -15.2655  -46.8498 H         1 UNK         0.0600 
    187 H187       -6.7289  -14.1706  -48.2226 H         1 UNK         0.0600 
    188 H188       -6.2779  -15.8696  -48.3822 H         1 UNK         0.0600 
    189 H189       -4.5533  -14.2250  -49.3236 H         1 UNK         0.3000 
    190 H190       -0.4420  -22.0394  -45.2493 H         1 UNK         0.3000 
    191 H191       -3.0636  -21.1647  -45.8987 H         1 UNK         0.0600 
    192 H192       -3.6808  -22.1545  -43.7062 H         1 UNK         0.0600 
    193 H193       -2.2231  -21.1921  -43.5793 H         1 UNK         0.0600 
    194 H194       -2.1207  -22.9529  -43.6035 H         1 UNK         0.0600 
    195 H195       -1.4865  -24.2065  -46.5067 H         1 UNK         0.3000 
    196 H196       -3.7711  -25.8891  -46.8200 H         1 UNK         0.0600 
    197 H197       -2.2114  -27.3356  -48.0734 H         1 UNK         0.0600 
    198 H198       -1.4040  -26.7146  -46.6410 H         1 UNK         0.0600 
    199 H199       -1.0506  -26.0255  -48.2260 H         1 UNK         0.0600 
    200 H200       -2.4722  -23.3094  -48.8239 H         1 UNK         0.3000 
    201 H201       -3.9747  -24.0649  -51.2404 H         1 UNK         0.0600 
    202 H202       -1.6964  -23.0533  -51.4053 H         1 UNK         0.0600 
    203 H203       -2.2757  -21.5900  -50.6188 H         1 UNK         0.0600 
    204 H204       -2.9086  -22.0560  -52.1820 H         1 UNK         0.0600 
    205 H205       -5.7907  -24.0514  -49.3746 H         1 UNK         0.3000 
    206 H206       -7.7630  -23.2966  -48.6460 H         1 UNK         0.0600 
    207 H207       -8.2086  -23.2245  -51.0979 H         1 UNK         0.0600 
    208 H208       -9.1202  -21.9797  -50.2586 H         1 UNK         0.0600 
    209 H209       -7.6781  -21.5452  -51.1657 H         1 UNK         0.0600 
    210 H210       -6.0311  -22.2945  -47.0133 H         1 UNK         0.3000 
    211 H211       -5.5240  -20.7767  -45.5017 H         1 UNK         0.0600 
    212 H212       -7.9506  -19.1238  -46.3664 H         1 UNK         0.0600 
    213 H213       -7.0849  -19.0163  -44.8429 H         1 UNK         0.0600 
    214 H214       -8.0013  -20.4652  -45.2221 H         1 UNK         0.0600 
    215 H215       -4.4801  -20.6795  -48.1848 H         1 UNK         0.3000 
    216 H216       -2.9403  -19.6964  -49.3747 H         1 UNK         0.0600 
    217 H217       -1.5443  -17.9373  -48.5549 H         1 UNK         0.0600 
    218 H218       -2.0123  -18.8488  -47.1363 H         1 UNK         0.0600 
    219 H219       -2.7896  -17.3071  -47.4841 H         1 UNK         0.0600 
    220 H220       -5.9589  -18.9822  -49.5207 H         1 UNK         0.3000 
    221 H221       -5.9960  -16.4558  -50.9597 H         1 UNK         0.0600 
    222 H222       -8.1035  -18.6710  -50.8448 H         1 UNK         0.0600 
    223 H223       -7.9773  -17.3464  -49.6864 H         1 UNK         0.0600 
    224 H224       -8.3469  -17.0126  -51.3725 H         1 UNK         0.0600 
    225 H225       -5.3178  -19.8018  -51.8006 H         1 UNK         0.3000 
    226 H226       -5.5424  -19.2587  -54.7223 H         1 UNK         0.0600 
    227 H227       -6.5429  -21.3821  -53.8495 H         1 UNK         0.0600 
    228 H228       -5.2068  -21.6953  -54.9442 H         1 UNK         0.0600 
    229 H229       -4.9781  -21.8672  -53.2116 H         1 UNK         0.0600 
    230 H230       -3.7121  -19.8470  -56.0572 H         1 UNK         0.3000 
    231 H231       -1.1761  -18.8389  -55.0174 H         1 UNK         0.0600 
    232 H232       -2.0213  -19.7161  -57.8285 H         1 UNK         0.0600 
    233 H233       -2.1199  -18.0723  -57.1959 H         1 UNK         0.0600 
    234 H234       -0.5557  -18.8339  -57.4165 H         1 UNK         0.0600 
    235 H235       -2.4059  -21.8083  -54.6604 H         1 UNK         0.3000 
    236 H236       -0.5483  -23.5751  -55.8566 H         1 UNK         0.0600 
    237 H237       -2.4447  -24.0290  -53.4967 H         1 UNK         0.0600 
    238 H238       -2.8211  -24.2601  -55.2005 H         1 UNK         0.0600 
    239 H239       -1.6365  -25.2879  -54.4144 H         1 UNK         0.0600 
    240 H240       -0.0290  -21.5889  -53.1186 H         1 UNK         0.3000 
    241 H241        1.7527  -21.2144  -51.9157 H         1 UNK         0.0600 
    242 H242        0.9827  -24.2370  -49.7197 H         1 UNK         0.3800 
    243 H243        0.0078  -23.6134  -51.0341 H         1 UNK         0.3800 
    244 H244        2.8270  -21.7961  -54.2549 H         1 UNK         0.0800 
    245 H245        3.4233  -23.2257  -53.4732 H         1 UNK         0.0800 
    246 H246        5.0044  -18.9472  -53.1946 H         1 UNK         0.0800 
    247 H247        3.6676  -19.5309  -54.1548 H         1 UNK         0.0800 
@<TRIPOS>BOND
     1    1    2 1    
     2    1  127 1    
     3    1  128 1    
     4    1  129 1    
     5    2    3 2    
     6    2    4 am   BACKBONE|DICT|INTERRES
     7    4    5 1    
     8    4  130 1    
     9    5    6 1    
    10    5   65 1    
    11    5  131 1    
    12    6    7 1    
    13    6  132 1    
    14    6  133 1    
    15    7    8 1    
    16    8    9 1    
    17    8  134 1    
    18    8  135 1    
    19    9   10 ar   
    20    9   14 ar   
    21   10   11 ar   
    22   10  136 1    
    23   11   12 ar   
    24   11  126 1    
    25   12   13 ar   
    26   12  137 1    
    27   13   14 ar   
    28   13   15 1    
    29   14  138 1    
    30   15   16 1    
    31   15  139 1    
    32   15  140 1    
    33   16   17 1    
    34   17   18 1    
    35   17  141 1    
    36   17  142 1    
    37   18   19 1    
    38   18   67 1    
    39   18  143 1    
    40   19   20 am   BACKBONE|DICT|INTERRES
    41   19  144 1    
    42   20   21 2    
    43   20   22 1    
    44   22   23 1    
    45   22   24 1    
    46   22  145 1    
    47   23  146 1    
    48   23  147 1    
    49   23  148 1    
    50   24   25 am   BACKBONE|DICT|INTERRES
    51   24  149 1    
    52   25   26 2    
    53   25   27 1    
    54   27   28 1    
    55   27   29 1    
    56   27  150 1    
    57   28  151 1    
    58   28  152 1    
    59   28  153 1    
    60   29   30 am   BACKBONE|DICT|INTERRES
    61   29  154 1    
    62   30   31 2    
    63   30   32 1    
    64   32   33 1    
    65   32   34 1    
    66   32  155 1    
    67   33  156 1    
    68   33  157 1    
    69   33  158 1    
    70   34   35 am   BACKBONE|DICT|INTERRES
    71   34  159 1    
    72   35   36 2    
    73   35   37 1    
    74   37   38 1    
    75   37   39 1    
    76   37  160 1    
    77   38  161 1    
    78   38  162 1    
    79   38  163 1    
    80   39   40 am   BACKBONE|DICT|INTERRES
    81   39  164 1    
    82   40   41 2    
    83   40   42 1    
    84   42   43 1    
    85   42   44 1    
    86   42  165 1    
    87   43  166 1    
    88   43  167 1    
    89   43  168 1    
    90   44   45 am   BACKBONE|DICT|INTERRES
    91   44  169 1    
    92   45   46 2    
    93   45   47 1    
    94   47   48 1    
    95   47   49 1    
    96   47  170 1    
    97   48  171 1    
    98   48  172 1    
    99   48  173 1    
   100   49   50 am   BACKBONE|DICT|INTERRES
   101   49  174 1    
   102   50   51 2    
   103   50   52 1    
   104   52   53 1    
   105   52   54 1    
   106   52  175 1    
   107   53  176 1    
   108   53  177 1    
   109   53  178 1    
   110   54   55 am   BACKBONE|DICT|INTERRES
   111   54  179 1    
   112   55   56 2    
   113   55   57 1    
   114   57   58 1    
   115   57   59 1    
   116   57  180 1    
   117   58  181 1    
   118   58  182 1    
   119   58  183 1    
   120   59   60 am   BACKBONE|DICT|INTERRES
   121   59  184 1    
   122   60   61 2    
   123   60   62 1    
   124   62   63 1    
   125   62   64 1    
   126   62  185 1    
   127   63  186 1    
   128   63  187 1    
   129   63  188 1    
   130   64   65 am   BACKBONE|DICT|INTERRES
   131   64  189 1    
   132   65   66 2    
   133   67   68 2    
   134   67   69 am   BACKBONE|DICT|INTERRES
   135   69   70 1    
   136   69  190 1    
   137   70   71 1    
   138   70   72 1    
   139   70  191 1    
   140   71  192 1    
   141   71  193 1    
   142   71  194 1    
   143   72   73 2    
   144   72   74 am   BACKBONE|DICT|INTERRES
   145   74   75 1    
   146   74  195 1    
   147   75   76 1    
   148   75   77 1    
   149   75  196 1    
   150   76  197 1    
   151   76  198 1    
   152   76  199 1    
   153   77   78 2    
   154   77   79 am   BACKBONE|DICT|INTERRES
   155   79   80 1    
   156   79  200 1    
   157   80   81 1    
   158   80   82 1    
   159   80  201 1    
   160   81  202 1    
   161   81  203 1    
   162   81  204 1    
   163   82   83 2    
   164   82   84 am   BACKBONE|DICT|INTERRES
   165   84   85 1    
   166   84  205 1    
   167   85   86 1    
   168   85   87 1    
   169   85  206 1    
   170   86  207 1    
   171   86  208 1    
   172   86  209 1    
   173   87   88 2    
   174   87   89 am   BACKBONE|DICT|INTERRES
   175   89   90 1    
   176   89  210 1    
   177   90   91 1    
   178   90   92 1    
   179   90  211 1    
   180   91  212 1    
   181   91  213 1    
   182   91  214 1    
   183   92   93 2    
   184   92   94 am   BACKBONE|DICT|INTERRES
   185   94   95 1    
   186   94  215 1    
   187   95   96 1    
   188   95   97 1    
   189   95  216 1    
   190   96  217 1    
   191   96  218 1    
   192   96  219 1    
   193   97   98 2    
   194   97   99 am   BACKBONE|DICT|INTERRES
   195   99  100 1    
   196   99  220 1    
   197  100  101 1    
   198  100  102 1    
   199  100  221 1    
   200  101  222 1    
   201  101  223 1    
   202  101  224 1    
   203  102  103 2    
   204  102  104 am   BACKBONE|DICT|INTERRES
   205  104  105 1    
   206  104  225 1    
   207  105  106 1    
   208  105  107 1    
   209  105  226 1    
   210  106  227 1    
   211  106  228 1    
   212  106  229 1    
   213  107  108 2    
   214  107  109 am   BACKBONE|DICT|INTERRES
   215  109  110 1    
   216  109  230 1    
   217  110  111 1    
   218  110  112 1    
   219  110  231 1    
   220  111  232 1    
   221  111  233 1    
   222  111  234 1    
   223  112  113 2    
   224  112  114 am   BACKBONE|DICT|INTERRES
   225  114  115 1    
   226  114  235 1    
   227  115  116 1    
   228  115  117 1    
   229  115  236 1    
   230  116  237 1    
   231  116  238 1    
   232  116  239 1    
   233  117  118 2    
   234  117  119 am   BACKBONE|DICT|INTERRES
   235  119  120 1    
   236  119  240 1    
   237  120  121 1    
   238  120  124 1    
   239  120  241 1    
   240  121  122 am   BACKBONE|DICT|INTERRES
   241  121  123 2    
   242  122  242 1    
   243  122  243 1    
   244  124  125 1    
   245  124  244 1    
   246  124  245 1    
   247  125  126 1    
   248  126  246 1    
   249  126  247 1    
@<TRIPOS>SUBSTRUCTURE
     1 UNK         1 GROUP             0       ****    0 ROOT    
