@<TRIPOS>MOLECULE
3R540
247   249    1
SMALL
USER_CHARGES


@<TRIPOS>ATOM
      1 CA         -0.3281  -16.9542  -51.0288 C.3       0 UNK        -0.1800 
      2 C           0.6595  -16.2326  -50.1251 C.2       0 UNK         0.5000 
      3 O           1.5928  -16.8536  -49.6176 O.2       0 UNK        -0.5000 
      4 N           0.4763  -14.9169  -49.9453 N.am      1 UNK        -0.5000 
      5 CA          1.2262  -14.0616  -49.0097 C.3       1 UNK         0.1400 
      6 C6          0.5281  -12.7002  -48.7480 C.3       23 UNK        -0.0398 
      7 S7         -1.2790  -12.7702  -48.4615 S.3       23 UNK        -0.2404 
      8 C8         -1.4387  -13.6106  -46.8485 C.3       23 UNK        -0.0205 
      9 C9         -1.4260  -15.1257  -46.9973 C.ar      23 UNK        -0.0193 
     10 C10        -2.4442  -15.7738  -47.7055 C.ar      23 UNK        -0.1150 
     11 C11        -2.3948  -17.1550  -47.9152 C.ar      23 UNK        -0.0193 
     12 C12        -1.3217  -17.8884  -47.4048 C.ar      23 UNK        -0.1150 
     13 C13        -0.3090  -17.2548  -46.6827 C.ar      23 UNK        -0.0193 
     14 C14        -0.3802  -15.8787  -46.4577 C.ar      23 UNK        -0.1150 
     15 C15         0.8996  -18.0502  -46.2275 C.3       23 UNK        -0.0205 
     16 S16         0.5654  -19.0101  -44.7213 S.3       23 UNK        -0.2404 
     17 C17         1.7672  -20.3667  -44.9386 C.3       23 UNK        -0.0398 
     18 CA          1.1810  -21.7408  -45.3643 C.3       11 UNK         0.1400 
     19 N           0.7399  -22.5513  -44.2265 N.am      11 UNK        -0.5000 
     20 C           0.6743  -23.8905  -44.2594 C.2       10 UNK         0.5000 
     21 O           0.9768  -24.5630  -45.2462 O.2       10 UNK        -0.5000 
     22 CA          0.1584  -24.5937  -42.9916 C.3       10 UNK         0.1400 
     23 CB          1.2631  -24.6770  -41.9274 C.3       10 UNK        -0.1800 
     24 N          -1.0178  -23.9374  -42.4217 N.am      10 UNK        -0.5000 
     25 C          -2.2179  -23.8887  -43.0159 C.2       9 UNK         0.5000 
     26 O          -2.4621  -24.4041  -44.1063 O.2       9 UNK        -0.5000 
     27 CA         -3.3204  -23.0972  -42.2862 C.3       9 UNK         0.1400 
     28 CB         -4.0570  -23.9993  -41.2849 C.3       9 UNK        -0.1800 
     29 N          -2.8332  -21.8991  -41.5936 N.am      9 UNK        -0.5000 
     30 C          -2.2085  -20.8769  -42.1917 C.2       8 UNK         0.5000 
     31 O          -1.9215  -20.8606  -43.3912 O.2       8 UNK        -0.5000 
     32 CA         -1.8075  -19.6960  -41.2990 C.3       8 UNK         0.1400 
     33 CB         -0.5313  -20.0223  -40.5023 C.3       8 UNK        -0.1800 
     34 N          -1.5730  -18.5394  -42.1534 N.am      8 UNK        -0.5000 
     35 C          -1.6018  -17.2594  -41.7788 C.2       7 UNK         0.5000 
     36 O          -1.8589  -16.8814  -40.6327 O.2       7 UNK        -0.5000 
     37 CA         -1.3188  -16.2237  -42.8838 C.3       7 UNK         0.1400 
     38 CB         -2.6283  -15.6124  -43.4048 C.3       7 UNK        -0.1800 
     39 N          -0.4362  -15.1510  -42.4280 N.am      7 UNK        -0.5000 
     40 C           0.8324  -15.3152  -42.0325 C.2       6 UNK         0.5000 
     41 O           1.4250  -16.3955  -42.0403 O.2       6 UNK        -0.5000 
     42 CA          1.5760  -14.0406  -41.5941 C.3       6 UNK         0.1400 
     43 CB          2.5895  -14.3191  -40.4703 C.3       6 UNK        -0.1800 
     44 N           2.2813  -13.4538  -42.7294 N.am      6 UNK        -0.5000 
     45 C           1.7063  -12.7660  -43.7244 C.2       5 UNK         0.5000 
     46 O           0.5082  -12.4826  -43.7548 O.2       5 UNK        -0.5000 
     47 CA          2.6213  -12.3057  -44.8752 C.3       5 UNK         0.1400 
     48 CB          2.9909  -10.8238  -44.7102 C.3       5 UNK        -0.1800 
     49 N           3.8518  -13.0930  -45.0003 N.am      5 UNK        -0.5000 
     50 C           3.8995  -14.3343  -45.5009 C.2       4 UNK         0.5000 
     51 O           2.8991  -14.9538  -45.8608 O.2       4 UNK        -0.5000 
     52 CA          5.3016  -14.9642  -45.6101 C.3       4 UNK         0.1400 
     53 CB          5.7105  -15.6630  -44.2981 C.3       4 UNK        -0.1800 
     54 N           5.4271  -15.8431  -46.7790 N.am      4 UNK        -0.5000 
     55 C           4.9166  -17.0665  -46.9866 C.2       3 UNK         0.5000 
     56 O           4.3851  -17.7574  -46.1166 O.2       3 UNK        -0.5000 
     57 CA          5.0222  -17.5970  -48.4337 C.3       3 UNK         0.1400 
     58 CB          4.2396  -18.9067  -48.6478 C.3       3 UNK        -0.1800 
     59 N           4.5472  -16.6012  -49.3985 N.am      3 UNK        -0.5000 
     60 C           5.2875  -15.6162  -49.9304 C.2       2 UNK         0.5000 
     61 O           6.4830  -15.4618  -49.6801 O.2       2 UNK        -0.5000 
     62 CA          4.5727  -14.6041  -50.8504 C.3       2 UNK         0.1400 
     63 CB          4.6754  -15.0433  -52.3185 C.3       2 UNK        -0.1800 
     64 N           3.1638  -14.4347  -50.4997 N.am      2 UNK        -0.5000 
     65 C           2.7183  -13.8637  -49.3720 C.2       1 UNK         0.5000 
     66 O           3.4454  -13.2169  -48.6174 O.2       1 UNK        -0.5000 
     67 C           0.0942  -21.6798  -46.4612 C.2       11 UNK         0.5000 
     68 O           0.4336  -21.6924  -47.6426 O.2       11 UNK        -0.5000 
     69 N          -1.1873  -21.6814  -46.0608 N.am      12 UNK        -0.5000 
     70 CA         -2.3411  -21.7889  -46.9535 C.3       12 UNK         0.1400 
     71 CB         -3.6384  -21.5948  -46.1575 C.3       12 UNK        -0.1800 
     72 C          -2.3632  -23.1225  -47.7169 C.2       12 UNK         0.5000 
     73 O          -2.6121  -23.1208  -48.9213 O.2       12 UNK        -0.5000 
     74 N          -2.0557  -24.2276  -47.0222 N.am      13 UNK        -0.5000 
     75 CA         -1.8995  -25.5566  -47.6136 C.3       13 UNK         0.1400 
     76 CB         -1.7520  -26.6092  -46.5053 C.3       13 UNK        -0.1800 
     77 C          -0.7215  -25.6257  -48.6024 C.2       13 UNK         0.5000 
     78 O          -0.8800  -26.1860  -49.6869 O.2       13 UNK        -0.5000 
     79 N           0.4159  -25.0112  -48.2431 N.am      14 UNK        -0.5000 
     80 CA          1.5950  -24.8797  -49.1063 C.3       14 UNK         0.1400 
     81 CB          2.7678  -24.3079  -48.2958 C.3       14 UNK        -0.1800 
     82 C           1.3288  -24.0267  -50.3642 C.2       14 UNK         0.5000 
     83 O           1.8347  -24.3512  -51.4387 O.2       14 UNK        -0.5000 
     84 N           0.5029  -22.9825  -50.2160 N.am      15 UNK        -0.5000 
     85 CA          0.0108  -22.1194  -51.2922 C.3       15 UNK         0.1400 
     86 CB         -0.4437  -20.7842  -50.6788 C.3       15 UNK        -0.1800 
     87 C          -1.1202  -22.7561  -52.1332 C.2       15 UNK         0.5000 
     88 O          -1.5677  -22.1364  -53.0982 O.2       15 UNK        -0.5000 
     89 N          -1.5604  -23.9680  -51.7620 N.am      16 UNK        -0.5000 
     90 CA         -2.6130  -24.7730  -52.3874 C.3       16 UNK         0.1400 
     91 CB         -2.2168  -25.2046  -53.8150 C.3       16 UNK        -0.1800 
     92 C          -4.0194  -24.1450  -52.2841 C.2       16 UNK         0.5000 
     93 O          -4.8381  -24.3089  -53.1915 O.2       16 UNK        -0.5000 
     94 N          -4.2777  -23.4786  -51.1483 N.am      17 UNK        -0.5000 
     95 CA         -5.5562  -22.9618  -50.6565 C.3       17 UNK         0.1400 
     96 CB         -6.3904  -24.1191  -50.0691 C.3       17 UNK        -0.1800 
     97 C          -6.3231  -22.1179  -51.6916 C.2       17 UNK         0.5000 
     98 O          -6.0068  -20.9405  -51.8694 O.2       17 UNK        -0.5000 
     99 N          -7.3069  -22.7307  -52.3637 N.am      18 UNK        -0.5000 
    100 CA        -8.1480  -22.1272  -53.3981 C.3       18 UNK         0.1400 
    101 CB        -9.1929  -23.1548  -53.8564 C.3       18 UNK        -0.1800 
    102 C         -7.3652  -21.5782  -54.6061 C.2       18 UNK         0.5000 
    103 O         -7.8194  -20.6131  -55.2201 O.2       18 UNK        -0.5000 
    104 N         -6.1851  -22.1485  -54.8927 N.am      19 UNK        -0.5000 
    105 CA        -5.2628  -21.6696  -55.9274 C.3       19 UNK         0.1400 
    106 CB        -4.1316  -22.6907  -56.1031 C.3       19 UNK        -0.1800 
    107 C         -4.6757  -20.2756  -55.6227 C.2       19 UNK         0.5000 
    108 O         -4.3535  -19.5375  -56.5542 O.2       19 UNK        -0.5000 
    109 N         -4.5721  -19.9369  -54.3314 N.am      20 UNK        -0.5000 
    110 CA        -4.1331  -18.6373  -53.8237 C.3       20 UNK         0.1400 
    111 CB        -3.1454  -18.8843  -52.6726 C.3       20 UNK        -0.1800 
    112 C         -5.3177  -17.7710  -53.3509 C.2       20 UNK         0.5000 
    113 O         -5.0896  -16.6825  -52.8220 O.2       20 UNK        -0.5000 
    114 N         -6.5518  -18.2737  -53.5215 N.am      21 UNK        -0.5000 
    115 CA        -7.8195  -17.7193  -53.0334 C.3       21 UNK         0.1400 
    116 CB        -8.1588  -16.4018  -53.7608 C.3       21 UNK        -0.1800 
    117 C         -7.8660  -17.5936  -51.4935 C.2       21 UNK         0.5000 
    118 O         -8.4722  -16.6589  -50.9667 O.2       21 UNK        -0.5000 
    119 N         -7.2154  -18.5380  -50.8001 N.am      22 UNK        -0.5000 
    120 CA        -7.0744  -18.5670  -49.3351 C.3       22 UNK         0.1400 
    121 C         -8.3426  -19.0406  -48.5627 C.2       22 UNK         0.5000 
    122 N         -9.3763  -19.5465  -49.2248 N.am      22 UNK        -0.7600 
    123 O         -8.3943  -18.9426  -47.3402 O.2       22 UNK        -0.5000 
    124 C124       -5.8082  -19.3671  -48.9144 C.3       23 UNK        -0.0398 
    125 S125       -4.7963  -18.4945  -47.6750 S.3       23 UNK        -0.2404 
    126 C126       -3.4673  -17.8516  -48.7347 C.3       23 UNK        -0.0205 
    127 H127       -1.0908  -16.2783  -51.4158 H         1 UNK         0.0600 
    128 H128        0.1920  -17.4058  -51.8734 H         1 UNK         0.0600 
    129 H129       -0.8274  -17.7463  -50.4720 H         1 UNK         0.0600 
    130 H130       -0.3093  -14.4662  -50.3924 H         1 UNK         0.3000 
    131 H131        1.2543  -14.5930  -48.0603 H         1 UNK         0.0600 
    132 H132        0.6832  -12.0377  -49.6014 H         1 UNK         0.0800 
    133 H133        0.9863  -12.1961  -47.8965 H         1 UNK         0.0800 
    134 H134       -2.3823  -13.3132  -46.3893 H         1 UNK         0.0800 
    135 H135       -0.6496  -13.2714  -46.1758 H         1 UNK         0.0800 
    136 H136       -3.2580  -15.1964  -48.1210 H         1 UNK         0.1150 
    137 H137       -1.2564  -18.9502  -47.5894 H         1 UNK         0.1150 
    138 H138        0.4071  -15.3866  -45.9057 H         1 UNK         0.1150 
    139 H139        1.1954  -18.7149  -47.0403 H         1 UNK         0.0800 
    140 H140        1.7482  -17.3893  -46.0490 H         1 UNK         0.0800 
    141 H141        2.5141  -20.0554  -45.6710 H         1 UNK         0.0800 
    142 H142        2.3253  -20.4727  -44.0075 H         1 UNK         0.0800 
    143 H143        2.0194  -22.2785  -45.8127 H         1 UNK         0.0600 
    144 H144        0.4132  -22.0552  -43.4105 H         1 UNK         0.3000 
    145 H145       -0.1234  -25.6118  -43.2691 H         1 UNK         0.0600 
    146 H146        0.9322  -25.2492  -41.0605 H         1 UNK         0.0600 
    147 H147        2.1497  -25.1737  -42.3239 H         1 UNK         0.0600 
    148 H148        1.5675  -23.6885  -41.5811 H         1 UNK         0.0600 
    149 H149       -0.9037  -23.4825  -41.5282 H         1 UNK         0.3000 
    150 H150       -4.0405  -22.7702  -43.0386 H         1 UNK         0.0600 
    151 H151       -4.4486  -24.8907  -41.7772 H         1 UNK         0.0600 
    152 H152       -4.9037  -23.4808  -40.8348 H         1 UNK         0.0600 
    153 H153       -3.3989  -24.3307  -40.4807 H         1 UNK         0.0600 
    154 H154       -3.0222  -21.8458  -40.6030 H         1 UNK         0.3000 
    155 H155       -2.6311  -19.4814  -40.6150 H         1 UNK         0.0600 
    156 H156       -0.2460  -19.1931  -39.8548 H         1 UNK         0.0600 
    157 H157        0.3103  -20.2315  -41.1642 H         1 UNK         0.0600 
    158 H158       -0.6753  -20.8948  -39.8641 H         1 UNK         0.0600 
    159 H159       -1.3779  -18.7830  -43.1188 H         1 UNK         0.3000 
    160 H160       -0.8225  -16.7197  -43.7174 H         1 UNK         0.0600 
    161 H161       -3.1782  -15.1025  -42.6129 H         1 UNK         0.0600 
    162 H162       -3.2801  -16.3841  -43.8165 H         1 UNK         0.0600 
    163 H163       -2.4395  -14.8918  -44.2001 H         1 UNK         0.0600 
    164 H164       -0.8250  -14.2188  -42.4260 H         1 UNK         0.3000 
    165 H165        0.8463  -13.3218  -41.2147 H         1 UNK         0.0600 
    166 H166        3.3829  -14.9934  -40.7957 H         1 UNK         0.0600 
    167 H167        3.0560  -13.3968  -40.1240 H         1 UNK         0.0600 
    168 H168        2.0999  -14.7785  -39.6107 H         1 UNK         0.0600 
    169 H169        3.2641  -13.6671  -42.8075 H         1 UNK         0.3000 
    170 H170        2.0528  -12.4108  -45.8009 H         1 UNK         0.0600 
    171 H171        2.0964  -10.2030  -44.6438 H         1 UNK         0.0600 
    172 H172        3.5770  -10.6529  -43.8064 H         1 UNK         0.0600 
    173 H173        3.5703  -10.4651  -45.5612 H         1 UNK         0.0600 
    174 H174        4.7092  -12.6362  -44.7242 H         1 UNK         0.3000 
    175 H175        6.0114  -14.1548  -45.7877 H         1 UNK         0.0600 
    176 H176        4.9770  -16.4066  -43.9848 H         1 UNK         0.0600 
    177 H177        6.6752  -16.1604  -44.3973 H         1 UNK         0.0600 
    178 H178        5.7990  -14.9403  -43.4864 H         1 UNK         0.0600 
    179 H179        5.8419  -15.4012  -47.5901 H         1 UNK         0.3000 
    180 H180        6.0764  -17.8100  -48.6221 H         1 UNK         0.0600 
    181 H181        3.1749  -18.7749  -48.4539 H         1 UNK         0.0600 
    182 H182        4.5999  -19.6940  -47.9846 H         1 UNK         0.0600 
    183 H183        4.3493  -19.2689  -49.6700 H         1 UNK         0.0600 
    184 H184        3.5494  -16.6255  -49.5918 H         1 UNK         0.3000 
    185 H185        5.0740  -13.6399  -50.7428 H         1 UNK         0.0600 
    186 H186        5.7177  -15.1572  -52.6194 H         1 UNK         0.0600 
    187 H187        4.1779  -15.9990  -52.4888 H         1 UNK         0.0600 
    188 H188        4.2248  -14.3062  -52.9834 H         1 UNK         0.0600 
    189 H189        2.4944  -14.9443  -51.0575 H         1 UNK         0.3000 
    190 H190       -1.3890  -21.5901  -45.0685 H         1 UNK         0.3000 
    191 H191       -2.2744  -20.9881  -47.6911 H         1 UNK         0.0600 
    192 H192       -4.5073  -21.6240  -46.8157 H         1 UNK         0.0600 
    193 H193       -3.6469  -20.6304  -45.6490 H         1 UNK         0.0600 
    194 H194       -3.7709  -22.3712  -45.4053 H         1 UNK         0.0600 
    195 H195       -1.9263  -24.1585  -46.0177 H         1 UNK         0.3000 
    196 H196       -2.8116  -25.7802  -48.1710 H         1 UNK         0.0600 
    197 H197       -1.6440  -27.6090  -46.9276 H         1 UNK         0.0600 
    198 H198       -2.6288  -26.6231  -45.8577 H         1 UNK         0.0600 
    199 H199       -0.8792  -26.4202  -45.8803 H         1 UNK         0.0600 
    200 H200        0.4803  -24.6082  -47.3150 H         1 UNK         0.3000 
    201 H201        1.8724  -25.8819  -49.4396 H         1 UNK         0.0600 
    202 H202        2.9752  -24.9168  -47.4156 H         1 UNK         0.0600 
    203 H203        2.5696  -23.2903  -47.9610 H         1 UNK         0.0600 
    204 H204        3.6780  -24.2816  -48.8961 H         1 UNK         0.0600 
    205 H205        0.2017  -22.7372  -49.2773 H         1 UNK         0.3000 
    206 H206        0.8400  -21.9126  -51.9716 H         1 UNK         0.0600 
    207 H207        0.3478  -20.3305  -50.0814 H         1 UNK         0.0600 
    208 H208       -0.7044  -20.0683  -51.4564 H         1 UNK         0.0600 
    209 H209       -1.3170  -20.9104  -50.0385 H         1 UNK         0.0600 
    210 H210       -1.1401  -24.3838  -50.9403 H         1 UNK         0.3000 
    211 H211       -2.6725  -25.6850  -51.7922 H         1 UNK         0.0600 
    212 H212       -2.0827  -24.3542  -54.4811 H         1 UNK         0.0600 
    213 H213       -2.9742  -25.8525  -54.2575 H         1 UNK         0.0600 
    214 H214       -1.2818  -25.7646  -53.8047 H         1 UNK         0.0600 
    215 H215       -3.5121  -23.3770  -50.4835 H         1 UNK         0.3000 
    216 H216       -5.3121  -22.2870  -49.8357 H         1 UNK         0.0600 
    217 H217       -6.5839  -24.9027  -50.8024 H         1 UNK         0.0600 
    218 H218       -7.3517  -23.7638  -49.6951 H         1 UNK         0.0600 
    219 H219       -5.8707  -24.5798  -49.2286 H         1 UNK         0.0600 
    220 H220       -7.4623  -23.7110  -52.1793 H         1 UNK         0.3000 
    221 H221       -8.6727  -21.2853  -52.9420 H         1 UNK         0.0600 
    222 H222       -8.7232  -24.0378  -54.2919 H         1 UNK         0.0600 
    223 H223       -9.8174  -23.4813  -53.0246 H         1 UNK         0.0600 
    224 H224       -9.8559  -22.7292  -54.6110 H         1 UNK         0.0600 
    225 H225       -5.8657  -22.9267  -54.3231 H         1 UNK         0.3000 
    226 H226       -5.8157  -21.6025  -56.8666 H         1 UNK         0.0600 
    227 H227       -4.5202  -23.6880  -56.3100 H         1 UNK         0.0600 
    228 H228       -3.4790  -22.4135  -56.9318 H         1 UNK         0.0600 
    229 H229       -3.5158  -22.7466  -55.2060 H         1 UNK         0.0600 
    230 H230       -4.8840  -20.5962  -53.6275 H         1 UNK         0.3000 
    231 H231       -3.6145  -18.0767  -54.6038 H         1 UNK         0.0600 
    232 H232       -3.5948  -19.4703  -51.8700 H         1 UNK         0.0600 
    233 H233       -2.2694  -19.4228  -53.0319 H         1 UNK         0.0600 
    234 H234       -2.7957  -17.9466  -52.2412 H         1 UNK         0.0600 
    235 H235       -6.6275  -19.1624  -53.9984 H         1 UNK         0.3000 
    236 H236       -8.5883  -18.4463  -53.2986 H         1 UNK         0.0600 
    237 H237       -8.1234  -16.5293  -54.8427 H         1 UNK         0.0600 
    238 H238       -9.1643  -16.0633  -53.5082 H         1 UNK         0.0600 
    239 H239       -7.4686  -15.6010  -53.4941 H         1 UNK         0.0600 
    240 H240       -6.7565  -19.2900  -51.3069 H         1 UNK         0.3000 
    241 H241       -6.9322  -17.5280  -49.0311 H         1 UNK         0.0600 
    242 H242       -9.3561  -19.6210  -50.2283 H         1 UNK         0.3800 
    243 H243      -10.1937  -19.8434  -48.7152 H         1 UNK         0.3800 
    244 H244       -6.0661  -20.3500  -48.5166 H         1 UNK         0.0800 
    245 H245       -5.1728  -19.5733  -49.7759 H         1 UNK         0.0800 
    246 H246       -3.8885  -17.1649  -49.4712 H         1 UNK         0.0800 
    247 H247       -3.0193  -18.6719  -49.2980 H         1 UNK         0.0800 
@<TRIPOS>BOND
     1    1    2 1    
     2    1  127 1    
     3    1  128 1    
     4    1  129 1    
     5    2    3 2    
     6    2    4 am   BACKBONE|DICT|INTERRES
     7    4    5 1    
     8    4  130 1    
     9    5    6 1    
    10    5   65 1    
    11    5  131 1    
    12    6    7 1    
    13    6  132 1    
    14    6  133 1    
    15    7    8 1    
    16    8    9 1    
    17    8  134 1    
    18    8  135 1    
    19    9   10 ar   
    20    9   14 ar   
    21   10   11 ar   
    22   10  136 1    
    23   11   12 ar   
    24   11  126 1    
    25   12   13 ar   
    26   12  137 1    
    27   13   14 ar   
    28   13   15 1    
    29   14  138 1    
    30   15   16 1    
    31   15  139 1    
    32   15  140 1    
    33   16   17 1    
    34   17   18 1    
    35   17  141 1    
    36   17  142 1    
    37   18   19 1    
    38   18   67 1    
    39   18  143 1    
    40   19   20 am   BACKBONE|DICT|INTERRES
    41   19  144 1    
    42   20   21 2    
    43   20   22 1    
    44   22   23 1    
    45   22   24 1    
    46   22  145 1    
    47   23  146 1    
    48   23  147 1    
    49   23  148 1    
    50   24   25 am   BACKBONE|DICT|INTERRES
    51   24  149 1    
    52   25   26 2    
    53   25   27 1    
    54   27   28 1    
    55   27   29 1    
    56   27  150 1    
    57   28  151 1    
    58   28  152 1    
    59   28  153 1    
    60   29   30 am   BACKBONE|DICT|INTERRES
    61   29  154 1    
    62   30   31 2    
    63   30   32 1    
    64   32   33 1    
    65   32   34 1    
    66   32  155 1    
    67   33  156 1    
    68   33  157 1    
    69   33  158 1    
    70   34   35 am   BACKBONE|DICT|INTERRES
    71   34  159 1    
    72   35   36 2    
    73   35   37 1    
    74   37   38 1    
    75   37   39 1    
    76   37  160 1    
    77   38  161 1    
    78   38  162 1    
    79   38  163 1    
    80   39   40 am   BACKBONE|DICT|INTERRES
    81   39  164 1    
    82   40   41 2    
    83   40   42 1    
    84   42   43 1    
    85   42   44 1    
    86   42  165 1    
    87   43  166 1    
    88   43  167 1    
    89   43  168 1    
    90   44   45 am   BACKBONE|DICT|INTERRES
    91   44  169 1    
    92   45   46 2    
    93   45   47 1    
    94   47   48 1    
    95   47   49 1    
    96   47  170 1    
    97   48  171 1    
    98   48  172 1    
    99   48  173 1    
   100   49   50 am   BACKBONE|DICT|INTERRES
   101   49  174 1    
   102   50   51 2    
   103   50   52 1    
   104   52   53 1    
   105   52   54 1    
   106   52  175 1    
   107   53  176 1    
   108   53  177 1    
   109   53  178 1    
   110   54   55 am   BACKBONE|DICT|INTERRES
   111   54  179 1    
   112   55   56 2    
   113   55   57 1    
   114   57   58 1    
   115   57   59 1    
   116   57  180 1    
   117   58  181 1    
   118   58  182 1    
   119   58  183 1    
   120   59   60 am   BACKBONE|DICT|INTERRES
   121   59  184 1    
   122   60   61 2    
   123   60   62 1    
   124   62   63 1    
   125   62   64 1    
   126   62  185 1    
   127   63  186 1    
   128   63  187 1    
   129   63  188 1    
   130   64   65 am   BACKBONE|DICT|INTERRES
   131   64  189 1    
   132   65   66 2    
   133   67   68 2    
   134   67   69 am   BACKBONE|DICT|INTERRES
   135   69   70 1    
   136   69  190 1    
   137   70   71 1    
   138   70   72 1    
   139   70  191 1    
   140   71  192 1    
   141   71  193 1    
   142   71  194 1    
   143   72   73 2    
   144   72   74 am   BACKBONE|DICT|INTERRES
   145   74   75 1    
   146   74  195 1    
   147   75   76 1    
   148   75   77 1    
   149   75  196 1    
   150   76  197 1    
   151   76  198 1    
   152   76  199 1    
   153   77   78 2    
   154   77   79 am   BACKBONE|DICT|INTERRES
   155   79   80 1    
   156   79  200 1    
   157   80   81 1    
   158   80   82 1    
   159   80  201 1    
   160   81  202 1    
   161   81  203 1    
   162   81  204 1    
   163   82   83 2    
   164   82   84 am   BACKBONE|DICT|INTERRES
   165   84   85 1    
   166   84  205 1    
   167   85   86 1    
   168   85   87 1    
   169   85  206 1    
   170   86  207 1    
   171   86  208 1    
   172   86  209 1    
   173   87   88 2    
   174   87   89 am   BACKBONE|DICT|INTERRES
   175   89   90 1    
   176   89  210 1    
   177   90   91 1    
   178   90   92 1    
   179   90  211 1    
   180   91  212 1    
   181   91  213 1    
   182   91  214 1    
   183   92   93 2    
   184   92   94 am   BACKBONE|DICT|INTERRES
   185   94   95 1    
   186   94  215 1    
   187   95   96 1    
   188   95   97 1    
   189   95  216 1    
   190   96  217 1    
   191   96  218 1    
   192   96  219 1    
   193   97   98 2    
   194   97   99 am   BACKBONE|DICT|INTERRES
   195   99  100 1    
   196   99  220 1    
   197  100  101 1    
   198  100  102 1    
   199  100  221 1    
   200  101  222 1    
   201  101  223 1    
   202  101  224 1    
   203  102  103 2    
   204  102  104 am   BACKBONE|DICT|INTERRES
   205  104  105 1    
   206  104  225 1    
   207  105  106 1    
   208  105  107 1    
   209  105  226 1    
   210  106  227 1    
   211  106  228 1    
   212  106  229 1    
   213  107  108 2    
   214  107  109 am   BACKBONE|DICT|INTERRES
   215  109  110 1    
   216  109  230 1    
   217  110  111 1    
   218  110  112 1    
   219  110  231 1    
   220  111  232 1    
   221  111  233 1    
   222  111  234 1    
   223  112  113 2    
   224  112  114 am   BACKBONE|DICT|INTERRES
   225  114  115 1    
   226  114  235 1    
   227  115  116 1    
   228  115  117 1    
   229  115  236 1    
   230  116  237 1    
   231  116  238 1    
   232  116  239 1    
   233  117  118 2    
   234  117  119 am   BACKBONE|DICT|INTERRES
   235  119  120 1    
   236  119  240 1    
   237  120  121 1    
   238  120  124 1    
   239  120  241 1    
   240  121  122 am   BACKBONE|DICT|INTERRES
   241  121  123 2    
   242  122  242 1    
   243  122  243 1    
   244  124  125 1    
   245  124  244 1    
   246  124  245 1    
   247  125  126 1    
   248  126  246 1    
   249  126  247 1    
@<TRIPOS>SUBSTRUCTURE
     1 UNK         1 GROUP             0       ****    0 ROOT    
