@<TRIPOS>MOLECULE
3R540
247   249    1
SMALL
USER_CHARGES


@<TRIPOS>ATOM
      1 CA          5.3752  -14.8049  -50.9106 C.3       0 UNK        -0.1800 
      2 C           4.9317  -14.7008  -49.4591 C.2       0 UNK         0.5000 
      3 O           5.2204  -15.5954  -48.6631 O.2       0 UNK        -0.5000 
      4 N           4.2336  -13.6138  -49.1062 N.am      1 UNK        -0.5000 
      5 CA          3.6924  -13.3516  -47.7685 C.3       1 UNK         0.1400 
      6 C6          2.4242  -12.4509  -47.8285 C.3       23 UNK        -0.0398 
      7 S7          1.0970  -13.0743  -46.7396 S.3       23 UNK        -0.2404 
      8 C8         -0.1754  -13.5629  -47.9620 C.3       23 UNK        -0.0205 
      9 C9          0.2456  -14.6577  -48.9437 C.ar      23 UNK        -0.0193 
     10 C10        -0.3131  -14.6714  -50.2259 C.ar      23 UNK        -0.1150 
     11 C11         0.0395  -15.6610  -51.1479 C.ar      23 UNK        -0.0193 
     12 C12         0.9834  -16.6264  -50.7936 C.ar      23 UNK        -0.1150 
     13 C13         1.5269  -16.6499  -49.5064 C.ar      23 UNK        -0.0193 
     14 C14         1.1456  -15.6690  -48.5871 C.ar      23 UNK        -0.1150 
     15 C15         2.5204  -17.7304  -49.0926 C.3       23 UNK        -0.0205 
     16 S16         2.0353  -19.4193  -49.5840 S.3       23 UNK        -0.2404 
     17 C17         0.2807  -19.5209  -49.0864 C.3       23 UNK        -0.0398 
     18 CA         -0.0289  -20.8742  -48.4057 C.3       11 UNK         0.1400 
     19 N           0.3057  -20.8805  -46.9806 N.am      11 UNK        -0.5000 
     20 C           0.3731  -21.9875  -46.2289 C.2       10 UNK         0.5000 
     21 O           0.1891  -23.1237  -46.6676 O.2       10 UNK        -0.5000 
     22 CA          0.6411  -21.7893  -44.7262 C.3       10 UNK         0.1400 
     23 CB          2.1193  -21.4633  -44.4660 C.3       10 UNK        -0.1800 
     24 N          -0.2084  -20.7528  -44.1372 N.am      10 UNK        -0.5000 
     25 C          -1.5459  -20.8246  -44.0676 C.2       9 UNK         0.5000 
     26 O          -2.2020  -21.7853  -44.4693 O.2       9 UNK        -0.5000 
     27 CA         -2.2811  -19.6052  -43.4861 C.3       9 UNK         0.1400 
     28 CB         -2.2464  -19.6319  -41.9509 C.3       9 UNK        -0.1800 
     29 N          -1.7399  -18.3351  -43.9662 N.am      9 UNK        -0.5000 
     30 C          -1.7463  -17.9336  -45.2454 C.2       8 UNK         0.5000 
     31 O          -2.2361  -18.5824  -46.1679 O.2       8 UNK        -0.5000 
     32 CA         -1.0269  -16.6097  -45.5531 C.3       8 UNK         0.1400 
     33 CB         -1.8670  -15.4082  -45.0910 C.3       8 UNK        -0.1800 
     34 N           0.3000  -16.5526  -44.9402 N.am      8 UNK        -0.5000 
     35 C           1.2970  -17.4122  -45.1969 C.2       7 UNK         0.5000 
     36 O           1.2150  -18.3400  -45.9996 O.2       7 UNK        -0.5000 
     37 CA          2.5892  -17.2289  -44.3870 C.3       7 UNK         0.1400 
     38 CB          3.5229  -16.2216  -45.0732 C.3       7 UNK        -0.1800 
     39 N           2.3102  -16.8088  -43.0123 N.am      7 UNK        -0.5000 
     40 C           1.7591  -17.6210  -42.0971 C.2       6 UNK         0.5000 
     41 O           1.4609  -18.7960  -42.3194 O.2       6 UNK        -0.5000 
     42 CA          1.4498  -17.0118  -40.7192 C.3       6 UNK         0.1400 
     43 CB          2.7363  -16.7935  -39.9096 C.3       6 UNK        -0.1800 
     44 N           0.7096  -15.7537  -40.7989 N.am      6 UNK        -0.5000 
     45 C          -0.5180  -15.6011  -41.3084 C.2       5 UNK         0.5000 
     46 O          -1.1573  -16.5199  -41.8178 O.2       5 UNK        -0.5000 
     47 CA         -1.1397  -14.1899  -41.2675 C.3       5 UNK         0.1400 
     48 CB         -1.7956  -13.9092  -39.9023 C.3       5 UNK        -0.1800 
     49 N          -0.2236  -13.1121  -41.6655 N.am      5 UNK        -0.5000 
     50 C           0.8779  -12.6749  -41.0417 C.2       4 UNK         0.5000 
     51 O           1.2780  -13.0976  -39.9540 O.2       4 UNK        -0.5000 
     52 CA          1.6974  -11.6076  -41.7876 C.3       4 UNK         0.1400 
     53 CB          1.5274  -10.2315  -41.1265 C.3       4 UNK        -0.1800 
     54 N           3.1204  -11.9467  -41.8396 N.am      4 UNK        -0.5000 
     55 C           3.6262  -13.0592  -42.3870 C.2       3 UNK         0.5000 
     56 O           2.9471  -13.9470  -42.9098 O.2       3 UNK        -0.5000 
     57 CA          5.1493  -13.2084  -42.3563 C.3       3 UNK         0.1400 
     58 CB          5.5841  -14.3398  -41.4109 C.3       3 UNK        -0.1800 
     59 N           5.5901  -13.5042  -43.7122 N.am      3 UNK        -0.5000 
     60 C           6.7319  -13.0831  -44.2648 C.2       2 UNK         0.5000 
     61 O           7.5841  -12.4320  -43.6587 O.2       2 UNK        -0.5000 
     62 CA          6.9733  -13.4457  -45.7435 C.3       2 UNK         0.1400 
     63 CB          7.9037  -14.6638  -45.8489 C.3       2 UNK        -0.1800 
     64 N           5.7575  -13.7214  -46.5133 N.am      2 UNK        -0.5000 
     65 C           4.8017  -12.8352  -46.8224 C.2       1 UNK         0.5000 
     66 O           4.8107  -11.6658  -46.4357 O.2       1 UNK        -0.5000 
     67 C          -1.4803  -21.3222  -48.6652 C.2       11 UNK         0.5000 
     68 O          -1.7025  -22.0749  -49.6120 O.2       11 UNK        -0.5000 
     69 N          -2.4344  -20.9090  -47.8172 N.am      12 UNK        -0.5000 
     70 CA         -3.8277  -21.3559  -47.8818 C.3       12 UNK         0.1400 
     71 CB         -4.6933  -20.5673  -46.8894 C.3       12 UNK        -0.1800 
     72 C          -3.9700  -22.8687  -47.6469 C.2       12 UNK         0.5000 
     73 O          -4.6910  -23.5256  -48.3975 O.2       12 UNK        -0.5000 
     74 N          -3.2526  -23.4020  -46.6478 N.am      13 UNK        -0.5000 
     75 CA         -3.1825  -24.8328  -46.3486 C.3       13 UNK         0.1400 
     76 CB         -2.4144  -25.0558  -45.0376 C.3       13 UNK        -0.1800 
     77 C          -2.5624  -25.6462  -47.4988 C.2       13 UNK         0.5000 
     78 O          -3.1245  -26.6728  -47.8824 O.2       13 UNK        -0.5000 
     79 N          -1.4552  -25.1459  -48.0681 N.am      14 UNK        -0.5000 
     80 CA         -0.7900  -25.7185  -49.2435 C.3       14 UNK         0.1400 
     81 CB          0.5272  -24.9720  -49.5012 C.3       14 UNK        -0.1800 
     82 C          -1.6771  -25.7104  -50.5051 C.2       14 UNK         0.5000 
     83 O          -1.6138  -26.6467  -51.3017 O.2       14 UNK        -0.5000 
     84 N          -2.5233  -24.6809  -50.6329 N.am      15 UNK        -0.5000 
     85 CA         -3.5405  -24.5229  -51.6720 C.3       15 UNK         0.1400 
     86 CB         -3.8012  -23.0209  -51.8781 C.3       15 UNK        -0.1800 
     87 C          -4.8502  -25.2913  -51.3838 C.2       15 UNK         0.5000 
     88 O          -5.8483  -25.0379  -52.0606 O.2       15 UNK        -0.5000 
     89 N          -4.8379  -26.2033  -50.3988 N.am      16 UNK        -0.5000 
     90 CA         -5.9337  -27.0842  -49.9824 C.3       16 UNK         0.1400 
     91 CB         -6.2985  -28.0762  -51.1071 C.3       16 UNK        -0.1800 
     92 C          -7.1440  -26.2983  -49.4427 C.2       16 UNK         0.5000 
     93 O          -8.2656  -26.4736  -49.9197 O.2       16 UNK        -0.5000 
     94 N          -6.8687  -25.4246  -48.4646 N.am      17 UNK        -0.5000 
     95 CA         -7.7854  -24.4634  -47.8409 C.3       17 UNK         0.1400 
     96 CB         -8.9592  -25.1703  -47.1306 C.3       17 UNK        -0.1800 
     97 C          -8.2279  -23.3734  -48.8376 C.2       17 UNK         0.5000 
     98 O          -9.4049  -23.0120  -48.8876 O.2       17 UNK        -0.5000 
     99 N          -7.2513  -22.8816  -49.6154 N.am      18 UNK        -0.5000 
    100 CA        -7.3693  -21.8642  -50.6653 C.3       18 UNK         0.1400 
    101 CB        -7.6837  -20.4858  -50.0483 C.3       18 UNK        -0.1800 
    102 C         -8.3366  -22.2584  -51.8037 C.2       18 UNK         0.5000 
    103 O         -9.0158  -21.3960  -52.3646 O.2       18 UNK        -0.5000 
    104 N         -8.3799  -23.5574  -52.1283 N.am      19 UNK        -0.5000 
    105 CA        -9.1237  -24.1017  -53.2625 C.3       19 UNK         0.1400 
    106 CB        -9.3823  -25.5979  -53.0332 C.3       19 UNK        -0.1800 
    107 C         -8.3659  -23.8730  -54.5813 C.2       19 UNK         0.5000 
    108 O         -8.9847  -23.5289  -55.5896 O.2       19 UNK        -0.5000 
    109 N         -7.0388  -24.0482  -54.5416 N.am      20 UNK        -0.5000 
    110 CA        -6.1233  -23.7126  -55.6292 C.3       20 UNK         0.1400 
    111 CB        -4.8494  -24.5592  -55.4807 C.3       20 UNK        -0.1800 
    112 C         -5.7853  -22.2091  -55.6242 C.2       20 UNK         0.5000 
    113 O         -5.9999  -21.5231  -54.6206 O.2       20 UNK        -0.5000 
    114 N         -5.2411  -21.7280  -56.7486 N.am      21 UNK        -0.5000 
    115 CA        -4.7542  -20.3579  -56.9181 C.3       21 UNK         0.1400 
    116 CB        -4.4547  -20.1208  -58.4068 C.3       21 UNK        -0.1800 
    117 C         -3.5024  -20.0723  -56.0637 C.2       21 UNK         0.5000 
    118 O         -2.7347  -20.9911  -55.7662 O.2       21 UNK        -0.5000 
    119 N         -3.3106  -18.7953  -55.7108 N.am      22 UNK        -0.5000 
    120 CA        -2.1853  -18.3127  -54.8893 C.3       22 UNK         0.1400 
    121 C         -0.8072  -18.2734  -55.6183 C.2       22 UNK         0.5000 
    122 N         -0.7495  -18.3992  -56.9388 N.am      22 UNK        -0.7600 
    123 O          0.2297  -18.1364  -54.9764 O.2       22 UNK        -0.5000 
    124 C124       -2.5231  -16.9486  -54.2200 C.3       23 UNK        -0.0398 
    125 S125       -2.0282  -16.8833  -52.4663 S.3       23 UNK        -0.2404 
    126 C126       -0.6268  -15.7233  -52.5117 C.3       23 UNK        -0.0205 
    127 H127        5.0645  -13.9372  -51.4931 H         1 UNK         0.0600 
    128 H128        6.4609  -14.8827  -50.9667 H         1 UNK         0.0600 
    129 H129        4.9434  -15.6946  -51.3691 H         1 UNK         0.0600 
    130 H130        4.0619  -12.8962  -49.7960 H         1 UNK         0.3000 
    131 H131        3.3913  -14.3192  -47.3665 H         1 UNK         0.0600 
    132 H132        2.6262  -11.4087  -47.5786 H         1 UNK         0.0800 
    133 H133        2.0328  -12.4155  -48.8460 H         1 UNK         0.0800 
    134 H134       -1.0649  -13.9024  -47.4335 H         1 UNK         0.0800 
    135 H135       -0.4745  -12.6683  -48.5107 H         1 UNK         0.0800 
    136 H136       -1.0404  -13.9210  -50.5028 H         1 UNK         0.1150 
    137 H137        1.2605  -17.3878  -51.5093 H         1 UNK         0.1150 
    138 H138        1.5545  -15.6961  -47.5889 H         1 UNK         0.1150 
    139 H139        3.4850  -17.5066  -49.5481 H         1 UNK         0.0800 
    140 H140        2.6849  -17.7149  -48.0162 H         1 UNK         0.0800 
    141 H141       -0.3053  -19.3864  -49.9980 H         1 UNK         0.0800 
    142 H142        0.0112  -18.6910  -48.4312 H         1 UNK         0.0800 
    143 H143        0.5950  -21.6361  -48.8783 H         1 UNK         0.0600 
    144 H144        0.5056  -19.9775  -46.5557 H         1 UNK         0.3000 
    145 H145        0.4105  -22.7305  -44.2228 H         1 UNK         0.0600 
    146 H146        2.3223  -21.3782  -43.3983 H         1 UNK         0.0600 
    147 H147        2.7659  -22.2486  -44.8594 H         1 UNK         0.0600 
    148 H148        2.4172  -20.5274  -44.9381 H         1 UNK         0.0600 
    149 H149        0.2587  -19.9350  -43.7635 H         1 UNK         0.3000 
    150 H150       -3.3240  -19.6633  -43.8033 H         1 UNK         0.0600 
    151 H151       -2.6473  -20.5704  -41.5659 H         1 UNK         0.0600 
    152 H152       -2.8462  -18.8247  -41.5302 H         1 UNK         0.0600 
    153 H153       -1.2300  -19.5253  -41.5696 H         1 UNK         0.0600 
    154 H154       -1.3444  -17.7194  -43.2598 H         1 UNK         0.3000 
    155 H155       -0.8926  -16.5401  -46.6343 H         1 UNK         0.0600 
    156 H156       -1.3169  -14.4724  -45.1830 H         1 UNK         0.0600 
    157 H157       -2.1808  -15.5045  -44.0526 H         1 UNK         0.0600 
    158 H158       -2.7714  -15.3184  -45.6935 H         1 UNK         0.0600 
    159 H159        0.4546  -15.8370  -44.2466 H         1 UNK         0.3000 
    160 H160        3.1033  -18.1916  -44.3532 H         1 UNK         0.0600 
    161 H161        3.0518  -15.2441  -45.1742 H         1 UNK         0.0600 
    162 H162        3.7935  -16.5599  -46.0741 H         1 UNK         0.0600 
    163 H163        4.4486  -16.0992  -44.5113 H         1 UNK         0.0600 
    164 H164        2.5006  -15.8372  -42.7817 H         1 UNK         0.3000 
    165 H165        0.8272  -17.7272  -40.1779 H         1 UNK         0.0600 
    166 H166        2.5099  -16.4891  -38.8876 H         1 UNK         0.0600 
    167 H167        3.3264  -17.7092  -39.8535 H         1 UNK         0.0600 
    168 H168        3.3636  -16.0218  -40.3547 H         1 UNK         0.0600 
    169 H169        1.1522  -14.9282  -40.4047 H         1 UNK         0.3000 
    170 H170       -1.9372  -14.1812  -42.0117 H         1 UNK         0.0600 
    171 H171       -2.5605  -14.6544  -39.6809 H         1 UNK         0.0600 
    172 H172       -1.0739  -13.9354  -39.0856 H         1 UNK         0.0600 
    173 H173       -2.2802  -12.9330  -39.8911 H         1 UNK         0.0600 
    174 H174       -0.4329  -12.7040  -42.5659 H         1 UNK         0.3000 
    175 H175        1.3397  -11.5411  -42.8174 H         1 UNK         0.0600 
    176 H176        2.0581   -9.4576  -41.6814 H         1 UNK         0.0600 
    177 H177        0.4762   -9.9424  -41.0919 H         1 UNK         0.0600 
    178 H178        1.9023  -10.2285  -40.1020 H         1 UNK         0.0600 
    179 H179        3.7494  -11.2854  -41.4085 H         1 UNK         0.3000 
    180 H180        5.5888  -12.2685  -42.0151 H         1 UNK         0.0600 
    181 H181        5.2114  -15.3082  -41.7467 H         1 UNK         0.0600 
    182 H182        5.2106  -14.1711  -40.4001 H         1 UNK         0.0600 
    183 H183        6.6705  -14.4047  -41.3507 H         1 UNK         0.0600 
    184 H184        4.9171  -13.9942  -44.2845 H         1 UNK         0.3000 
    185 H185        7.4730  -12.5932  -46.2080 H         1 UNK         0.0600 
    186 H186        8.1561  -14.8792  -46.8874 H         1 UNK         0.0600 
    187 H187        8.8402  -14.4898  -45.3173 H         1 UNK         0.0600 
    188 H188        7.4444  -15.5568  -45.4228 H         1 UNK         0.0600 
    189 H189        5.6990  -14.6344  -46.9538 H         1 UNK         0.3000 
    190 H190       -2.2038  -20.2377  -47.0889 H         1 UNK         0.3000 
    191 H191       -4.1973  -21.1429  -48.8869 H         1 UNK         0.0600 
    192 H192       -4.6773  -19.5010  -47.1148 H         1 UNK         0.0600 
    193 H193       -5.7336  -20.8925  -46.9344 H         1 UNK         0.0600 
    194 H194       -4.3515  -20.6982  -45.8628 H         1 UNK         0.0600 
    195 H195       -2.7161  -22.7854  -46.0433 H         1 UNK         0.3000 
    196 H196       -4.2040  -25.1904  -46.2044 H         1 UNK         0.0600 
    197 H197       -2.3604  -26.1169  -44.7913 H         1 UNK         0.0600 
    198 H198       -2.9058  -24.5530  -44.2045 H         1 UNK         0.0600 
    199 H199       -1.3931  -24.6792  -45.0975 H         1 UNK         0.0600 
    200 H200       -1.0323  -24.3140  -47.6658 H         1 UNK         0.3000 
    201 H201       -0.5520  -26.7591  -49.0141 H         1 UNK         0.0600 
    202 H202        1.1839  -25.0176  -48.6323 H         1 UNK         0.0600 
    203 H203        0.3543  -23.9217  -49.7355 H         1 UNK         0.0600 
    204 H204        1.0668  -25.4110  -50.3413 H         1 UNK         0.0600 
    205 H205       -2.4568  -23.9217  -49.9626 H         1 UNK         0.3000 
    206 H206       -3.1438  -24.9246  -52.6058 H         1 UNK         0.0600 
    207 H207       -2.8933  -22.5056  -52.1919 H         1 UNK         0.0600 
    208 H208       -4.5523  -22.8409  -52.6470 H         1 UNK         0.0600 
    209 H209       -4.1489  -22.5486  -50.9602 H         1 UNK         0.0600 
    210 H210       -3.9865  -26.2993  -49.8591 H         1 UNK         0.3000 
    211 H211       -5.5531  -27.6702  -49.1446 H         1 UNK         0.0600 
    212 H212       -6.7069  -27.5714  -51.9825 H         1 UNK         0.0600 
    213 H213       -7.0462  -28.7932  -50.7664 H         1 UNK         0.0600 
    214 H214       -5.4256  -28.6451  -51.4269 H         1 UNK         0.0600 
    215 H215       -5.8933  -25.2880  -48.2276 H         1 UNK         0.3000 
    216 H216       -7.2059  -23.9499  -47.0722 H         1 UNK         0.0600 
    217 H217       -8.6005  -25.9370  -46.4441 H         1 UNK         0.0600 
    218 H218       -9.6410  -25.6436  -47.8374 H         1 UNK         0.0600 
    219 H219       -9.5429  -24.4585  -46.5457 H         1 UNK         0.0600 
    220 H220       -6.3159  -23.2427  -49.4531 H         1 UNK         0.3000 
    221 H221       -6.3869  -21.7915  -51.1309 H         1 UNK         0.0600 
    222 H222       -8.6798  -20.4583  -49.6057 H         1 UNK         0.0600 
    223 H223       -6.9635  -20.2285  -49.2716 H         1 UNK         0.0600 
    224 H224       -7.6386  -19.6996  -50.8028 H         1 UNK         0.0600 
    225 H225       -7.7525  -24.1965  -51.6544 H         1 UNK         0.3000 
    226 H226      -10.0896  -23.5968  -53.3316 H         1 UNK         0.0600 
    227 H227       -9.9626  -25.7615  -52.1249 H         1 UNK         0.0600 
    228 H228       -9.9443  -26.0296  -53.8622 H         1 UNK         0.0600 
    229 H229       -8.4512  -26.1574  -52.9386 H         1 UNK         0.0600 
    230 H230       -6.6142  -24.3177  -53.6584 H         1 UNK         0.3000 
    231 H231       -6.5953  -23.9607  -56.5823 H         1 UNK         0.0600 
    232 H232       -5.0835  -25.6228  -55.4307 H         1 UNK         0.0600 
    233 H233       -4.2953  -24.2951  -54.5815 H         1 UNK         0.0600 
    234 H234       -4.1797  -24.4134  -56.3289 H         1 UNK         0.0600 
    235 H235       -5.0628  -22.3612  -57.5142 H         1 UNK         0.3000 
    236 H236       -5.5489  -19.6755  -56.6089 H         1 UNK         0.0600 
    237 H237       -5.3411  -20.2873  -59.0193 H         1 UNK         0.0600 
    238 H238       -4.1291  -19.0951  -58.5840 H         1 UNK         0.0600 
    239 H239       -3.6668  -20.7826  -58.7690 H         1 UNK         0.0600 
    240 H240       -3.9704  -18.0959  -56.0191 H         1 UNK         0.3000 
    241 H241       -2.0647  -19.0542  -54.0965 H         1 UNK         0.0600 
    242 H242       -1.5887  -18.5200  -57.4820 H         1 UNK         0.3800 
    243 H243        0.1472  -18.3791  -57.3989 H         1 UNK         0.3800 
    244 H244       -2.0982  -16.1064  -54.7696 H         1 UNK         0.0800 
    245 H245       -3.6004  -16.7772  -54.2273 H         1 UNK         0.0800 
    246 H246       -0.9771  -14.7351  -52.8137 H         1 UNK         0.0800 
    247 H247        0.0969  -16.0430  -53.2626 H         1 UNK         0.0800 
@<TRIPOS>BOND
     1    1    2 1    
     2    1  127 1    
     3    1  128 1    
     4    1  129 1    
     5    2    3 2    
     6    2    4 am   BACKBONE|DICT|INTERRES
     7    4    5 1    
     8    4  130 1    
     9    5    6 1    
    10    5   65 1    
    11    5  131 1    
    12    6    7 1    
    13    6  132 1    
    14    6  133 1    
    15    7    8 1    
    16    8    9 1    
    17    8  134 1    
    18    8  135 1    
    19    9   10 ar   
    20    9   14 ar   
    21   10   11 ar   
    22   10  136 1    
    23   11   12 ar   
    24   11  126 1    
    25   12   13 ar   
    26   12  137 1    
    27   13   14 ar   
    28   13   15 1    
    29   14  138 1    
    30   15   16 1    
    31   15  139 1    
    32   15  140 1    
    33   16   17 1    
    34   17   18 1    
    35   17  141 1    
    36   17  142 1    
    37   18   19 1    
    38   18   67 1    
    39   18  143 1    
    40   19   20 am   BACKBONE|DICT|INTERRES
    41   19  144 1    
    42   20   21 2    
    43   20   22 1    
    44   22   23 1    
    45   22   24 1    
    46   22  145 1    
    47   23  146 1    
    48   23  147 1    
    49   23  148 1    
    50   24   25 am   BACKBONE|DICT|INTERRES
    51   24  149 1    
    52   25   26 2    
    53   25   27 1    
    54   27   28 1    
    55   27   29 1    
    56   27  150 1    
    57   28  151 1    
    58   28  152 1    
    59   28  153 1    
    60   29   30 am   BACKBONE|DICT|INTERRES
    61   29  154 1    
    62   30   31 2    
    63   30   32 1    
    64   32   33 1    
    65   32   34 1    
    66   32  155 1    
    67   33  156 1    
    68   33  157 1    
    69   33  158 1    
    70   34   35 am   BACKBONE|DICT|INTERRES
    71   34  159 1    
    72   35   36 2    
    73   35   37 1    
    74   37   38 1    
    75   37   39 1    
    76   37  160 1    
    77   38  161 1    
    78   38  162 1    
    79   38  163 1    
    80   39   40 am   BACKBONE|DICT|INTERRES
    81   39  164 1    
    82   40   41 2    
    83   40   42 1    
    84   42   43 1    
    85   42   44 1    
    86   42  165 1    
    87   43  166 1    
    88   43  167 1    
    89   43  168 1    
    90   44   45 am   BACKBONE|DICT|INTERRES
    91   44  169 1    
    92   45   46 2    
    93   45   47 1    
    94   47   48 1    
    95   47   49 1    
    96   47  170 1    
    97   48  171 1    
    98   48  172 1    
    99   48  173 1    
   100   49   50 am   BACKBONE|DICT|INTERRES
   101   49  174 1    
   102   50   51 2    
   103   50   52 1    
   104   52   53 1    
   105   52   54 1    
   106   52  175 1    
   107   53  176 1    
   108   53  177 1    
   109   53  178 1    
   110   54   55 am   BACKBONE|DICT|INTERRES
   111   54  179 1    
   112   55   56 2    
   113   55   57 1    
   114   57   58 1    
   115   57   59 1    
   116   57  180 1    
   117   58  181 1    
   118   58  182 1    
   119   58  183 1    
   120   59   60 am   BACKBONE|DICT|INTERRES
   121   59  184 1    
   122   60   61 2    
   123   60   62 1    
   124   62   63 1    
   125   62   64 1    
   126   62  185 1    
   127   63  186 1    
   128   63  187 1    
   129   63  188 1    
   130   64   65 am   BACKBONE|DICT|INTERRES
   131   64  189 1    
   132   65   66 2    
   133   67   68 2    
   134   67   69 am   BACKBONE|DICT|INTERRES
   135   69   70 1    
   136   69  190 1    
   137   70   71 1    
   138   70   72 1    
   139   70  191 1    
   140   71  192 1    
   141   71  193 1    
   142   71  194 1    
   143   72   73 2    
   144   72   74 am   BACKBONE|DICT|INTERRES
   145   74   75 1    
   146   74  195 1    
   147   75   76 1    
   148   75   77 1    
   149   75  196 1    
   150   76  197 1    
   151   76  198 1    
   152   76  199 1    
   153   77   78 2    
   154   77   79 am   BACKBONE|DICT|INTERRES
   155   79   80 1    
   156   79  200 1    
   157   80   81 1    
   158   80   82 1    
   159   80  201 1    
   160   81  202 1    
   161   81  203 1    
   162   81  204 1    
   163   82   83 2    
   164   82   84 am   BACKBONE|DICT|INTERRES
   165   84   85 1    
   166   84  205 1    
   167   85   86 1    
   168   85   87 1    
   169   85  206 1    
   170   86  207 1    
   171   86  208 1    
   172   86  209 1    
   173   87   88 2    
   174   87   89 am   BACKBONE|DICT|INTERRES
   175   89   90 1    
   176   89  210 1    
   177   90   91 1    
   178   90   92 1    
   179   90  211 1    
   180   91  212 1    
   181   91  213 1    
   182   91  214 1    
   183   92   93 2    
   184   92   94 am   BACKBONE|DICT|INTERRES
   185   94   95 1    
   186   94  215 1    
   187   95   96 1    
   188   95   97 1    
   189   95  216 1    
   190   96  217 1    
   191   96  218 1    
   192   96  219 1    
   193   97   98 2    
   194   97   99 am   BACKBONE|DICT|INTERRES
   195   99  100 1    
   196   99  220 1    
   197  100  101 1    
   198  100  102 1    
   199  100  221 1    
   200  101  222 1    
   201  101  223 1    
   202  101  224 1    
   203  102  103 2    
   204  102  104 am   BACKBONE|DICT|INTERRES
   205  104  105 1    
   206  104  225 1    
   207  105  106 1    
   208  105  107 1    
   209  105  226 1    
   210  106  227 1    
   211  106  228 1    
   212  106  229 1    
   213  107  108 2    
   214  107  109 am   BACKBONE|DICT|INTERRES
   215  109  110 1    
   216  109  230 1    
   217  110  111 1    
   218  110  112 1    
   219  110  231 1    
   220  111  232 1    
   221  111  233 1    
   222  111  234 1    
   223  112  113 2    
   224  112  114 am   BACKBONE|DICT|INTERRES
   225  114  115 1    
   226  114  235 1    
   227  115  116 1    
   228  115  117 1    
   229  115  236 1    
   230  116  237 1    
   231  116  238 1    
   232  116  239 1    
   233  117  118 2    
   234  117  119 am   BACKBONE|DICT|INTERRES
   235  119  120 1    
   236  119  240 1    
   237  120  121 1    
   238  120  124 1    
   239  120  241 1    
   240  121  122 am   BACKBONE|DICT|INTERRES
   241  121  123 2    
   242  122  242 1    
   243  122  243 1    
   244  124  125 1    
   245  124  244 1    
   246  124  245 1    
   247  125  126 1    
   248  126  246 1    
   249  126  247 1    
@<TRIPOS>SUBSTRUCTURE
     1 UNK         1 GROUP             0       ****    0 ROOT    
