@<TRIPOS>MOLECULE
3R540
247   249    1
SMALL
USER_CHARGES


@<TRIPOS>ATOM
      1 CA         -1.3331   -9.5443  -47.3500 C.3       0 UNK        -0.1800 
      2 C          -2.6645  -10.2927  -47.3685 C.2       0 UNK         0.5000 
      3 O          -3.7155   -9.6556  -47.3605 O.2       0 UNK        -0.5000 
      4 N          -2.6790  -11.6331  -47.3946 N.am      1 UNK        -0.5000 
      5 CA         -1.5149  -12.5341  -47.3860 C.3       1 UNK         0.1400 
      6 C6         -1.8502  -13.9255  -47.9798 C.3       23 UNK        -0.0398 
      7 S7         -2.5760  -13.8230  -49.6523 S.3       23 UNK        -0.2404 
      8 C8         -3.2067  -15.5154  -49.8754 C.3       23 UNK        -0.0205 
      9 C9         -2.1366  -16.4422  -50.4306 C.ar      23 UNK        -0.0193 
     10 C10        -2.0296  -16.6359  -51.8116 C.ar      23 UNK        -0.1150 
     11 C11        -1.0652  -17.5011  -52.3355 C.ar      23 UNK        -0.0193 
     12 C12        -0.1913  -18.1577  -51.4650 C.ar      23 UNK        -0.1150 
     13 C13        -0.2804  -17.9652  -50.0843 C.ar      23 UNK        -0.0193 
     14 C14        -1.2637  -17.1150  -49.5701 C.ar      23 UNK        -0.1150 
     15 C15         0.7043  -18.6598  -49.1576 C.3       23 UNK        -0.0205 
     16 S16         0.5205  -20.4692  -49.1901 S.3       23 UNK        -0.2404 
     17 C17        -1.0795  -20.6960  -48.3470 C.3       23 UNK        -0.0398 
     18 CA         -1.1229  -22.0403  -47.5866 C.3       11 UNK         0.1400 
     19 N          -0.1547  -22.1021  -46.4842 N.am      11 UNK        -0.5000 
     20 C           0.1327  -23.2035  -45.7768 C.2       10 UNK         0.5000 
     21 O          -0.4030  -24.2937  -45.9727 O.2       10 UNK        -0.5000 
     22 CA          1.1360  -23.0530  -44.6218 C.3       10 UNK         0.1400 
     23 CB          2.5797  -22.9652  -45.1394 C.3       10 UNK        -0.1800 
     24 N           0.8241  -21.8904  -43.7921 N.am      10 UNK        -0.5000 
     25 C          -0.2207  -21.8294  -42.9540 C.2       9 UNK         0.5000 
     26 O          -0.9810  -22.7745  -42.7428 O.2       9 UNK        -0.5000 
     27 CA         -0.4775  -20.4850  -42.2466 C.3       9 UNK         0.1400 
     28 CB          0.3204  -20.4089  -40.9364 C.3       9 UNK        -0.1800 
     29 N          -0.1620  -19.3205  -43.0755 N.am      9 UNK        -0.5000 
     30 C          -0.7857  -19.0056  -44.2197 C.2       8 UNK         0.5000 
     31 O          -1.7227  -19.6496  -44.6891 O.2       8 UNK        -0.5000 
     32 CA         -0.2235  -17.8114  -45.0116 C.3       8 UNK         0.1400 
     33 CB         -0.7155  -16.4788  -44.4293 C.3       8 UNK        -0.1800 
     34 N           1.2386  -17.8107  -45.0780 N.am      8 UNK        -0.5000 
     35 C           1.9835  -18.8027  -45.5862 C.2       7 UNK         0.5000 
     36 O           1.5130  -19.8349  -46.0581 O.2       7 UNK        -0.5000 
     37 CA          3.5069  -18.6361  -45.5115 C.3       7 UNK         0.1400 
     38 CB          4.0120  -17.6826  -46.6053 C.3       7 UNK        -0.1800 
     39 N           3.9133  -18.1530  -44.1941 N.am      7 UNK        -0.5000 
     40 C           3.9406  -18.9167  -43.0928 C.2       6 UNK         0.5000 
     41 O           3.6912  -20.1226  -43.0896 O.2       6 UNK        -0.5000 
     42 CA          4.2750  -18.2077  -41.7670 C.3       6 UNK         0.1400 
     43 CB          5.7951  -18.1402  -41.5578 C.3       6 UNK        -0.1800 
     44 N           3.7145  -16.8576  -41.6818 N.am      6 UNK        -0.5000 
     45 C           2.4033  -16.5877  -41.6226 C.2       5 UNK         0.5000 
     46 O           1.5258  -17.4501  -41.6312 O.2       5 UNK        -0.5000 
     47 CA          2.0017  -15.1022  -41.5859 C.3       5 UNK         0.1400 
     48 CB          2.0795  -14.5661  -40.1485 C.3       5 UNK        -0.1800 
     49 N           2.7804  -14.2291  -42.4707 N.am      5 UNK        -0.5000 
     50 C           2.9706  -14.4064  -43.7858 C.2       4 UNK         0.5000 
     51 O           2.6130  -15.4128  -44.3983 O.2       4 UNK        -0.5000 
     52 CA          3.6176  -13.2303  -44.5354 C.3       4 UNK         0.1400 
     53 CB          3.9110  -13.5554  -46.0110 C.3       4 UNK        -0.1800 
     54 N           2.6883  -12.1078  -44.4750 N.am      4 UNK        -0.5000 
     55 C           2.8157  -11.0293  -43.6904 C.2       3 UNK         0.5000 
     56 O           3.8159  -10.7906  -43.0131 O.2       3 UNK        -0.5000 
     57 CA          1.6008  -10.0799  -43.6111 C.3       3 UNK         0.1400 
     58 CB          1.7277   -8.9546  -44.6492 C.3       3 UNK        -0.1800 
     59 N           0.3252  -10.7720  -43.8109 N.am      3 UNK        -0.5000 
     60 C          -0.1679  -11.7251  -43.0074 C.2       2 UNK         0.5000 
     61 O           0.3252  -12.0138  -41.9176 O.2       2 UNK        -0.5000 
     62 CA         -1.3963  -12.5136  -43.5076 C.3       2 UNK         0.1400 
     63 CB         -2.6433  -12.1399  -42.6919 C.3       2 UNK        -0.1800 
     64 N          -1.7073  -12.3628  -44.9348 N.am      2 UNK        -0.5000 
     65 C          -0.9207  -12.6988  -45.9695 C.2       1 UNK         0.5000 
     66 O           0.2359  -13.0983  -45.8415 O.2       1 UNK        -0.5000 
     67 C          -2.5570  -22.3755  -47.1306 C.2       11 UNK         0.5000 
     68 O          -3.2802  -23.0455  -47.8688 O.2       11 UNK        -0.5000 
     69 N          -2.9220  -21.9771  -45.9042 N.am      12 UNK        -0.5000 
     70 CA         -4.1862  -22.3196  -45.2480 C.3       12 UNK         0.1400 
     71 CB         -4.3105  -21.5232  -43.9405 C.3       12 UNK        -0.1800 
     72 C          -4.3740  -23.8285  -44.9797 C.2       12 UNK         0.5000 
     73 O          -5.5134  -24.2639  -44.8134 O.2       12 UNK        -0.5000 
     74 N          -3.2783  -24.5982  -44.9539 N.am      13 UNK        -0.5000 
     75 CA         -3.2979  -26.0556  -44.8567 C.3       13 UNK         0.1400 
     76 CB         -2.1836  -26.5162  -43.9030 C.3       13 UNK        -0.1800 
     77 C          -3.1349  -26.7034  -46.2425 C.2       13 UNK         0.5000 
     78 O          -3.8740  -27.6333  -46.5666 O.2       13 UNK        -0.5000 
     79 N          -2.1603  -26.2182  -47.0245 N.am      14 UNK        -0.5000 
     80 CA         -1.7507  -26.7977  -48.3036 C.3       14 UNK         0.1400 
     81 CB         -0.3772  -26.2318  -48.6981 C.3       14 UNK        -0.1800 
     82 C          -2.7659  -26.5865  -49.4398 C.2       14 UNK         0.5000 
     83 O          -3.0352  -27.5282  -50.1869 O.2       14 UNK        -0.5000 
     84 N          -3.2919  -25.3618  -49.5609 N.am      15 UNK        -0.5000 
     85 CA         -4.2370  -24.9650  -50.6062 C.3       15 UNK         0.1400 
     86 CB         -3.7164  -23.6971  -51.3042 C.3       15 UNK        -0.1800 
     87 C          -5.6425  -24.7278  -50.0340 C.2       15 UNK         0.5000 
     88 O          -6.6253  -25.0247  -50.7135 O.2       15 UNK        -0.5000 
     89 N          -5.7146  -24.1855  -48.8087 N.am      16 UNK        -0.5000 
     90 CA         -6.9030  -23.8466  -48.0119 C.3       16 UNK         0.1400 
     91 CB         -7.7758  -25.0835  -47.7292 C.3       16 UNK        -0.1800 
     92 C          -7.7292  -22.6788  -48.5809 C.2       16 UNK         0.5000 
     93 O          -8.0009  -21.7185  -47.8605 O.2       16 UNK        -0.5000 
     94 N          -8.0733  -22.7580  -49.8697 N.am      17 UNK        -0.5000 
     95 CA         -8.7315  -21.7033  -50.6426 C.3       17 UNK         0.1400 
     96 CB         -9.5054  -22.3628  -51.7956 C.3       17 UNK        -0.1800 
     97 C          -7.7382  -20.6539  -51.1866 C.2       17 UNK         0.5000 
     98 O          -8.1761  -19.6651  -51.7766 O.2       17 UNK        -0.5000 
     99 N          -6.4313  -20.8989  -50.9974 N.am      18 UNK        -0.5000 
    100 CA        -5.2906  -20.1717  -51.5624 C.3       18 UNK         0.1400 
    101 CB        -5.2623  -18.7060  -51.0774 C.3       18 UNK        -0.1800 
    102 C         -5.2215  -20.3231  -53.0984 C.2       18 UNK         0.5000 
    103 O         -5.7887  -21.2744  -53.6421 O.2       18 UNK        -0.5000 
    104 N         -4.4856  -19.4206  -53.7641 N.am      19 UNK        -0.5000 
    105 CA        -4.2408  -19.3149  -55.2124 C.3       19 UNK         0.1400 
    106 CB        -5.5511  -19.1042  -55.9936 C.3       19 UNK        -0.1800 
    107 C         -3.4143  -20.4690  -55.8148 C.2       19 UNK         0.5000 
    108 O         -2.4307  -20.2096  -56.5092 O.2       19 UNK        -0.5000 
    109 N         -3.7876  -21.7173  -55.5096 N.am      20 UNK        -0.5000 
    110 CA        -3.1506  -22.9541  -55.9741 C.3       20 UNK         0.1400 
    111 CB        -3.9886  -24.1511  -55.4999 C.3       20 UNK        -0.1800 
    112 C         -1.6851  -23.1111  -55.5227 C.2       20 UNK         0.5000 
    113 O         -0.9093  -23.7872  -56.1984 O.2       20 UNK        -0.5000 
    114 N         -1.3305  -22.4629  -54.4054 N.am      21 UNK        -0.5000 
    115 CA         0.0341  -22.3689  -53.8879 C.3       21 UNK         0.1400 
    116 CB        -0.0320  -21.9155  -52.4222 C.3       21 UNK        -0.1800 
    117 C          0.9377  -21.4250  -54.7111 C.2       21 UNK         0.5000 
    118 O          2.1603  -21.5570  -54.6402 O.2       21 UNK        -0.5000 
    119 N          0.3316  -20.5000  -55.4666 N.am      22 UNK        -0.5000 
    120 CA         1.0141  -19.5461  -56.3546 C.3       22 UNK         0.1400 
    121 C          0.9359  -19.9961  -57.8372 C.2       22 UNK         0.5000 
    122 N         -0.1997  -20.5024  -58.3035 N.am      22 UNK        -0.7600 
    123 O          1.9151  -19.8900  -58.5705 O.2       22 UNK        -0.5000 
    124 C124        0.4513  -18.1084  -56.2070 C.3       23 UNK        -0.0398 
    125 S125        0.6572  -17.4335  -54.5244 S.3       23 UNK        -0.2404 
    126 C126       -0.9951  -17.7602  -53.8330 C.3       23 UNK        -0.0205 
    127 H127       -0.7365   -9.8188  -46.4821 H         1 UNK         0.0600 
    128 H128       -0.7598   -9.7525  -48.2532 H         1 UNK         0.0600 
    129 H129       -1.5014   -8.4681  -47.3065 H         1 UNK         0.0600 
    130 H130       -3.5743  -12.0978  -47.4483 H         1 UNK         0.3000 
    131 H131       -0.7329  -12.0995  -48.0108 H         1 UNK         0.0600 
    132 H132       -2.5460  -14.4591  -47.3296 H         1 UNK         0.0800 
    133 H133       -0.9486  -14.5383  -48.0393 H         1 UNK         0.0800 
    134 H134       -4.0553  -15.4818  -50.5604 H         1 UNK         0.0800 
    135 H135       -3.5985  -15.9050  -48.9348 H         1 UNK         0.0800 
    136 H136       -2.7081  -16.1198  -52.4764 H         1 UNK         0.1150 
    137 H137        0.5628  -18.8224  -51.8627 H         1 UNK         0.1150 
    138 H138       -1.3432  -16.9667  -48.5027 H         1 UNK         0.1150 
    139 H139        1.7191  -18.4060  -49.4662 H         1 UNK         0.0800 
    140 H140        0.5977  -18.2974  -48.1360 H         1 UNK         0.0800 
    141 H141       -1.8605  -20.6493  -49.1085 H         1 UNK         0.0800 
    142 H142       -1.2596  -19.8654  -47.6623 H         1 UNK         0.0800 
    143 H143       -0.8426  -22.8234  -48.2939 H         1 UNK         0.0600 
    144 H144        0.3621  -21.2466  -46.2874 H         1 UNK         0.3000 
    145 H145        1.0620  -23.9469  -43.9987 H         1 UNK         0.0600 
    146 H146        3.2885  -22.8802  -44.3154 H         1 UNK         0.0600 
    147 H147        2.8428  -23.8599  -45.7049 H         1 UNK         0.0600 
    148 H148        2.7302  -22.1097  -45.7970 H         1 UNK         0.0600 
    149 H149        1.3932  -21.0659  -43.9286 H         1 UNK         0.3000 
    150 H150       -1.5406  -20.4400  -42.0017 H         1 UNK         0.0600 
    151 H151        0.1051  -21.2645  -40.2951 H         1 UNK         0.0600 
    152 H152        0.0682  -19.5099  -40.3737 H         1 UNK         0.0600 
    153 H153        1.3954  -20.3969  -41.1219 H         1 UNK         0.0600 
    154 H154        0.5744  -18.7084  -42.7336 H         1 UNK         0.3000 
    155 H155       -0.5967  -17.8898  -46.0341 H         1 UNK         0.0600 
    156 H156       -0.3915  -16.3469  -43.3974 H         1 UNK         0.0600 
    157 H157       -1.8046  -16.4243  -44.4420 H         1 UNK         0.0600 
    158 H158       -0.3388  -15.6358  -45.0078 H         1 UNK         0.0600 
    159 H159        1.7125  -16.9785  -44.7326 H         1 UNK         0.3000 
    160 H160        3.9626  -19.6141  -45.6818 H         1 UNK         0.0600 
    161 H161        5.0953  -17.5706  -46.5619 H         1 UNK         0.0600 
    162 H162        3.5682  -16.6908  -46.5203 H         1 UNK         0.0600 
    163 H163        3.7636  -18.0657  -47.5958 H         1 UNK         0.0600 
    164 H164        4.0426  -17.1551  -44.0986 H         1 UNK         0.3000 
    165 H165        3.8457  -18.8026  -40.9579 H         1 UNK         0.0600 
    166 H166        6.0409  -17.7140  -40.5850 H         1 UNK         0.0600 
    167 H167        6.2386  -19.1361  -41.5964 H         1 UNK         0.0600 
    168 H168        6.2814  -17.5343  -42.3234 H         1 UNK         0.0600 
    169 H169        4.3667  -16.0872  -41.6801 H         1 UNK         0.3000 
    170 H170        0.9623  -15.0372  -41.9119 H         1 UNK         0.0600 
    171 H171        1.4890  -15.1821  -39.4688 H         1 UNK         0.0600 
    172 H172        3.1048  -14.5561  -39.7769 H         1 UNK         0.0600 
    173 H173        1.6897  -13.5503  -40.0831 H         1 UNK         0.0600 
    174 H174        3.0869  -13.3560  -42.0657 H         1 UNK         0.3000 
    175 H175        4.5618  -12.9917  -44.0419 H         1 UNK         0.0600 
    176 H176        3.0032  -13.8212  -46.5549 H         1 UNK         0.0600 
    177 H177        4.3655  -12.7039  -46.5172 H         1 UNK         0.0600 
    178 H178        4.6046  -14.3927  -46.0955 H         1 UNK         0.0600 
    179 H179        1.8051  -12.2620  -44.9531 H         1 UNK         0.3000 
    180 H180        1.5911   -9.6329  -42.6149 H         1 UNK         0.0600 
    181 H181        1.7364   -9.3448  -45.6677 H         1 UNK         0.0600 
    182 H182        2.6524   -8.3943  -44.5050 H         1 UNK         0.0600 
    183 H183        0.9035   -8.2458  -44.5670 H         1 UNK         0.0600 
    184 H184       -0.1553  -10.5946  -44.6785 H         1 UNK         0.3000 
    185 H185       -1.1800  -13.5696  -43.3335 H         1 UNK         0.0600 
    186 H186       -2.4692  -12.2738  -41.6233 H         1 UNK         0.0600 
    187 H187       -2.9289  -11.0992  -42.8502 H         1 UNK         0.0600 
    188 H188       -3.4937  -12.7673  -42.9600 H         1 UNK         0.0600 
    189 H189       -2.6329  -12.0195  -45.1490 H         1 UNK         0.3000 
    190 H190       -2.2970  -21.3680  -45.3830 H         1 UNK         0.3000 
    191 H191       -4.9944  -22.0049  -45.9108 H         1 UNK         0.0600 
    192 H192       -3.5008  -21.7581  -43.2494 H         1 UNK         0.0600 
    193 H193       -5.2504  -21.7446  -43.4332 H         1 UNK         0.0600 
    194 H194       -4.2909  -20.4498  -44.1289 H         1 UNK         0.0600 
    195 H195       -2.3742  -24.1679  -45.1023 H         1 UNK         0.3000 
    196 H196       -4.2481  -26.3956  -44.4394 H         1 UNK         0.0600 
    197 H197       -2.1832  -27.6020  -43.7998 H         1 UNK         0.0600 
    198 H198       -2.3214  -26.0943  -42.9074 H         1 UNK         0.0600 
    199 H199       -1.1951  -26.2197  -44.2547 H         1 UNK         0.0600 
    200 H200       -1.5686  -25.4737  -46.6611 H         1 UNK         0.3000 
    201 H201       -1.6374  -27.8745  -48.1601 H         1 UNK         0.0600 
    202 H202        0.3716  -26.4481  -47.9360 H         1 UNK         0.0600 
    203 H203       -0.4100  -25.1507  -48.8353 H         1 UNK         0.0600 
    204 H204       -0.0265  -26.6710  -49.6329 H         1 UNK         0.0600 
    205 H205       -3.0519  -24.6512  -48.8772 H         1 UNK         0.3000 
    206 H206       -4.3258  -25.7462  -51.3641 H         1 UNK         0.0600 
    207 H207       -2.7734  -23.8932  -51.8146 H         1 UNK         0.0600 
    208 H208       -4.4240  -23.3442  -52.0555 H         1 UNK         0.0600 
    209 H209       -3.5494  -22.8846  -50.5970 H         1 UNK         0.0600 
    210 H210       -4.8344  -23.9058  -48.3829 H         1 UNK         0.3000 
    211 H211       -6.5211  -23.4996  -47.0543 H         1 UNK         0.0600 
    212 H212       -8.2200  -25.4920  -48.6369 H         1 UNK         0.0600 
    213 H213       -8.5931  -24.8333  -47.0518 H         1 UNK         0.0600 
    214 H214       -7.1920  -25.8728  -47.2552 H         1 UNK         0.0600 
    215 H215       -7.7812  -23.5892  -50.3790 H         1 UNK         0.3000 
    216 H216       -9.4462  -21.1809  -50.0034 H         1 UNK         0.0600 
    217 H217      -10.0513  -21.6199  -52.3785 H         1 UNK         0.0600 
    218 H218      -10.2356  -23.0806  -51.4211 H         1 UNK         0.0600 
    219 H219       -8.8359  -22.8888  -52.4777 H         1 UNK         0.0600 
    220 H220       -6.2038  -21.7545  -50.5150 H         1 UNK         0.3000 
    221 H221       -4.3990  -20.6609  -51.1693 H         1 UNK         0.0600 
    222 H222       -6.0343  -18.1010  -51.5539 H         1 UNK         0.0600 
    223 H223       -5.4097  -18.6459  -49.9990 H         1 UNK         0.0600 
    224 H224       -4.3014  -18.2405  -51.2899 H         1 UNK         0.0600 
    225 H225       -4.0479  -18.6970  -53.2122 H         1 UNK         0.3000 
    226 H226       -3.6454  -18.4105  -55.3437 H         1 UNK         0.0600 
    227 H227       -6.0995  -18.2412  -55.6159 H         1 UNK         0.0600 
    228 H228       -5.3483  -18.9233  -57.0500 H         1 UNK         0.0600 
    229 H229       -6.2097  -19.9711  -55.9341 H         1 UNK         0.0600 
    230 H230       -4.6028  -21.8158  -54.9074 H         1 UNK         0.3000 
    231 H231       -3.1560  -22.9394  -57.0658 H         1 UNK         0.0600 
    232 H232       -5.0092  -24.0926  -55.8786 H         1 UNK         0.0600 
    233 H233       -4.0377  -24.2017  -54.4117 H         1 UNK         0.0600 
    234 H234       -3.5645  -25.0916  -55.8542 H         1 UNK         0.0600 
    235 H235       -2.0415  -21.9460  -53.9115 H         1 UNK         0.3000 
    236 H236        0.4862  -23.3625  -53.9175 H         1 UNK         0.0600 
    237 H237        0.9680  -21.8011  -52.0018 H         1 UNK         0.0600 
    238 H238       -0.5432  -20.9583  -52.3193 H         1 UNK         0.0600 
    239 H239       -0.5588  -22.6434  -51.8051 H         1 UNK         0.0600 
    240 H240       -0.6778  -20.5069  -55.5315 H         1 UNK         0.3000 
    241 H241        2.0737  -19.5037  -56.0948 H         1 UNK         0.0600 
    242 H242       -0.2528  -20.8015  -59.2641 H         1 UNK         0.3800 
    243 H243       -1.0324  -20.5247  -57.7218 H         1 UNK         0.3800 
    244 H244       -0.6022  -18.0716  -56.4900 H         1 UNK         0.0800 
    245 H245        0.9684  -17.4318  -56.8898 H         1 UNK         0.0800 
    246 H246       -1.7225  -17.1467  -54.3664 H         1 UNK         0.0800 
    247 H247       -1.2686  -18.7996  -54.0115 H         1 UNK         0.0800 
@<TRIPOS>BOND
     1    1    2 1    
     2    1  127 1    
     3    1  128 1    
     4    1  129 1    
     5    2    3 2    
     6    2    4 am   BACKBONE|DICT|INTERRES
     7    4    5 1    
     8    4  130 1    
     9    5    6 1    
    10    5   65 1    
    11    5  131 1    
    12    6    7 1    
    13    6  132 1    
    14    6  133 1    
    15    7    8 1    
    16    8    9 1    
    17    8  134 1    
    18    8  135 1    
    19    9   10 ar   
    20    9   14 ar   
    21   10   11 ar   
    22   10  136 1    
    23   11   12 ar   
    24   11  126 1    
    25   12   13 ar   
    26   12  137 1    
    27   13   14 ar   
    28   13   15 1    
    29   14  138 1    
    30   15   16 1    
    31   15  139 1    
    32   15  140 1    
    33   16   17 1    
    34   17   18 1    
    35   17  141 1    
    36   17  142 1    
    37   18   19 1    
    38   18   67 1    
    39   18  143 1    
    40   19   20 am   BACKBONE|DICT|INTERRES
    41   19  144 1    
    42   20   21 2    
    43   20   22 1    
    44   22   23 1    
    45   22   24 1    
    46   22  145 1    
    47   23  146 1    
    48   23  147 1    
    49   23  148 1    
    50   24   25 am   BACKBONE|DICT|INTERRES
    51   24  149 1    
    52   25   26 2    
    53   25   27 1    
    54   27   28 1    
    55   27   29 1    
    56   27  150 1    
    57   28  151 1    
    58   28  152 1    
    59   28  153 1    
    60   29   30 am   BACKBONE|DICT|INTERRES
    61   29  154 1    
    62   30   31 2    
    63   30   32 1    
    64   32   33 1    
    65   32   34 1    
    66   32  155 1    
    67   33  156 1    
    68   33  157 1    
    69   33  158 1    
    70   34   35 am   BACKBONE|DICT|INTERRES
    71   34  159 1    
    72   35   36 2    
    73   35   37 1    
    74   37   38 1    
    75   37   39 1    
    76   37  160 1    
    77   38  161 1    
    78   38  162 1    
    79   38  163 1    
    80   39   40 am   BACKBONE|DICT|INTERRES
    81   39  164 1    
    82   40   41 2    
    83   40   42 1    
    84   42   43 1    
    85   42   44 1    
    86   42  165 1    
    87   43  166 1    
    88   43  167 1    
    89   43  168 1    
    90   44   45 am   BACKBONE|DICT|INTERRES
    91   44  169 1    
    92   45   46 2    
    93   45   47 1    
    94   47   48 1    
    95   47   49 1    
    96   47  170 1    
    97   48  171 1    
    98   48  172 1    
    99   48  173 1    
   100   49   50 am   BACKBONE|DICT|INTERRES
   101   49  174 1    
   102   50   51 2    
   103   50   52 1    
   104   52   53 1    
   105   52   54 1    
   106   52  175 1    
   107   53  176 1    
   108   53  177 1    
   109   53  178 1    
   110   54   55 am   BACKBONE|DICT|INTERRES
   111   54  179 1    
   112   55   56 2    
   113   55   57 1    
   114   57   58 1    
   115   57   59 1    
   116   57  180 1    
   117   58  181 1    
   118   58  182 1    
   119   58  183 1    
   120   59   60 am   BACKBONE|DICT|INTERRES
   121   59  184 1    
   122   60   61 2    
   123   60   62 1    
   124   62   63 1    
   125   62   64 1    
   126   62  185 1    
   127   63  186 1    
   128   63  187 1    
   129   63  188 1    
   130   64   65 am   BACKBONE|DICT|INTERRES
   131   64  189 1    
   132   65   66 2    
   133   67   68 2    
   134   67   69 am   BACKBONE|DICT|INTERRES
   135   69   70 1    
   136   69  190 1    
   137   70   71 1    
   138   70   72 1    
   139   70  191 1    
   140   71  192 1    
   141   71  193 1    
   142   71  194 1    
   143   72   73 2    
   144   72   74 am   BACKBONE|DICT|INTERRES
   145   74   75 1    
   146   74  195 1    
   147   75   76 1    
   148   75   77 1    
   149   75  196 1    
   150   76  197 1    
   151   76  198 1    
   152   76  199 1    
   153   77   78 2    
   154   77   79 am   BACKBONE|DICT|INTERRES
   155   79   80 1    
   156   79  200 1    
   157   80   81 1    
   158   80   82 1    
   159   80  201 1    
   160   81  202 1    
   161   81  203 1    
   162   81  204 1    
   163   82   83 2    
   164   82   84 am   BACKBONE|DICT|INTERRES
   165   84   85 1    
   166   84  205 1    
   167   85   86 1    
   168   85   87 1    
   169   85  206 1    
   170   86  207 1    
   171   86  208 1    
   172   86  209 1    
   173   87   88 2    
   174   87   89 am   BACKBONE|DICT|INTERRES
   175   89   90 1    
   176   89  210 1    
   177   90   91 1    
   178   90   92 1    
   179   90  211 1    
   180   91  212 1    
   181   91  213 1    
   182   91  214 1    
   183   92   93 2    
   184   92   94 am   BACKBONE|DICT|INTERRES
   185   94   95 1    
   186   94  215 1    
   187   95   96 1    
   188   95   97 1    
   189   95  216 1    
   190   96  217 1    
   191   96  218 1    
   192   96  219 1    
   193   97   98 2    
   194   97   99 am   BACKBONE|DICT|INTERRES
   195   99  100 1    
   196   99  220 1    
   197  100  101 1    
   198  100  102 1    
   199  100  221 1    
   200  101  222 1    
   201  101  223 1    
   202  101  224 1    
   203  102  103 2    
   204  102  104 am   BACKBONE|DICT|INTERRES
   205  104  105 1    
   206  104  225 1    
   207  105  106 1    
   208  105  107 1    
   209  105  226 1    
   210  106  227 1    
   211  106  228 1    
   212  106  229 1    
   213  107  108 2    
   214  107  109 am   BACKBONE|DICT|INTERRES
   215  109  110 1    
   216  109  230 1    
   217  110  111 1    
   218  110  112 1    
   219  110  231 1    
   220  111  232 1    
   221  111  233 1    
   222  111  234 1    
   223  112  113 2    
   224  112  114 am   BACKBONE|DICT|INTERRES
   225  114  115 1    
   226  114  235 1    
   227  115  116 1    
   228  115  117 1    
   229  115  236 1    
   230  116  237 1    
   231  116  238 1    
   232  116  239 1    
   233  117  118 2    
   234  117  119 am   BACKBONE|DICT|INTERRES
   235  119  120 1    
   236  119  240 1    
   237  120  121 1    
   238  120  124 1    
   239  120  241 1    
   240  121  122 am   BACKBONE|DICT|INTERRES
   241  121  123 2    
   242  122  242 1    
   243  122  243 1    
   244  124  125 1    
   245  124  244 1    
   246  124  245 1    
   247  125  126 1    
   248  126  246 1    
   249  126  247 1    
@<TRIPOS>SUBSTRUCTURE
     1 UNK         1 GROUP             0       ****    0 ROOT    
