@<TRIPOS>MOLECULE
3R540
247   249    1
SMALL
USER_CHARGES


@<TRIPOS>ATOM
      1 CA          4.9833  -13.8345  -48.2302 C.3       0 UNK        -0.1800 
      2 C           3.5237  -13.8020  -47.8032 C.2       0 UNK         0.5000 
      3 O           3.2340  -13.6630  -46.6163 O.2       0 UNK        -0.5000 
      4 N           2.5985  -13.9088  -48.7656 N.am      1 UNK        -0.5000 
      5 CA          1.1433  -13.9823  -48.5504 C.3       1 UNK         0.1400 
      6 C6          0.3759  -14.3975  -49.8323 C.3       23 UNK        -0.0398 
      7 S7          1.0970  -15.8502  -50.6690 S.3       23 UNK        -0.2404 
      8 C8          0.3105  -17.2234  -49.7748 C.3       23 UNK        -0.0205 
      9 C9          0.9711  -18.5378  -50.1549 C.ar      23 UNK        -0.0193 
     10 C10         0.4729  -19.3011  -51.2153 C.ar      23 UNK        -0.1150 
     11 C11         1.1215  -20.4764  -51.6096 C.ar      23 UNK        -0.0193 
     12 C12         2.2657  -20.8905  -50.9194 C.ar      23 UNK        -0.1150 
     13 C13         2.7651  -20.1436  -49.8487 C.ar      23 UNK        -0.0193 
     14 C14         2.1084  -18.9706  -49.4670 C.ar      23 UNK        -0.1150 
     15 C15         4.0456  -20.5738  -49.1450 C.3       23 UNK        -0.0205 
     16 S16         3.8557  -22.1157  -48.1941 S.3       23 UNK        -0.2404 
     17 C17         2.8163  -21.5712  -46.7970 C.3       23 UNK        -0.0398 
     18 CA          1.6214  -22.5172  -46.5289 C.3       11 UNK         0.1400 
     19 N           1.0288  -22.2806  -45.2104 N.am      11 UNK        -0.5000 
     20 C           0.0717  -23.0324  -44.6464 C.2       10 UNK         0.5000 
     21 O          -0.3853  -24.0578  -45.1512 O.2       10 UNK        -0.5000 
     22 CA         -0.5166  -22.5162  -43.3204 C.3       10 UNK         0.1400 
     23 CB          0.4182  -22.8271  -42.1425 C.3       10 UNK        -0.1800 
     24 N          -0.7996  -21.0809  -43.3628 N.am      10 UNK        -0.5000 
     25 C          -1.6825  -20.5103  -44.1950 C.2       9 UNK         0.5000 
     26 O          -2.4005  -21.1417  -44.9686 O.2       9 UNK        -0.5000 
     27 CA         -1.7427  -18.9751  -44.2001 C.3       9 UNK         0.1400 
     28 CB         -2.6529  -18.4588  -43.0771 C.3       9 UNK        -0.1800 
     29 N          -0.4133  -18.3718  -44.0970 N.am      9 UNK        -0.5000 
     30 C           0.5069  -18.4160  -45.0716 C.2       8 UNK         0.5000 
     31 O           0.3151  -18.9284  -46.1736 O.2       8 UNK        -0.5000 
     32 CA          1.8925  -17.8383  -44.7400 C.3       8 UNK         0.1400 
     33 CB          1.9158  -16.3184  -44.9483 C.3       8 UNK        -0.1800 
     34 N           2.3125  -18.1626  -43.3760 N.am      8 UNK        -0.5000 
     35 C           2.6433  -19.3999  -42.9781 C.2       7 UNK         0.5000 
     36 O           2.6392  -20.3767  -43.7262 O.2       7 UNK        -0.5000 
     37 CA          3.0004  -19.5959  -41.4932 C.3       7 UNK         0.1400 
     38 CB          4.5023  -19.3685  -41.2677 C.3       7 UNK        -0.1800 
     39 N           2.2406  -18.7380  -40.5834 N.am      7 UNK        -0.5000 
     40 C           0.9071  -18.7362  -40.4539 C.2       6 UNK         0.5000 
     41 O           0.1594  -19.4598  -41.1149 O.2       6 UNK        -0.5000 
     42 CA          0.2927  -17.7501  -39.4379 C.3       6 UNK         0.1400 
     43 CB          1.3312  -16.9350  -38.6336 C.3       6 UNK        -0.1800 
     44 N          -0.6742  -16.8476  -40.0691 N.am      6 UNK        -0.5000 
     45 C          -0.4539  -16.0208  -41.1019 C.2       5 UNK         0.5000 
     46 O           0.6198  -15.9442  -41.7027 O.2       5 UNK        -0.5000 
     47 CA         -1.6315  -15.1393  -41.5684 C.3       5 UNK         0.1400 
     48 CB         -2.9525  -15.3655  -40.7976 C.3       5 UNK        -0.1800 
     49 N          -1.2757  -13.7204  -41.5753 N.am      5 UNK        -0.5000 
     50 C          -0.8832  -12.9637  -40.5425 C.2       4 UNK         0.5000 
     51 O          -0.7813  -13.3763  -39.3855 O.2       4 UNK        -0.5000 
     52 CA         -0.5444  -11.4941  -40.8784 C.3       4 UNK         0.1400 
     53 CB         -0.2644  -10.6482  -39.6227 C.3       4 UNK        -0.1800 
     54 N           0.5994  -11.3735  -41.7861 N.am      4 UNK        -0.5000 
     55 C           0.5943  -11.6456  -43.0970 C.2       3 UNK         0.5000 
     56 O          -0.3957  -12.0675  -43.7019 O.2       3 UNK        -0.5000 
     57 CA          1.9321  -11.4366  -43.8350 C.3       3 UNK         0.1400 
     58 CB          2.8745  -12.6207  -43.5692 C.3       3 UNK        -0.1800 
     59 N           1.7638  -11.2772  -45.2816 N.am      3 UNK        -0.5000 
     60 C           1.1223  -10.2558  -45.8715 C.2       2 UNK         0.5000 
     61 O           0.6782   -9.2883  -45.2505 O.2       2 UNK        -0.5000 
     62 CA          0.9563  -10.2916  -47.4067 C.3       2 UNK         0.1400 
     63 CB          1.8243   -9.2091  -48.0687 C.3       2 UNK        -0.1800 
     64 N           1.2897  -11.5829  -48.0074 N.am      2 UNK        -0.5000 
     65 C           0.5370  -12.6906  -47.9524 C.2       1 UNK         0.5000 
     66 O          -0.5865  -12.7247  -47.4506 O.2       1 UNK        -0.5000 
     67 C           0.5617  -22.4497  -47.6469 C.2       11 UNK         0.5000 
     68 O           0.4832  -23.3732  -48.4582 O.2       11 UNK        -0.5000 
     69 N          -0.2705  -21.3967  -47.6284 N.am      12 UNK        -0.5000 
     70 CA         -1.3814  -21.2081  -48.5586 C.3       12 UNK         0.1400 
     71 CB         -2.0684  -19.8590  -48.2980 C.3       12 UNK        -0.1800 
     72 C          -2.3999  -22.3571  -48.5047 C.2       12 UNK         0.5000 
     73 O          -2.7514  -22.8911  -49.5533 O.2       12 UNK        -0.5000 
     74 N          -2.8191  -22.7473  -47.2937 N.am      13 UNK        -0.5000 
     75 CA         -3.7408  -23.8575  -47.0542 C.3       13 UNK         0.1400 
     76 CB         -4.1045  -23.9133  -45.5630 C.3       13 UNK        -0.1800 
     77 C          -3.1903  -25.2122  -47.5361 C.2       13 UNK         0.5000 
     78 O          -3.9135  -25.9547  -48.2014 O.2       13 UNK        -0.5000 
     79 N          -1.9156  -25.4938  -47.2289 N.am      14 UNK        -0.5000 
     80 CA         -1.2105  -26.7109  -47.6395 C.3       14 UNK         0.1400 
     81 CB          0.1571  -26.7691  -46.9423 C.3       14 UNK        -0.1800 
     82 C          -1.0443  -26.8330  -49.1662 C.2       14 UNK         0.5000 
     83 O          -1.1634  -27.9337  -49.7052 O.2       14 UNK        -0.5000 
     84 N          -0.7989  -25.6992  -49.8333 N.am      15 UNK        -0.5000 
     85 CA         -0.6399  -25.5894  -51.2839 C.3       15 UNK         0.1400 
     86 CB          0.4054  -24.5049  -51.5678 C.3       15 UNK        -0.1800 
     87 C          -1.9643  -25.3220  -52.0340 C.2       15 UNK         0.5000 
     88 O          -1.9295  -25.0609  -53.2389 O.2       15 UNK        -0.5000 
     89 N          -3.0999  -25.4030  -51.3242 N.am      16 UNK        -0.5000 
     90 CA         -4.4771  -25.2812  -51.8162 C.3       16 UNK         0.1400 
     91 CB         -4.8159  -26.4470  -52.7691 C.3       16 UNK        -0.1800 
     92 C          -4.8272  -23.8986  -52.4110 C.2       16 UNK         0.5000 
     93 O          -5.6850  -23.8105  -53.2916 O.2       16 UNK        -0.5000 
     94 N          -4.1827  -22.8453  -51.8966 N.am      17 UNK        -0.5000 
     95 CA         -4.4720  -21.4458  -52.1884 C.3       17 UNK         0.1400 
     96 CB         -3.1484  -20.6557  -52.2356 C.3       17 UNK        -0.1800 
     97 C          -5.4739  -20.8856  -51.1563 C.2       17 UNK         0.5000 
     98 O          -6.3900  -21.5974  -50.7377 O.2       17 UNK        -0.5000 
     99 N          -5.3036  -19.6078  -50.7846 N.am      18 UNK        -0.5000 
    100 CA        -6.1005  -18.7898  -49.8596 C.3       18 UNK         0.1400 
    101 CB        -6.1738  -19.4149  -48.4519 C.3       18 UNK        -0.1800 
    102 C         -7.4963  -18.4393  -50.4085 C.2       18 UNK         0.5000 
    103 O         -7.8347  -17.2593  -50.5026 O.2       18 UNK        -0.5000 
    104 N         -8.2617  -19.4636  -50.7985 N.am      19 UNK        -0.5000 
    105 CA        -9.5503  -19.3469  -51.4837 C.3       19 UNK         0.1400 
    106 CB       -10.4010  -20.5767  -51.1283 C.3       19 UNK        -0.1800 
    107 C         -9.3951  -19.2227  -53.0144 C.2       19 UNK         0.5000 
    108 O        -10.3762  -18.9355  -53.7015 O.2       19 UNK        -0.5000 
    109 N         -8.1800  -19.4546  -53.5225 N.am      20 UNK        -0.5000 
    110 CA        -7.7994  -19.4504  -54.9304 C.3       20 UNK         0.1400 
    111 CB        -8.2706  -20.7595  -55.5979 C.3       20 UNK        -0.1800 
    112 C         -6.2731  -19.2714  -55.0218 C.2       20 UNK         0.5000 
    113 O         -5.6231  -19.0167  -54.0037 O.2       20 UNK        -0.5000 
    114 N         -5.7229  -19.4173  -56.2324 N.am      21 UNK        -0.5000 
    115 CA        -4.2827  -19.4868  -56.4868 C.3       21 UNK         0.1400 
    116 CB        -4.0369  -19.2158  -57.9801 C.3       21 UNK        -0.1800 
    117 C         -3.6975  -20.8560  -56.0799 C.2       21 UNK         0.5000 
    118 O         -4.4436  -21.8268  -55.9365 O.2       21 UNK        -0.5000 
    119 N         -2.3695  -20.9009  -55.9203 N.am      22 UNK        -0.5000 
    120 CA        -1.5758  -22.0919  -55.5693 C.3       22 UNK         0.1400 
    121 C         -1.7633  -23.2842  -56.5498 C.2       22 UNK         0.5000 
    122 N         -1.8745  -24.5043  -56.0419 N.am      22 UNK        -0.7600 
    123 O         -1.7557  -23.1151  -57.7674 O.2       22 UNK        -0.5000 
    124 C124       -0.0681  -21.7452  -55.4507 C.3       23 UNK        -0.0398 
    125 S125        0.2982  -20.3809  -54.2894 S.3       23 UNK        -0.2404 
    126 C126        0.5874  -21.3216  -52.7593 C.3       23 UNK        -0.0205 
    127 H127        5.0875  -13.9527  -49.3090 H         1 UNK         0.0600 
    128 H128        5.4798  -12.9091  -47.9384 H         1 UNK         0.0600 
    129 H129        5.4957  -14.6654  -47.7454 H         1 UNK         0.0600 
    130 H130        2.8952  -14.0275  -49.7242 H         1 UNK         0.3000 
    131 H131        0.9767  -14.7637  -47.8076 H         1 UNK         0.0600 
    132 H132       -0.6715  -14.6044  -49.6047 H         1 UNK         0.0800 
    133 H133        0.3726  -13.5775  -50.5527 H         1 UNK         0.0800 
    134 H134        0.3946  -17.0658  -48.6981 H         1 UNK         0.0800 
    135 H135       -0.7551  -17.2486  -50.0072 H         1 UNK         0.0800 
    136 H136       -0.4076  -18.9703  -51.7477 H         1 UNK         0.1150 
    137 H137        2.7750  -21.7975  -51.2136 H         1 UNK         0.1150 
    138 H138        2.4960  -18.3758  -48.6518 H         1 UNK         0.1150 
    139 H139        4.8232  -20.7226  -49.8955 H         1 UNK         0.0800 
    140 H140        4.4116  -19.7868  -48.4838 H         1 UNK         0.0800 
    141 H141        2.4755  -20.5456  -46.9460 H         1 UNK         0.0800 
    142 H142        3.4673  -21.5452  -45.9229 H         1 UNK         0.0800 
    143 H143        2.0047  -23.5398  -46.5106 H         1 UNK         0.0600 
    144 H144        1.3833  -21.4784  -44.6977 H         1 UNK         0.3000 
    145 H145       -1.4618  -23.0359  -43.1500 H         1 UNK         0.0600 
    146 H146       -0.0090  -22.4870  -41.1988 H         1 UNK         0.0600 
    147 H147        0.5896  -23.9006  -42.0555 H         1 UNK         0.0600 
    148 H148        1.3902  -22.3494  -42.2611 H         1 UNK         0.0600 
    149 H149       -0.2931  -20.4910  -42.7092 H         1 UNK         0.3000 
    150 H150       -2.1819  -18.6683  -45.1516 H         1 UNK         0.0600 
    151 H151       -3.6211  -18.9611  -43.0979 H         1 UNK         0.0600 
    152 H152       -2.8468  -17.3941  -43.1927 H         1 UNK         0.0600 
    153 H153       -2.2201  -18.6251  -42.0907 H         1 UNK         0.0600 
    154 H154       -0.1461  -17.9906  -43.2008 H         1 UNK         0.3000 
    155 H155        2.6116  -18.2818  -45.4323 H         1 UNK         0.0600 
    156 H156        2.9051  -15.9072  -44.7470 H         1 UNK         0.0600 
    157 H157        1.2002  -15.8056  -44.3054 H         1 UNK         0.0600 
    158 H158        1.6669  -16.0677  -45.9790 H         1 UNK         0.0600 
    159 H159        2.2832  -17.4152  -42.6948 H         1 UNK         0.3000 
    160 H160        2.7719  -20.6314  -41.2347 H         1 UNK         0.0600 
    161 H161        4.7892  -18.3370  -41.4762 H         1 UNK         0.0600 
    162 H162        5.0965  -20.0125  -41.9174 H         1 UNK         0.0600 
    163 H163        4.7863  -19.5959  -40.2400 H         1 UNK         0.0600 
    164 H164        2.7758  -18.0956  -40.0177 H         1 UNK         0.3000 
    165 H165       -0.2690  -18.3601  -38.7292 H         1 UNK         0.0600 
    166 H166        1.9368  -16.2920  -39.2735 H         1 UNK         0.0600 
    167 H167        0.8368  -16.2935  -37.9039 H         1 UNK         0.0600 
    168 H168        2.0044  -17.5882  -38.0768 H         1 UNK         0.0600 
    169 H169       -1.5987  -16.8533  -39.6630 H         1 UNK         0.3000 
    170 H170       -1.8066  -15.4023  -42.6117 H         1 UNK         0.0600 
    171 H171       -3.2832  -16.4023  -40.8683 H         1 UNK         0.0600 
    172 H172       -2.8618  -15.1152  -39.7401 H         1 UNK         0.0600 
    173 H173       -3.7516  -14.7505  -41.2117 H         1 UNK         0.0600 
    174 H174       -1.2272  -13.2840  -42.4926 H         1 UNK         0.3000 
    175 H175       -1.4212  -11.0682  -41.3709 H         1 UNK         0.0600 
    176 H176       -0.1023   -9.6014  -39.8803 H         1 UNK         0.0600 
    177 H177       -1.1075  -10.6829  -38.9314 H         1 UNK         0.0600 
    178 H178        0.6165  -11.0021  -39.0855 H         1 UNK         0.0600 
    179 H179        1.4638  -11.0707  -41.3609 H         1 UNK         0.3000 
    180 H180        2.3975  -10.5267  -43.4509 H         1 UNK         0.0600 
    181 H181        2.4457  -13.5577  -43.9252 H         1 UNK         0.0600 
    182 H182        3.0743  -12.7375  -42.5034 H         1 UNK         0.0600 
    183 H183        3.8351  -12.4819  -44.0657 H         1 UNK         0.0600 
    184 H184        2.1011  -12.0415  -45.8557 H         1 UNK         0.3000 
    185 H185       -0.0906  -10.0702  -47.6244 H         1 UNK         0.0600 
    186 H186        1.6667   -9.1812  -49.1470 H         1 UNK         0.0600 
    187 H187        1.5800   -8.2190  -47.6815 H         1 UNK         0.0600 
    188 H188        2.8863   -9.3793  -47.8876 H         1 UNK         0.0600 
    189 H189        2.2013  -11.6577  -48.4350 H         1 UNK         0.3000 
    190 H190       -0.1202  -20.6558  -46.9501 H         1 UNK         0.3000 
    191 H191       -0.9575  -21.1884  -49.5637 H         1 UNK         0.0600 
    192 H192       -1.3563  -19.0375  -48.3465 H         1 UNK         0.0600 
    193 H193       -2.8421  -19.6637  -49.0403 H         1 UNK         0.0600 
    194 H194       -2.5418  -19.8278  -47.3174 H         1 UNK         0.0600 
    195 H195       -2.5034  -22.2334  -46.4740 H         1 UNK         0.3000 
    196 H196       -4.6536  -23.6530  -47.6177 H         1 UNK         0.0600 
    197 H197       -4.7980  -24.7299  -45.3589 H         1 UNK         0.0600 
    198 H198       -4.5853  -22.9894  -45.2410 H         1 UNK         0.0600 
    199 H199       -3.2229  -24.0649  -44.9391 H         1 UNK         0.0600 
    200 H200       -1.3907  -24.8377  -46.6569 H         1 UNK         0.3000 
    201 H201       -1.8000  -27.5659  -47.3026 H         1 UNK         0.0600 
    202 H202        0.7787  -25.9123  -47.2053 H         1 UNK         0.0600 
    203 H203        0.7026  -27.6709  -47.2230 H         1 UNK         0.0600 
    204 H204        0.0460  -26.7806  -45.8580 H         1 UNK         0.0600 
    205 H205       -0.6730  -24.8413  -49.3039 H         1 UNK         0.3000 
    206 H206       -0.2492  -26.5302  -51.6765 H         1 UNK         0.0600 
    207 H207        1.3720  -24.7695  -51.1388 H         1 UNK         0.0600 
    208 H208        0.5534  -24.3635  -52.6387 H         1 UNK         0.0600 
    209 H209        0.1033  -23.5540  -51.1314 H         1 UNK         0.0600 
    210 H210       -3.0134  -25.5719  -50.3302 H         1 UNK         0.3000 
    211 H211       -5.1114  -25.3883  -50.9351 H         1 UNK         0.0600 
    212 H212       -4.2687  -26.3723  -53.7093 H         1 UNK         0.0600 
    213 H213       -5.8793  -26.4601  -53.0106 H         1 UNK         0.0600 
    214 H214       -4.5767  -27.4092  -52.3161 H         1 UNK         0.0600 
    215 H215       -3.5579  -23.0060  -51.1068 H         1 UNK         0.3000 
    216 H216       -4.9416  -21.3766  -53.1699 H         1 UNK         0.0600 
    217 H217       -2.4599  -21.1005  -52.9455 H         1 UNK         0.0600 
    218 H218       -2.6503  -20.6323  -51.2675 H         1 UNK         0.0600 
    219 H219       -3.3016  -19.6273  -52.5640 H         1 UNK         0.0600 
    220 H220       -4.5577  -19.1041  -51.2441 H         1 UNK         0.3000 
    221 H221       -5.5578  -17.8481  -49.7631 H         1 UNK         0.0600 
    222 H222       -6.6704  -18.7388  -47.7551 H         1 UNK         0.0600 
    223 H223       -6.7304  -20.3521  -48.4433 H         1 UNK         0.0600 
    224 H224       -5.1786  -19.6152  -48.0556 H         1 UNK         0.0600 
    225 H225       -7.8707  -20.3980  -50.7054 H         1 UNK         0.3000 
    226 H226      -10.0724  -18.4553  -51.1303 H         1 UNK         0.0600 
    227 H227      -10.5554  -20.6510  -50.0517 H         1 UNK         0.0600 
    228 H228      -11.3859  -20.5209  -51.5938 H         1 UNK         0.0600 
    229 H229       -9.9298  -21.5014  -51.4644 H         1 UNK         0.0600 
    230 H230       -7.4055  -19.5967  -52.8882 H         1 UNK         0.3000 
    231 H231       -8.2664  -18.5961  -55.4242 H         1 UNK         0.0600 
    232 H232       -9.3445  -20.9043  -55.4801 H         1 UNK         0.0600 
    233 H233       -7.7685  -21.6278  -55.1684 H         1 UNK         0.0600 
    234 H234       -8.0690  -20.7584  -56.6692 H         1 UNK         0.0600 
    235 H235       -6.3204  -19.6577  -57.0092 H         1 UNK         0.3000 
    236 H236       -3.7840  -18.7099  -55.9029 H         1 UNK         0.0600 
    237 H237       -4.4300  -18.2426  -58.2745 H         1 UNK         0.0600 
    238 H238       -2.9708  -19.2163  -58.2105 H         1 UNK         0.0600 
    239 H239       -4.5076  -19.9729  -58.6088 H         1 UNK         0.0600 
    240 H240       -1.8334  -20.0587  -56.0687 H         1 UNK         0.3000 
    241 H241       -1.9223  -22.4309  -54.5930 H         1 UNK         0.0600 
    242 H242       -1.8874  -24.6675  -55.0355 H         1 UNK         0.3800 
    243 H243       -1.9792  -25.2874  -56.6668 H         1 UNK         0.3800 
    244 H244        0.5022  -22.6272  -55.1536 H         1 UNK         0.0800 
    245 H245        0.3253  -21.4555  -56.4269 H         1 UNK         0.0800 
    246 H246        1.2895  -22.1257  -52.9813 H         1 UNK         0.0800 
    247 H247       -0.3460  -21.7890  -52.4503 H         1 UNK         0.0800 
@<TRIPOS>BOND
     1    1    2 1    
     2    1  127 1    
     3    1  128 1    
     4    1  129 1    
     5    2    3 2    
     6    2    4 am   BACKBONE|DICT|INTERRES
     7    4    5 1    
     8    4  130 1    
     9    5    6 1    
    10    5   65 1    
    11    5  131 1    
    12    6    7 1    
    13    6  132 1    
    14    6  133 1    
    15    7    8 1    
    16    8    9 1    
    17    8  134 1    
    18    8  135 1    
    19    9   10 ar   
    20    9   14 ar   
    21   10   11 ar   
    22   10  136 1    
    23   11   12 ar   
    24   11  126 1    
    25   12   13 ar   
    26   12  137 1    
    27   13   14 ar   
    28   13   15 1    
    29   14  138 1    
    30   15   16 1    
    31   15  139 1    
    32   15  140 1    
    33   16   17 1    
    34   17   18 1    
    35   17  141 1    
    36   17  142 1    
    37   18   19 1    
    38   18   67 1    
    39   18  143 1    
    40   19   20 am   BACKBONE|DICT|INTERRES
    41   19  144 1    
    42   20   21 2    
    43   20   22 1    
    44   22   23 1    
    45   22   24 1    
    46   22  145 1    
    47   23  146 1    
    48   23  147 1    
    49   23  148 1    
    50   24   25 am   BACKBONE|DICT|INTERRES
    51   24  149 1    
    52   25   26 2    
    53   25   27 1    
    54   27   28 1    
    55   27   29 1    
    56   27  150 1    
    57   28  151 1    
    58   28  152 1    
    59   28  153 1    
    60   29   30 am   BACKBONE|DICT|INTERRES
    61   29  154 1    
    62   30   31 2    
    63   30   32 1    
    64   32   33 1    
    65   32   34 1    
    66   32  155 1    
    67   33  156 1    
    68   33  157 1    
    69   33  158 1    
    70   34   35 am   BACKBONE|DICT|INTERRES
    71   34  159 1    
    72   35   36 2    
    73   35   37 1    
    74   37   38 1    
    75   37   39 1    
    76   37  160 1    
    77   38  161 1    
    78   38  162 1    
    79   38  163 1    
    80   39   40 am   BACKBONE|DICT|INTERRES
    81   39  164 1    
    82   40   41 2    
    83   40   42 1    
    84   42   43 1    
    85   42   44 1    
    86   42  165 1    
    87   43  166 1    
    88   43  167 1    
    89   43  168 1    
    90   44   45 am   BACKBONE|DICT|INTERRES
    91   44  169 1    
    92   45   46 2    
    93   45   47 1    
    94   47   48 1    
    95   47   49 1    
    96   47  170 1    
    97   48  171 1    
    98   48  172 1    
    99   48  173 1    
   100   49   50 am   BACKBONE|DICT|INTERRES
   101   49  174 1    
   102   50   51 2    
   103   50   52 1    
   104   52   53 1    
   105   52   54 1    
   106   52  175 1    
   107   53  176 1    
   108   53  177 1    
   109   53  178 1    
   110   54   55 am   BACKBONE|DICT|INTERRES
   111   54  179 1    
   112   55   56 2    
   113   55   57 1    
   114   57   58 1    
   115   57   59 1    
   116   57  180 1    
   117   58  181 1    
   118   58  182 1    
   119   58  183 1    
   120   59   60 am   BACKBONE|DICT|INTERRES
   121   59  184 1    
   122   60   61 2    
   123   60   62 1    
   124   62   63 1    
   125   62   64 1    
   126   62  185 1    
   127   63  186 1    
   128   63  187 1    
   129   63  188 1    
   130   64   65 am   BACKBONE|DICT|INTERRES
   131   64  189 1    
   132   65   66 2    
   133   67   68 2    
   134   67   69 am   BACKBONE|DICT|INTERRES
   135   69   70 1    
   136   69  190 1    
   137   70   71 1    
   138   70   72 1    
   139   70  191 1    
   140   71  192 1    
   141   71  193 1    
   142   71  194 1    
   143   72   73 2    
   144   72   74 am   BACKBONE|DICT|INTERRES
   145   74   75 1    
   146   74  195 1    
   147   75   76 1    
   148   75   77 1    
   149   75  196 1    
   150   76  197 1    
   151   76  198 1    
   152   76  199 1    
   153   77   78 2    
   154   77   79 am   BACKBONE|DICT|INTERRES
   155   79   80 1    
   156   79  200 1    
   157   80   81 1    
   158   80   82 1    
   159   80  201 1    
   160   81  202 1    
   161   81  203 1    
   162   81  204 1    
   163   82   83 2    
   164   82   84 am   BACKBONE|DICT|INTERRES
   165   84   85 1    
   166   84  205 1    
   167   85   86 1    
   168   85   87 1    
   169   85  206 1    
   170   86  207 1    
   171   86  208 1    
   172   86  209 1    
   173   87   88 2    
   174   87   89 am   BACKBONE|DICT|INTERRES
   175   89   90 1    
   176   89  210 1    
   177   90   91 1    
   178   90   92 1    
   179   90  211 1    
   180   91  212 1    
   181   91  213 1    
   182   91  214 1    
   183   92   93 2    
   184   92   94 am   BACKBONE|DICT|INTERRES
   185   94   95 1    
   186   94  215 1    
   187   95   96 1    
   188   95   97 1    
   189   95  216 1    
   190   96  217 1    
   191   96  218 1    
   192   96  219 1    
   193   97   98 2    
   194   97   99 am   BACKBONE|DICT|INTERRES
   195   99  100 1    
   196   99  220 1    
   197  100  101 1    
   198  100  102 1    
   199  100  221 1    
   200  101  222 1    
   201  101  223 1    
   202  101  224 1    
   203  102  103 2    
   204  102  104 am   BACKBONE|DICT|INTERRES
   205  104  105 1    
   206  104  225 1    
   207  105  106 1    
   208  105  107 1    
   209  105  226 1    
   210  106  227 1    
   211  106  228 1    
   212  106  229 1    
   213  107  108 2    
   214  107  109 am   BACKBONE|DICT|INTERRES
   215  109  110 1    
   216  109  230 1    
   217  110  111 1    
   218  110  112 1    
   219  110  231 1    
   220  111  232 1    
   221  111  233 1    
   222  111  234 1    
   223  112  113 2    
   224  112  114 am   BACKBONE|DICT|INTERRES
   225  114  115 1    
   226  114  235 1    
   227  115  116 1    
   228  115  117 1    
   229  115  236 1    
   230  116  237 1    
   231  116  238 1    
   232  116  239 1    
   233  117  118 2    
   234  117  119 am   BACKBONE|DICT|INTERRES
   235  119  120 1    
   236  119  240 1    
   237  120  121 1    
   238  120  124 1    
   239  120  241 1    
   240  121  122 am   BACKBONE|DICT|INTERRES
   241  121  123 2    
   242  122  242 1    
   243  122  243 1    
   244  124  125 1    
   245  124  244 1    
   246  124  245 1    
   247  125  126 1    
   248  126  246 1    
   249  126  247 1    
@<TRIPOS>SUBSTRUCTURE
     1 UNK         1 GROUP             0       ****    0 ROOT    
