@<TRIPOS>MOLECULE
3R540
247   249    1
SMALL
USER_CHARGES


@<TRIPOS>ATOM
      1 CA         -3.2365  -11.5231  -48.1232 C.3       0 UNK        -0.1800 
      2 C          -2.6202  -12.8687  -47.7698 C.2       0 UNK         0.5000 
      3 O          -3.0733  -13.5202  -46.8284 O.2       0 UNK        -0.5000 
      4 N          -1.5768  -13.2766  -48.5083 N.am      1 UNK        -0.5000 
      5 CA         -0.8762  -14.5677  -48.3946 C.3       1 UNK         0.1400 
      6 C6         -1.7742  -15.7675  -48.8112 C.3       23 UNK        -0.0398 
      7 S7         -2.0416  -15.8068  -50.6175 S.3       23 UNK        -0.2404 
      8 C8         -1.9131  -17.5920  -50.9819 C.3       23 UNK        -0.0205 
      9 C9         -0.5031  -18.0843  -51.2986 C.ar      23 UNK        -0.0193 
     10 C10        -0.3071  -18.9607  -52.3693 C.ar      23 UNK        -0.1150 
     11 C11         0.9594  -19.4796  -52.6505 C.ar      23 UNK        -0.0193 
     12 C12         2.0396  -19.1387  -51.8309 C.ar      23 UNK        -0.1150 
     13 C13         1.8618  -18.2623  -50.7563 C.ar      23 UNK        -0.0193 
     14 C14         0.5950  -17.7258  -50.5119 C.ar      23 UNK        -0.1150 
     15 C15         3.0371  -17.8802  -49.8662 C.3       23 UNK        -0.0205 
     16 S16         3.2415  -19.0202  -48.4567 S.3       23 UNK        -0.2404 
     17 C17         1.7563  -18.6607  -47.4571 C.3       23 UNK        -0.0398 
     18 CA          0.7448  -19.8289  -47.4817 C.3       11 UNK         0.1400 
     19 N           1.2699  -21.0038  -46.7856 N.am      11 UNK        -0.5000 
     20 C           0.8034  -22.2500  -46.9179 C.2       10 UNK         0.5000 
     21 O          -0.1127  -22.5627  -47.6775 O.2       10 UNK        -0.5000 
     22 CA          1.4541  -23.3168  -46.0169 C.3       10 UNK         0.1400 
     23 CB          2.7501  -23.8437  -46.6510 C.3       10 UNK        -0.1800 
     24 N           1.7402  -22.8207  -44.6670 N.am      10 UNK        -0.5000 
     25 C           0.7943  -22.4952  -43.7751 C.2       9 UNK         0.5000 
     26 O          -0.4113  -22.5924  -43.9986 O.2       9 UNK        -0.5000 
     27 CA          1.2643  -21.9389  -42.4174 C.3       9 UNK         0.1400 
     28 CB          1.6181  -23.0921  -41.4667 C.3       9 UNK        -0.1800 
     29 N           2.3890  -20.9989  -42.4781 N.am      9 UNK        -0.5000 
     30 C           2.4632  -19.8965  -43.2391 C.2       8 UNK         0.5000 
     31 O           1.6266  -19.6088  -44.0937 O.2       8 UNK        -0.5000 
     32 CA          3.6620  -18.9573  -43.0006 C.3       8 UNK         0.1400 
     33 CB          3.3838  -17.5239  -43.4914 C.3       8 UNK        -0.1800 
     34 N           4.0105  -18.9047  -41.5811 N.am      8 UNK        -0.5000 
     35 C           5.0098  -19.5815  -40.9986 C.2       7 UNK         0.5000 
     36 O           5.7556  -20.3481  -41.6081 O.2       7 UNK        -0.5000 
     37 CA          5.2089  -19.3868  -39.4811 C.3       7 UNK         0.1400 
     38 CB          6.3846  -18.4340  -39.2148 C.3       7 UNK        -0.1800 
     39 N           4.0214  -18.8685  -38.8002 N.am      7 UNK        -0.5000 
     40 C           2.8934  -19.5597  -38.5837 C.2       6 UNK         0.5000 
     41 O           2.7550  -20.7466  -38.8777 O.2       6 UNK        -0.5000 
     42 CA          1.7140  -18.7847  -37.9612 C.3       6 UNK         0.1400 
     43 CB          1.6576  -19.0182  -36.4441 C.3       6 UNK        -0.1800 
     44 N           1.7592  -17.3413  -38.2233 N.am      6 UNK        -0.5000 
     45 C           1.6338  -16.7856  -39.4355 C.2       5 UNK         0.5000 
     46 O           1.4616  -17.4358  -40.4678 O.2       5 UNK        -0.5000 
     47 CA          1.7729  -15.2583  -39.5103 C.3       5 UNK         0.1400 
     48 CB          2.9441  -14.8579  -40.4231 C.3       5 UNK        -0.1800 
     49 N           0.5368  -14.6685  -40.0149 N.am      5 UNK        -0.5000 
     50 C          -0.4952  -14.3058  -39.2391 C.2       4 UNK         0.5000 
     51 O          -0.4910  -14.4196  -38.0123 O.2       4 UNK        -0.5000 
     52 CA         -1.7366  -13.6970  -39.9251 C.3       4 UNK         0.1400 
     53 CB         -1.7070  -12.1641  -39.8222 C.3       4 UNK        -0.1800 
     54 N          -1.8677  -14.0704  -41.3324 N.am      4 UNK        -0.5000 
     55 C          -2.2259  -15.2842  -41.7692 C.2       3 UNK         0.5000 
     56 O          -2.5786  -16.1991  -41.0243 O.2       3 UNK        -0.5000 
     57 CA         -2.1702  -15.5283  -43.2907 C.3       3 UNK         0.1400 
     58 CB         -3.5807  -15.5382  -43.8989 C.3       3 UNK        -0.1800 
     59 N          -1.3303  -14.5997  -44.0538 N.am      3 UNK        -0.5000 
     60 C          -0.0058  -14.4466  -43.9000 C.2       2 UNK         0.5000 
     61 O           0.6230  -14.9218  -42.9549 O.2       2 UNK        -0.5000 
     62 CA          0.7354  -13.6263  -44.9804 C.3       2 UNK         0.1400 
     63 CB          2.2254  -14.0147  -45.0882 C.3       2 UNK        -0.1800 
     64 N           0.0982  -13.6787  -46.3042 N.am      2 UNK        -0.5000 
     65 C          -0.1831  -14.7775  -47.0249 C.2       1 UNK         0.5000 
     66 O           0.0911  -15.9159  -46.6494 O.2       1 UNK        -0.5000 
     67 C          -0.6230  -19.4171  -46.8996 C.2       11 UNK         0.5000 
     68 O          -1.5426  -19.1140  -47.6599 O.2       11 UNK        -0.5000 
     69 N          -0.7598  -19.4828  -45.5676 N.am      12 UNK        -0.5000 
     70 CA         -2.0075  -19.2515  -44.8405 C.3       12 UNK         0.1400 
     71 CB         -1.7385  -19.3062  -43.3279 C.3       12 UNK        -0.1800 
     72 C          -3.1104  -20.2512  -45.2349 C.2       12 UNK         0.5000 
     73 O          -4.2516  -19.8414  -45.4441 O.2       12 UNK        -0.5000 
     74 N          -2.7383  -21.5321  -45.3731 N.am      13 UNK        -0.5000 
     75 CA         -3.6098  -22.6141  -45.8321 C.3       13 UNK         0.1400 
     76 CB         -2.9185  -23.9639  -45.5877 C.3       13 UNK        -0.1800 
     77 C          -4.0267  -22.4829  -47.3092 C.2       13 UNK         0.5000 
     78 O          -5.1248  -22.9163  -47.6599 O.2       13 UNK        -0.5000 
     79 N          -3.1637  -21.8844  -48.1451 N.am      14 UNK        -0.5000 
     80 CA         -3.4473  -21.5992  -49.5539 C.3       14 UNK         0.1400 
     81 CB         -2.1441  -21.2773  -50.3010 C.3       14 UNK        -0.1800 
     82 C          -4.5065  -20.4961  -49.7472 C.2       14 UNK         0.5000 
     83 O          -5.2053  -20.5140  -50.7593 O.2       14 UNK        -0.5000 
     84 N          -4.6310  -19.5917  -48.7618 N.am      15 UNK        -0.5000 
     85 CA         -5.7739  -18.7046  -48.4977 C.3       15 UNK         0.1400 
     86 CB         -6.9130  -19.5302  -47.8649 C.3       15 UNK        -0.1800 
     87 C          -6.2622  -17.8697  -49.7037 C.2       15 UNK         0.5000 
     88 O          -7.4686  -17.7074  -49.8952 O.2       15 UNK        -0.5000 
     89 N          -5.3095  -17.3718  -50.5039 N.am      16 UNK        -0.5000 
     90 CA         -5.4989  -16.5950  -51.7375 C.3       16 UNK         0.1400 
     91 CB         -6.2072  -15.2547  -51.4494 C.3       16 UNK        -0.1800 
     92 C          -6.1486  -17.3768  -52.9024 C.2       16 UNK         0.5000 
     93 O          -6.5413  -16.7615  -53.8944 O.2       16 UNK        -0.5000 
     94 N          -6.2020  -18.7120  -52.8054 N.am      17 UNK        -0.5000 
     95 CA         -6.6908  -19.6246  -53.8399 C.3       17 UNK         0.1400 
     96 CB         -7.6681  -20.6281  -53.2014 C.3       17 UNK        -0.1800 
     97 C          -5.5033  -20.3209  -54.5310 C.2       17 UNK         0.5000 
     98 O          -5.5476  -21.5283  -54.7740 O.2       17 UNK        -0.5000 
     99 N          -4.4509  -19.5446  -54.8324 N.am      18 UNK        -0.5000 
    100 CA        -3.1578  -19.9867  -55.3673 C.3       18 UNK         0.1400 
    101 CB        -2.2816  -18.7527  -55.6299 C.3       18 UNK        -0.1800 
    102 C         -3.2452  -20.8487  -56.6401 C.2       18 UNK         0.5000 
    103 O         -2.4572  -21.7815  -56.7943 O.2       18 UNK        -0.5000 
    104 N         -4.2267  -20.5558  -57.5031 N.am      19 UNK        -0.5000 
    105 CA        -4.5087  -21.2976  -58.7342 C.3       19 UNK         0.1400 
    106 CB        -5.5902  -20.5496  -59.5286 C.3       19 UNK        -0.1800 
    107 C         -4.9294  -22.7637  -58.5009 C.2       19 UNK         0.5000 
    108 O         -4.7081  -23.5965  -59.3808 O.2       19 UNK        -0.5000 
    109 N         -5.5150  -23.0512  -57.3312 N.am      20 UNK        -0.5000 
    110 CA        -5.9092  -24.3918  -56.9054 C.3       20 UNK         0.1400 
    111 CB        -7.3196  -24.3290  -56.2968 C.3       20 UNK        -0.1800 
    112 C         -4.9107  -24.9663  -55.8875 C.2       20 UNK         0.5000 
    113 O         -4.5649  -26.1448  -55.9774 O.2       20 UNK        -0.5000 
    114 N         -4.4840  -24.1349  -54.9273 N.am      21 UNK        -0.5000 
    115 CA        -3.6395  -24.5305  -53.8022 C.3       21 UNK         0.1400 
    116 CB        -3.7090  -23.4466  -52.7179 C.3       21 UNK        -0.1800 
    117 C         -2.1764  -24.8024  -54.1891 C.2       21 UNK         0.5000 
    118 O         -1.5891  -25.7580  -53.6791 O.2       21 UNK        -0.5000 
    119 N         -1.6166  -23.9571  -55.0608 N.am      22 UNK        -0.5000 
    120 CA        -0.2166  -24.0187  -55.5077 C.3       22 UNK         0.1400 
    121 C         -0.1119  -24.4720  -56.9872 C.2       22 UNK         0.5000 
    122 N         -0.9793  -23.9960  -57.8724 N.am      22 UNK        -0.7600 
    123 O          0.7578  -25.2662  -57.3342 O.2       22 UNK        -0.5000 
    124 C124        0.5195  -22.6679  -55.3115 C.3       23 UNK        -0.0398 
    125 S125        0.4499  -22.0364  -53.5997 S.3       23 UNK        -0.2404 
    126 C126        1.1539  -20.3802  -53.8599 C.3       23 UNK        -0.0205 
    127 H127       -2.7265  -11.0508  -48.9631 H         1 UNK         0.0600 
    128 H128       -3.1816  -10.8491  -47.2684 H         1 UNK         0.0600 
    129 H129       -4.2853  -11.6513  -48.3908 H         1 UNK         0.0600 
    130 H130       -1.2526  -12.6826  -49.2591 H         1 UNK         0.3000 
    131 H131       -0.0469  -14.5175  -49.1020 H         1 UNK         0.0600 
    132 H132       -1.3373  -16.7174  -48.5117 H         1 UNK         0.0800 
    133 H133       -2.7417  -15.7309  -48.3096 H         1 UNK         0.0800 
    134 H134       -2.5676  -17.8038  -51.8282 H         1 UNK         0.0800 
    135 H135       -2.3065  -18.1661  -50.1433 H         1 UNK         0.0800 
    136 H136       -1.1440  -19.2555  -52.9842 H         1 UNK         0.1150 
    137 H137        3.0201  -19.5457  -52.0341 H         1 UNK         0.1150 
    138 H138        0.4684  -17.0335  -49.6978 H         1 UNK         0.1150 
    139 H139        3.9567  -17.8828  -50.4532 H         1 UNK         0.0800 
    140 H140        2.9193  -16.8601  -49.4971 H         1 UNK         0.0800 
    141 H141        1.3025  -17.7446  -47.8224 H         1 UNK         0.0800 
    142 H142        2.0672  -18.4398  -46.4362 H         1 UNK         0.0800 
    143 H143        0.5726  -20.1024  -48.5254 H         1 UNK         0.0600 
    144 H144        1.9796  -20.8256  -46.0899 H         1 UNK         0.3000 
    145 H145        0.7535  -24.1503  -45.9317 H         1 UNK         0.0600 
    146 H146        3.1774  -24.6539  -46.0600 H         1 UNK         0.0600 
    147 H147        2.5626  -24.2361  -47.6515 H         1 UNK         0.0600 
    148 H148        3.5032  -23.0599  -46.7420 H         1 UNK         0.0600 
    149 H149        2.7098  -22.7079  -44.4100 H         1 UNK         0.3000 
    150 H150        0.4236  -21.3944  -41.9842 H         1 UNK         0.0600 
    151 H151        0.7972  -23.8071  -41.3950 H         1 UNK         0.0600 
    152 H152        1.8150  -22.7279  -40.4587 H         1 UNK         0.0600 
    153 H153        2.5003  -23.6369  -41.8050 H         1 UNK         0.0600 
    154 H154        3.1238  -21.1465  -41.8016 H         1 UNK         0.3000 
    155 H155        4.4987  -19.3506  -43.5809 H         1 UNK         0.0600 
    156 H156        2.4840  -17.1097  -43.0344 H         1 UNK         0.0600 
    157 H157        3.2414  -17.4982  -44.5717 H         1 UNK         0.0600 
    158 H158        4.2140  -16.8565  -43.2606 H         1 UNK         0.0600 
    159 H159        3.3871  -18.3547  -41.0025 H         1 UNK         0.3000 
    160 H160        5.4529  -20.3615  -39.0532 H         1 UNK         0.0600 
    161 H161        6.1921  -17.4365  -39.6120 H         1 UNK         0.0600 
    162 H162        7.2996  -18.8020  -39.6810 H         1 UNK         0.0600 
    163 H163        6.5819  -18.3391  -38.1469 H         1 UNK         0.0600 
    164 H164        4.0500  -17.9016  -38.5130 H         1 UNK         0.3000 
    165 H165        0.7960  -19.1784  -38.4030 H         1 UNK         0.0600 
    166 H166        0.7817  -18.5414  -36.0035 H         1 UNK         0.0600 
    167 H167        1.5958  -20.0829  -36.2147 H         1 UNK         0.0600 
    168 H168        2.5430  -18.6253  -35.9428 H         1 UNK         0.0600 
    169 H169        1.8876  -16.7424  -37.4199 H         1 UNK         0.3000 
    170 H170        1.9868  -14.8662  -38.5136 H         1 UNK         0.0600 
    171 H171        3.8843  -15.2711  -40.0561 H         1 UNK         0.0600 
    172 H172        2.8069  -15.2163  -41.4435 H         1 UNK         0.0600 
    173 H173        3.0579  -13.7746  -40.4643 H         1 UNK         0.0600 
    174 H174        0.4425  -14.6372  -41.0264 H         1 UNK         0.3000 
    175 H175       -2.6176  -14.0569  -39.3894 H         1 UNK         0.0600 
    176 H176       -0.8512  -11.7419  -40.3505 H         1 UNK         0.0600 
    177 H177       -2.6121  -11.7226  -40.2398 H         1 UNK         0.0600 
    178 H178       -1.6411  -11.8434  -38.7816 H         1 UNK         0.0600 
    179 H179       -1.5908  -13.3819  -42.0163 H         1 UNK         0.3000 
    180 H180       -1.7370  -16.5178  -43.4286 H         1 UNK         0.0600 
    181 H181       -3.5544  -15.8242  -44.9509 H         1 UNK         0.0600 
    182 H182       -4.0530  -14.5576  -43.8301 H         1 UNK         0.0600 
    183 H183       -4.2253  -16.2531  -43.3857 H         1 UNK         0.0600 
    184 H184       -1.7664  -14.1666  -44.8576 H         1 UNK         0.3000 
    185 H185        0.6865  -12.5862  -44.6557 H         1 UNK         0.0600 
    186 H186        2.3502  -15.0660  -45.3501 H         1 UNK         0.0600 
    187 H187        2.7358  -13.4177  -45.8438 H         1 UNK         0.0600 
    188 H188        2.7443  -13.8514  -44.1429 H         1 UNK         0.0600 
    189 H189       -0.1768  -12.7881  -46.6939 H         1 UNK         0.3000 
    190 H190        0.0646  -19.6884  -45.0064 H         1 UNK         0.3000 
    191 H191       -2.3522  -18.2479  -45.0969 H         1 UNK         0.0600 
    192 H192       -2.6121  -18.9726  -42.7666 H         1 UNK         0.0600 
    193 H193       -0.9024  -18.6663  -43.0445 H         1 UNK         0.0600 
    194 H194       -1.5049  -20.3170  -42.9956 H         1 UNK         0.0600 
    195 H195       -1.7925  -21.7963  -45.1118 H         1 UNK         0.3000 
    196 H196       -4.5211  -22.5863  -45.2312 H         1 UNK         0.0600 
    197 H197       -1.9757  -24.0362  -46.1310 H         1 UNK         0.0600 
    198 H198       -2.7069  -24.1121  -44.5287 H         1 UNK         0.0600 
    199 H199       -3.5497  -24.7924  -45.9114 H         1 UNK         0.0600 
    200 H200       -2.2617  -21.5927  -47.7914 H         1 UNK         0.3000 
    201 H201       -3.8643  -22.5072  -49.9915 H         1 UNK         0.0600 
    202 H202       -1.6112  -20.4412  -49.8539 H         1 UNK         0.0600 
    203 H203       -2.3396  -21.0212  -51.3427 H         1 UNK         0.0600 
    204 H204       -1.4697  -22.1338  -50.2999 H         1 UNK         0.0600 
    205 H205       -3.9550  -19.6480  -48.0103 H         1 UNK         0.3000 
    206 H206       -5.4334  -17.9862  -47.7507 H         1 UNK         0.0600 
    207 H207       -6.5631  -20.0808  -46.9916 H         1 UNK         0.0600 
    208 H208       -7.7310  -18.8893  -47.5340 H         1 UNK         0.0600 
    209 H209       -7.3231  -20.2531  -48.5712 H         1 UNK         0.0600 
    210 H210       -4.3516  -17.5702  -50.2571 H         1 UNK         0.3000 
    211 H211       -4.4994  -16.3489  -52.0932 H         1 UNK         0.0600 
    212 H212       -6.1922  -14.6073  -52.3268 H         1 UNK         0.0600 
    213 H213       -5.7119  -14.7139  -50.6428 H         1 UNK         0.0600 
    214 H214       -7.2511  -15.3965  -51.1696 H         1 UNK         0.0600 
    215 H215       -5.8345  -19.1652  -51.9719 H         1 UNK         0.3000 
    216 H216       -7.2340  -19.0764  -54.6117 H         1 UNK         0.0600 
    217 H217       -7.1713  -21.2641  -52.4680 H         1 UNK         0.0600 
    218 H218       -8.1093  -21.2803  -53.9562 H         1 UNK         0.0600 
    219 H219       -8.4867  -20.1138  -52.6977 H         1 UNK         0.0600 
    220 H220       -4.5274  -18.5615  -54.6181 H         1 UNK         0.3000 
    221 H221       -2.6775  -20.5918  -54.5958 H         1 UNK         0.0600 
    222 H222       -2.1672  -18.1425  -54.7344 H         1 UNK         0.0600 
    223 H223       -2.7068  -18.1180  -56.4085 H         1 UNK         0.0600 
    224 H224       -1.2828  -19.0449  -55.9561 H         1 UNK         0.0600 
    225 H225       -4.8364  -19.7804  -57.2894 H         1 UNK         0.3000 
    226 H226       -3.5940  -21.3121  -59.3305 H         1 UNK         0.0600 
    227 H227       -6.5241  -20.4806  -58.9692 H         1 UNK         0.0600 
    228 H228       -5.2699  -19.5374  -59.7759 H         1 UNK         0.0600 
    229 H229       -5.8074  -21.0588  -60.4686 H         1 UNK         0.0600 
    230 H230       -5.6192  -22.3139  -56.6432 H         1 UNK         0.3000 
    231 H231       -5.9438  -25.0710  -57.7598 H         1 UNK         0.0600 
    232 H232       -7.3607  -23.6604  -55.4357 H         1 UNK         0.0600 
    233 H233       -7.6456  -25.3151  -55.9636 H         1 UNK         0.0600 
    234 H234       -8.0468  -23.9760  -57.0281 H         1 UNK         0.0600 
    235 H235       -4.8459  -23.1842  -54.9042 H         1 UNK         0.3000 
    236 H236       -4.0471  -25.4520  -53.3809 H         1 UNK         0.0600 
    237 H237       -4.7297  -23.3045  -52.3618 H         1 UNK         0.0600 
    238 H238       -3.0957  -23.7238  -51.8602 H         1 UNK         0.0600 
    239 H239       -3.3473  -22.4858  -53.0849 H         1 UNK         0.0600 
    240 H240       -2.1760  -23.2223  -55.4770 H         1 UNK         0.3000 
    241 H241        0.3247  -24.7603  -54.9173 H         1 UNK         0.0600 
    242 H242       -0.9253  -24.2909  -58.8341 H         1 UNK         0.3800 
    243 H243       -1.6448  -23.2798  -57.5969 H         1 UNK         0.3800 
    244 H244        0.0981  -21.9095  -55.9733 H         1 UNK         0.0800 
    245 H245        1.5698  -22.7677  -55.5912 H         1 UNK         0.0800 
    246 H246        0.6817  -19.9122  -54.7244 H         1 UNK         0.0800 
    247 H247        2.2132  -20.4764  -54.1031 H         1 UNK         0.0800 
@<TRIPOS>BOND
     1    1    2 1    
     2    1  127 1    
     3    1  128 1    
     4    1  129 1    
     5    2    3 2    
     6    2    4 am   BACKBONE|DICT|INTERRES
     7    4    5 1    
     8    4  130 1    
     9    5    6 1    
    10    5   65 1    
    11    5  131 1    
    12    6    7 1    
    13    6  132 1    
    14    6  133 1    
    15    7    8 1    
    16    8    9 1    
    17    8  134 1    
    18    8  135 1    
    19    9   10 ar   
    20    9   14 ar   
    21   10   11 ar   
    22   10  136 1    
    23   11   12 ar   
    24   11  126 1    
    25   12   13 ar   
    26   12  137 1    
    27   13   14 ar   
    28   13   15 1    
    29   14  138 1    
    30   15   16 1    
    31   15  139 1    
    32   15  140 1    
    33   16   17 1    
    34   17   18 1    
    35   17  141 1    
    36   17  142 1    
    37   18   19 1    
    38   18   67 1    
    39   18  143 1    
    40   19   20 am   BACKBONE|DICT|INTERRES
    41   19  144 1    
    42   20   21 2    
    43   20   22 1    
    44   22   23 1    
    45   22   24 1    
    46   22  145 1    
    47   23  146 1    
    48   23  147 1    
    49   23  148 1    
    50   24   25 am   BACKBONE|DICT|INTERRES
    51   24  149 1    
    52   25   26 2    
    53   25   27 1    
    54   27   28 1    
    55   27   29 1    
    56   27  150 1    
    57   28  151 1    
    58   28  152 1    
    59   28  153 1    
    60   29   30 am   BACKBONE|DICT|INTERRES
    61   29  154 1    
    62   30   31 2    
    63   30   32 1    
    64   32   33 1    
    65   32   34 1    
    66   32  155 1    
    67   33  156 1    
    68   33  157 1    
    69   33  158 1    
    70   34   35 am   BACKBONE|DICT|INTERRES
    71   34  159 1    
    72   35   36 2    
    73   35   37 1    
    74   37   38 1    
    75   37   39 1    
    76   37  160 1    
    77   38  161 1    
    78   38  162 1    
    79   38  163 1    
    80   39   40 am   BACKBONE|DICT|INTERRES
    81   39  164 1    
    82   40   41 2    
    83   40   42 1    
    84   42   43 1    
    85   42   44 1    
    86   42  165 1    
    87   43  166 1    
    88   43  167 1    
    89   43  168 1    
    90   44   45 am   BACKBONE|DICT|INTERRES
    91   44  169 1    
    92   45   46 2    
    93   45   47 1    
    94   47   48 1    
    95   47   49 1    
    96   47  170 1    
    97   48  171 1    
    98   48  172 1    
    99   48  173 1    
   100   49   50 am   BACKBONE|DICT|INTERRES
   101   49  174 1    
   102   50   51 2    
   103   50   52 1    
   104   52   53 1    
   105   52   54 1    
   106   52  175 1    
   107   53  176 1    
   108   53  177 1    
   109   53  178 1    
   110   54   55 am   BACKBONE|DICT|INTERRES
   111   54  179 1    
   112   55   56 2    
   113   55   57 1    
   114   57   58 1    
   115   57   59 1    
   116   57  180 1    
   117   58  181 1    
   118   58  182 1    
   119   58  183 1    
   120   59   60 am   BACKBONE|DICT|INTERRES
   121   59  184 1    
   122   60   61 2    
   123   60   62 1    
   124   62   63 1    
   125   62   64 1    
   126   62  185 1    
   127   63  186 1    
   128   63  187 1    
   129   63  188 1    
   130   64   65 am   BACKBONE|DICT|INTERRES
   131   64  189 1    
   132   65   66 2    
   133   67   68 2    
   134   67   69 am   BACKBONE|DICT|INTERRES
   135   69   70 1    
   136   69  190 1    
   137   70   71 1    
   138   70   72 1    
   139   70  191 1    
   140   71  192 1    
   141   71  193 1    
   142   71  194 1    
   143   72   73 2    
   144   72   74 am   BACKBONE|DICT|INTERRES
   145   74   75 1    
   146   74  195 1    
   147   75   76 1    
   148   75   77 1    
   149   75  196 1    
   150   76  197 1    
   151   76  198 1    
   152   76  199 1    
   153   77   78 2    
   154   77   79 am   BACKBONE|DICT|INTERRES
   155   79   80 1    
   156   79  200 1    
   157   80   81 1    
   158   80   82 1    
   159   80  201 1    
   160   81  202 1    
   161   81  203 1    
   162   81  204 1    
   163   82   83 2    
   164   82   84 am   BACKBONE|DICT|INTERRES
   165   84   85 1    
   166   84  205 1    
   167   85   86 1    
   168   85   87 1    
   169   85  206 1    
   170   86  207 1    
   171   86  208 1    
   172   86  209 1    
   173   87   88 2    
   174   87   89 am   BACKBONE|DICT|INTERRES
   175   89   90 1    
   176   89  210 1    
   177   90   91 1    
   178   90   92 1    
   179   90  211 1    
   180   91  212 1    
   181   91  213 1    
   182   91  214 1    
   183   92   93 2    
   184   92   94 am   BACKBONE|DICT|INTERRES
   185   94   95 1    
   186   94  215 1    
   187   95   96 1    
   188   95   97 1    
   189   95  216 1    
   190   96  217 1    
   191   96  218 1    
   192   96  219 1    
   193   97   98 2    
   194   97   99 am   BACKBONE|DICT|INTERRES
   195   99  100 1    
   196   99  220 1    
   197  100  101 1    
   198  100  102 1    
   199  100  221 1    
   200  101  222 1    
   201  101  223 1    
   202  101  224 1    
   203  102  103 2    
   204  102  104 am   BACKBONE|DICT|INTERRES
   205  104  105 1    
   206  104  225 1    
   207  105  106 1    
   208  105  107 1    
   209  105  226 1    
   210  106  227 1    
   211  106  228 1    
   212  106  229 1    
   213  107  108 2    
   214  107  109 am   BACKBONE|DICT|INTERRES
   215  109  110 1    
   216  109  230 1    
   217  110  111 1    
   218  110  112 1    
   219  110  231 1    
   220  111  232 1    
   221  111  233 1    
   222  111  234 1    
   223  112  113 2    
   224  112  114 am   BACKBONE|DICT|INTERRES
   225  114  115 1    
   226  114  235 1    
   227  115  116 1    
   228  115  117 1    
   229  115  236 1    
   230  116  237 1    
   231  116  238 1    
   232  116  239 1    
   233  117  118 2    
   234  117  119 am   BACKBONE|DICT|INTERRES
   235  119  120 1    
   236  119  240 1    
   237  120  121 1    
   238  120  124 1    
   239  120  241 1    
   240  121  122 am   BACKBONE|DICT|INTERRES
   241  121  123 2    
   242  122  242 1    
   243  122  243 1    
   244  124  125 1    
   245  124  244 1    
   246  124  245 1    
   247  125  126 1    
   248  126  246 1    
   249  126  247 1    
@<TRIPOS>SUBSTRUCTURE
     1 UNK         1 GROUP             0       ****    0 ROOT    
