@<TRIPOS>MOLECULE
3R540
247   249    1
SMALL
USER_CHARGES


@<TRIPOS>ATOM
      1 CA          5.9819  -13.6880  -50.1280 C.3       0 UNK        -0.1800 
      2 C           5.0595  -13.7285  -48.9178 C.2       0 UNK         0.5000 
      3 O           5.4706  -14.1859  -47.8521 O.2       0 UNK        -0.5000 
      4 N           3.8156  -13.2597  -49.0841 N.am      1 UNK        -0.5000 
      5 CA          2.7970  -13.1793  -48.0333 C.3       1 UNK         0.1400 
      6 C6          1.3953  -12.9140  -48.6424 C.3       23 UNK        -0.0398 
      7 S7          0.0184  -12.8241  -47.4402 S.3       23 UNK        -0.2404 
      8 C8         -0.2919  -14.5742  -47.0423 C.3       23 UNK        -0.0205 
      9 C9         -0.6167  -15.4097  -48.2714 C.ar      23 UNK        -0.0193 
     10 C10        -1.8725  -15.3175  -48.8815 C.ar      23 UNK        -0.1150 
     11 C11        -2.1596  -16.0623  -50.0306 C.ar      23 UNK        -0.0193 
     12 C12        -1.1762  -16.8986  -50.5668 C.ar      23 UNK        -0.1150 
     13 C13         0.0698  -17.0208  -49.9491 C.ar      23 UNK        -0.0193 
     14 C14         0.3452  -16.2744  -48.8008 C.ar      23 UNK        -0.1150 
     15 C15         1.1093  -17.9733  -50.5168 C.3       23 UNK        -0.0205 
     16 S16         0.6740  -19.7087  -50.1854 S.3       23 UNK        -0.2404 
     17 C17         0.6265  -19.7153  -48.3629 C.3       23 UNK        -0.0398 
     18 CA          0.6461  -21.1417  -47.7676 C.3       11 UNK         0.1400 
     19 N           1.2081  -21.1441  -46.4143 N.am      11 UNK        -0.5000 
     20 C           1.6436  -22.2367  -45.7732 C.2       10 UNK         0.5000 
     21 O           1.5975  -23.3715  -46.2489 O.2       10 UNK        -0.5000 
     22 CA          2.2053  -22.0267  -44.3556 C.3       10 UNK         0.1400 
     23 CB          3.6255  -21.4433  -44.4102 C.3       10 UNK        -0.1800 
     24 N           1.3505  -21.1640  -43.5404 N.am      10 UNK        -0.5000 
     25 C           0.1238  -21.5027  -43.1191 C.2       9 UNK         0.5000 
     26 O          -0.3921  -22.6012  -43.3267 O.2       9 UNK        -0.5000 
     27 CA         -0.6744  -20.4286  -42.3581 C.3       9 UNK         0.1400 
     28 CB         -0.2868  -20.4205  -40.8718 C.3       9 UNK        -0.1800 
     29 N          -0.5172  -19.0829  -42.9128 N.am      9 UNK        -0.5000 
     30 C          -0.8787  -18.7184  -44.1516 C.2       8 UNK         0.5000 
     31 O          -1.3750  -19.4847  -44.9737 O.2       8 UNK        -0.5000 
     32 CA         -0.5820  -17.2672  -44.5652 C.3       8 UNK         0.1400 
     33 CB         -1.5529  -16.2908  -43.8822 C.3       8 UNK        -0.1800 
     34 N           0.7979  -16.8824  -44.2745 N.am      8 UNK        -0.5000 
     35 C           1.8806  -17.4935  -44.7783 C.2       7 UNK         0.5000 
     36 O           1.8363  -18.4190  -45.5879 O.2       7 UNK        -0.5000 
     37 CA          3.2421  -17.0278  -44.2426 C.3       7 UNK         0.1400 
     38 CB          3.6877  -15.7386  -44.9453 C.3       7 UNK        -0.1800 
     39 N           3.2093  -16.8246  -42.7943 N.am      7 UNK        -0.5000 
     40 C           3.0682  -17.8135  -41.8990 C.2       6 UNK         0.5000 
     41 O           2.9920  -19.0051  -42.1990 O.2       6 UNK        -0.5000 
     42 CA          2.9470  -17.3924  -40.4238 C.3       6 UNK         0.1400 
     43 CB          4.3322  -17.1153  -39.8207 C.3       6 UNK        -0.1800 
     44 N           2.0946  -16.2157  -40.2485 N.am      6 UNK        -0.5000 
     45 C           0.7759  -16.1954  -40.4895 C.2       5 UNK         0.5000 
     46 O           0.1331  -17.1787  -40.8534 O.2       5 UNK        -0.5000 
     47 CA          0.0625  -14.8401  -40.3377 C.3       5 UNK         0.1400 
     48 CB         -0.4098  -14.6380  -38.8904 C.3       5 UNK        -0.1800 
     49 N           0.8927  -13.7030  -40.7422 N.am      5 UNK        -0.5000 
     50 C           1.3289  -13.4880  -41.9898 C.2       4 UNK         0.5000 
     51 O           1.1037  -14.2472  -42.9357 O.2       4 UNK        -0.5000 
     52 CA          2.2014  -12.2419  -42.1999 C.3       4 UNK         0.1400 
     53 CB          3.6756  -12.6347  -42.3804 C.3       4 UNK        -0.1800 
     54 N           1.7535  -11.4925  -43.3695 N.am      4 UNK        -0.5000 
     55 C           0.7460  -10.6071  -43.3603 C.2       3 UNK         0.5000 
     56 O           0.0929  -10.3463  -42.3478 O.2       3 UNK        -0.5000 
     57 CA          0.4055   -9.8909  -44.6899 C.3       3 UNK         0.1400 
     58 CB         -0.1433   -8.4647  -44.4759 C.3       3 UNK        -0.1800 
     59 N           1.5065   -9.8859  -45.6596 N.am      3 UNK        -0.5000 
     60 C           2.7296   -9.3490  -45.5199 C.2       2 UNK         0.5000 
     61 O           3.0542   -8.6250  -44.5775 O.2       2 UNK        -0.5000 
     62 CA          3.7759   -9.7095  -46.6047 C.3       2 UNK         0.1400 
     63 CB          5.1905   -9.8689  -46.0098 C.3       2 UNK        -0.1800 
     64 N           3.4369  -10.8925  -47.4141 N.am      2 UNK        -0.5000 
     65 C           3.1808  -12.1335  -46.9668 C.2       1 UNK         0.5000 
     66 O           3.2035  -12.4523  -45.7784 O.2       1 UNK        -0.5000 
     67 C          -0.7426  -21.8174  -47.8393 C.2       11 UNK         0.5000 
     68 O          -1.0800  -22.3922  -48.8728 O.2       11 UNK        -0.5000 
     69 N          -1.5062  -21.7763  -46.7368 N.am      12 UNK        -0.5000 
     70 CA         -2.8363  -22.3741  -46.5859 C.3       12 UNK         0.1400 
     71 CB         -3.4994  -21.8284  -45.3108 C.3       12 UNK        -0.1800 
     72 C          -2.8754  -23.9172  -46.5970 C.2       12 UNK         0.5000 
     73 O          -3.9737  -24.4766  -46.5676 O.2       12 UNK        -0.5000 
     74 N          -1.7149  -24.5861  -46.6553 N.am      13 UNK        -0.5000 
     75 CA         -1.5739  -26.0391  -46.7781 C.3       13 UNK         0.1400 
     76 CB         -0.0835  -26.3859  -46.9033 C.3       13 UNK        -0.1800 
     77 C          -2.3650  -26.6231  -47.9680 C.2       13 UNK         0.5000 
     78 O          -2.3778  -26.0292  -49.0496 O.2       13 UNK        -0.5000 
     79 N          -3.0293  -27.7635  -47.7296 N.am      14 UNK        -0.5000 
     80 CA         -3.9208  -28.4702  -48.6597 C.3       14 UNK         0.1400 
     81 CB         -3.1140  -29.0866  -49.8222 C.3       14 UNK        -0.1800 
     82 C          -5.1004  -27.5951  -49.1405 C.2       14 UNK         0.5000 
     83 O          -5.4474  -27.6219  -50.3222 O.2       14 UNK        -0.5000 
     84 N          -5.6678  -26.8058  -48.2138 N.am      15 UNK        -0.5000 
     85 CA         -6.7249  -25.8091  -48.4297 C.3       15 UNK         0.1400 
     86 CB         -8.0563  -26.4932  -48.8058 C.3       15 UNK        -0.1800 
     87 C          -6.2929  -24.7297  -49.4429 C.2       15 UNK         0.5000 
     88 O          -7.0074  -24.4572  -50.4076 O.2       15 UNK        -0.5000 
     89 N          -5.0915  -24.1801  -49.2207 N.am      16 UNK        -0.5000 
     90 CA         -4.3636  -23.2475  -50.0874 C.3       16 UNK         0.1400 
     91 CB         -5.0518  -21.8661  -50.1031 C.3       16 UNK        -0.1800 
     92 C          -4.1234  -23.8298  -51.4939 C.2       16 UNK         0.5000 
     93 O          -4.3899  -23.1614  -52.4936 O.2       16 UNK        -0.5000 
     94 N          -3.6631  -25.0895  -51.5334 N.am      17 UNK        -0.5000 
     95 CA         -3.4801  -25.9271  -52.7238 C.3       17 UNK         0.1400 
     96 CB         -2.2870  -25.4161  -53.5580 C.3       17 UNK        -0.1800 
     97 C          -4.7787  -26.0574  -53.5495 C.2       17 UNK         0.5000 
     98 O          -4.7755  -25.7974  -54.7526 O.2       17 UNK        -0.5000 
     99 N          -5.8810  -26.4042  -52.8687 N.am      18 UNK        -0.5000 
    100 CA        -7.2589  -26.4302  -53.3764 C.3       18 UNK         0.1400 
    101 CB        -7.4495  -27.5911  -54.3740 C.3       18 UNK        -0.1800 
    102 C         -7.6973  -25.0603  -53.9432 C.2       18 UNK         0.5000 
    103 O         -8.2302  -24.9795  -55.0512 O.2       18 UNK        -0.5000 
    104 N         -7.4151  -24.0064  -53.1659 N.am      19 UNK        -0.5000 
    105 CA        -7.6236  -22.5783  -53.4247 C.3       19 UNK         0.1400 
    106 CB        -9.1219  -22.2673  -53.6161 C.3       19 UNK        -0.1800 
    107 C         -6.7603  -21.9723  -54.5537 C.2       19 UNK         0.5000 
    108 O         -6.9064  -20.7811  -54.8332 O.2       19 UNK        -0.5000 
    109 N         -5.8704  -22.7579  -55.1771 N.am      20 UNK        -0.5000 
    110 CA        -5.0302  -22.3193  -56.2916 C.3       20 UNK         0.1400 
    111 CB        -4.4559  -23.5413  -57.0221 C.3       20 UNK        -0.1800 
    112 C         -3.8947  -21.3697  -55.8719 C.2       20 UNK         0.5000 
    113 O         -3.5098  -20.5156  -56.6721 O.2       20 UNK        -0.5000 
    114 N         -3.3829  -21.5076  -54.6385 N.am      21 UNK        -0.5000 
    115 CA        -2.2516  -20.7230  -54.1276 C.3       21 UNK         0.1400 
    116 CB        -1.7511  -21.3265  -52.8076 C.3       21 UNK        -0.1800 
    117 C         -2.5666  -19.2250  -53.9520 C.2       21 UNK         0.5000 
    118 O         -1.6510  -18.4044  -54.0233 O.2       21 UNK        -0.5000 
    119 N         -3.8505  -18.9020  -53.7593 N.am      22 UNK        -0.5000 
    120 CA        -4.3847  -17.5326  -53.7067 C.3       22 UNK         0.1400 
    121 C         -5.1116  -17.1162  -55.0204 C.2       22 UNK         0.5000 
    122 N         -5.0109  -17.8670  -56.1120 N.am      22 UNK        -0.7600 
    123 O         -5.7640  -16.0767  -55.0638 O.2       22 UNK        -0.5000 
    124 C124       -5.2649  -17.3031  -52.4474 C.3       23 UNK        -0.0398 
    125 S125       -4.3423  -17.5592  -50.8922 S.3       23 UNK        -0.2404 
    126 C126       -3.5123  -15.9425  -50.7195 C.3       23 UNK        -0.0205 
    127 H127        5.4857  -13.2686  -51.0036 H         1 UNK         0.0600 
    128 H128        6.3178  -14.6945  -50.3775 H         1 UNK         0.0600 
    129 H129        6.8592  -13.0788  -49.9102 H         1 UNK         0.0600 
    130 H130        3.5456  -12.9071  -49.9913 H         1 UNK         0.3000 
    131 H131        2.7620  -14.1511  -47.5369 H         1 UNK         0.0600 
    132 H132        1.3997  -11.9720  -49.1930 H         1 UNK         0.0800 
    133 H133        1.1651  -13.6732  -49.3895 H         1 UNK         0.0800 
    134 H134        0.5701  -14.9795  -46.5105 H         1 UNK         0.0800 
    135 H135       -1.1310  -14.6237  -46.3490 H         1 UNK         0.0800 
    136 H136       -2.6177  -14.6519  -48.4689 H         1 UNK         0.1150 
    137 H137       -1.3888  -17.4746  -51.4569 H         1 UNK         0.1150 
    138 H138        1.3104  -16.3629  -48.3220 H         1 UNK         0.1150 
    139 H139        1.1851  -17.8262  -51.5952 H         1 UNK         0.0800 
    140 H140        2.0979  -17.7615  -50.1065 H         1 UNK         0.0800 
    141 H141       -0.2344  -19.1461  -48.0062 H         1 UNK         0.0800 
    142 H142        1.5092  -19.1671  -48.0328 H         1 UNK         0.0800 
    143 H143        1.3210  -21.7469  -48.3772 H         1 UNK         0.0600 
    144 H144        1.3030  -20.2372  -45.9641 H         1 UNK         0.3000 
    145 H145        2.2606  -23.0039  -43.8712 H         1 UNK         0.0600 
    146 H146        4.2842  -22.0726  -45.0098 H         1 UNK         0.0600 
    147 H147        3.6358  -20.4445  -44.8477 H         1 UNK         0.0600 
    148 H148        4.0604  -21.3743  -43.4130 H         1 UNK         0.0600 
    149 H149        1.7265  -20.2574  -43.2840 H         1 UNK         0.3000 
    150 H150       -1.7315  -20.6919  -42.4313 H         1 UNK         0.0600 
    151 H151       -0.3999  -21.4118  -40.4314 H         1 UNK         0.0600 
    152 H152       -0.9198  -19.7386  -40.3038 H         1 UNK         0.0600 
    153 H153        0.7495  -20.1120  -40.7290 H         1 UNK         0.0600 
    154 H154       -0.1382  -18.3787  -42.2844 H         1 UNK         0.3000 
    155 H155       -0.7230  -17.1921  -45.6453 H         1 UNK         0.0600 
    156 H156       -2.5773  -16.4736  -44.2084 H         1 UNK         0.0600 
    157 H157       -1.3135  -15.2545  -44.1179 H         1 UNK         0.0600 
    158 H158       -1.5344  -16.3916  -42.7976 H         1 UNK         0.0600 
    159 H159        0.9299  -16.0975  -43.6436 H         1 UNK         0.3000 
    160 H160        3.9762  -17.8064  -44.4607 H         1 UNK         0.0600 
    161 H161        2.9662  -14.9341  -44.8037 H         1 UNK         0.0600 
    162 H162        3.7908  -15.8975  -46.0193 H         1 UNK         0.0600 
    163 H163        4.6535  -15.3947  -44.5753 H         1 UNK         0.0600 
    164 H164        3.2151  -15.8702  -42.4683 H         1 UNK         0.3000 
    165 H165        2.4962  -18.2232  -39.8765 H         1 UNK         0.0600 
    166 H166        4.2607  -16.8925  -38.7559 H         1 UNK         0.0600 
    167 H167        4.9840  -17.9836  -39.9267 H         1 UNK         0.0600 
    168 H168        4.8251  -16.2731  -40.3079 H         1 UNK         0.0600 
    169 H169        2.5433  -15.3633  -39.9481 H         1 UNK         0.3000 
    170 H170       -0.8179  -14.8566  -40.9832 H         1 UNK         0.0600 
    171 H171       -1.0485  -15.4624  -38.5700 H         1 UNK         0.0600 
    172 H172        0.4291  -14.5835  -38.1955 H         1 UNK         0.0600 
    173 H173       -0.9907  -13.7211  -38.7893 H         1 UNK         0.0600 
    174 H174        1.1210  -13.0344  -40.0205 H         1 UNK         0.3000 
    175 H175        2.1321  -11.6005  -41.3186 H         1 UNK         0.0600 
    176 H176        4.3031  -11.7529  -42.5115 H         1 UNK         0.0600 
    177 H177        4.0480  -13.1735  -41.5084 H         1 UNK         0.0600 
    178 H178        3.8208  -13.2755  -43.2497 H         1 UNK         0.0600 
    179 H179        2.2151  -11.7166  -44.2465 H         1 UNK         0.3000 
    180 H180       -0.3900  -10.4814  -45.1464 H         1 UNK         0.0600 
    181 H181        0.5690   -7.8309  -43.9472 H         1 UNK         0.0600 
    182 H182       -1.0618   -8.4823  -43.8883 H         1 UNK         0.0600 
    183 H183       -0.3784   -7.9858  -45.4264 H         1 UNK         0.0600 
    184 H184        1.3566  -10.4665  -46.4721 H         1 UNK         0.3000 
    185 H185        3.7984   -8.8636  -47.2931 H         1 UNK         0.0600 
    186 H186        5.5240   -8.9469  -45.5322 H         1 UNK         0.0600 
    187 H187        5.2248  -10.6579  -45.2576 H         1 UNK         0.0600 
    188 H188        5.9185  -10.1124  -46.7836 H         1 UNK         0.0600 
    189 H189        3.3932  -10.7312  -48.4105 H         1 UNK         0.3000 
    190 H190       -1.1833  -21.2175  -45.9530 H         1 UNK         0.3000 
    191 H191       -3.4377  -22.0438  -47.4334 H         1 UNK         0.0600 
    192 H192       -3.6404  -20.7497  -45.3716 H         1 UNK         0.0600 
    193 H193       -4.4863  -22.2661  -45.1551 H         1 UNK         0.0600 
    194 H194       -2.9017  -22.0427  -44.4247 H         1 UNK         0.0600 
    195 H195       -0.8599  -24.0490  -46.6911 H         1 UNK         0.3000 
    196 H196       -1.9552  -26.4785  -45.8544 H         1 UNK         0.0600 
    197 H197        0.0641  -27.4635  -46.9846 H         1 UNK         0.0600 
    198 H198        0.4755  -26.0459  -46.0312 H         1 UNK         0.0600 
    199 H199        0.3614  -25.9244  -47.7861 H         1 UNK         0.0600 
    200 H200       -2.9588  -28.1729  -46.8080 H         1 UNK         0.3000 
    201 H201       -4.3668  -29.2924  -48.0984 H         1 UNK         0.0600 
    202 H202       -2.3202  -29.7336  -49.4491 H         1 UNK         0.0600 
    203 H203       -2.6541  -28.3228  -50.4489 H         1 UNK         0.0600 
    204 H204       -3.7522  -29.6957  -50.4635 H         1 UNK         0.0600 
    205 H205       -5.2771  -26.8237  -47.2818 H         1 UNK         0.3000 
    206 H206       -6.8717  -25.2973  -47.4774 H         1 UNK         0.0600 
    207 H207       -8.3419  -27.2354  -48.0606 H         1 UNK         0.0600 
    208 H208       -8.8650  -25.7638  -48.8640 H         1 UNK         0.0600 
    209 H209       -8.0000  -26.9937  -49.7728 H         1 UNK         0.0600 
    210 H210       -4.5945  -24.4840  -48.3886 H         1 UNK         0.3000 
    211 H211       -3.3770  -23.1235  -49.6468 H         1 UNK         0.0600 
    212 H212       -6.0476  -21.9138  -50.5416 H         1 UNK         0.0600 
    213 H213       -4.4748  -21.1433  -50.6804 H         1 UNK         0.0600 
    214 H214       -5.1537  -21.4648  -49.0953 H         1 UNK         0.0600 
    215 H215       -3.4309  -25.5312  -50.6480 H         1 UNK         0.3000 
    216 H216       -3.2359  -26.9283  -52.3677 H         1 UNK         0.0600 
    217 H217       -2.0680  -26.0966  -54.3814 H         1 UNK         0.0600 
    218 H218       -1.3854  -25.3394  -52.9504 H         1 UNK         0.0600 
    219 H219       -2.4845  -24.4349  -53.9905 H         1 UNK         0.0600 
    220 H220       -5.7734  -26.6403  -51.8842 H         1 UNK         0.3000 
    221 H221       -7.8986  -26.6252  -52.5144 H         1 UNK         0.0600 
    222 H222       -6.8639  -27.4469  -55.2825 H         1 UNK         0.0600 
    223 H223       -7.1531  -28.5421  -53.9315 H         1 UNK         0.0600 
    224 H224       -8.4950  -27.6827  -54.6701 H         1 UNK         0.0600 
    225 H225       -7.0110  -24.2054  -52.2526 H         1 UNK         0.3000 
    226 H226       -7.3038  -22.0729  -52.5137 H         1 UNK         0.0600 
    227 H227       -9.7158  -22.6684  -52.7948 H         1 UNK         0.0600 
    228 H228       -9.2980  -21.1914  -53.6457 H         1 UNK         0.0600 
    229 H229       -9.5078  -22.6844  -54.5464 H         1 UNK         0.0600 
    230 H230       -5.7608  -23.7165  -54.8700 H         1 UNK         0.3000 
    231 H231       -5.6667  -21.7805  -56.9968 H         1 UNK         0.0600 
    232 H232       -3.7273  -24.0707  -56.4076 H         1 UNK         0.0600 
    233 H233       -3.9483  -23.2412  -57.9396 H         1 UNK         0.0600 
    234 H234       -5.2408  -24.2458  -57.2984 H         1 UNK         0.0600 
    235 H235       -3.7848  -22.1966  -54.0055 H         1 UNK         0.3000 
    236 H236       -1.4432  -20.8017  -54.8573 H         1 UNK         0.0600 
    237 H237       -1.5274  -22.3880  -52.9109 H         1 UNK         0.0600 
    238 H238       -0.8346  -20.8336  -52.4842 H         1 UNK         0.0600 
    239 H239       -2.4814  -21.2100  -52.0073 H         1 UNK         0.0600 
    240 H240       -4.5342  -19.6452  -53.7441 H         1 UNK         0.3000 
    241 H241       -3.5512  -16.8325  -53.6389 H         1 UNK         0.0600 
    242 H242       -5.4848  -17.5761  -56.9523 H         1 UNK         0.3800 
    243 H243       -4.4528  -18.7115  -56.1221 H         1 UNK         0.3800 
    244 H244       -5.6799  -16.2938  -52.4348 H         1 UNK         0.0800 
    245 H245       -6.1190  -17.9820  -52.4568 H         1 UNK         0.0800 
    246 H246       -4.1716  -15.2658  -50.1740 H         1 UNK         0.0800 
    247 H247       -3.3520  -15.4927  -51.6996 H         1 UNK         0.0800 
@<TRIPOS>BOND
     1    1    2 1    
     2    1  127 1    
     3    1  128 1    
     4    1  129 1    
     5    2    3 2    
     6    2    4 am   BACKBONE|DICT|INTERRES
     7    4    5 1    
     8    4  130 1    
     9    5    6 1    
    10    5   65 1    
    11    5  131 1    
    12    6    7 1    
    13    6  132 1    
    14    6  133 1    
    15    7    8 1    
    16    8    9 1    
    17    8  134 1    
    18    8  135 1    
    19    9   10 ar   
    20    9   14 ar   
    21   10   11 ar   
    22   10  136 1    
    23   11   12 ar   
    24   11  126 1    
    25   12   13 ar   
    26   12  137 1    
    27   13   14 ar   
    28   13   15 1    
    29   14  138 1    
    30   15   16 1    
    31   15  139 1    
    32   15  140 1    
    33   16   17 1    
    34   17   18 1    
    35   17  141 1    
    36   17  142 1    
    37   18   19 1    
    38   18   67 1    
    39   18  143 1    
    40   19   20 am   BACKBONE|DICT|INTERRES
    41   19  144 1    
    42   20   21 2    
    43   20   22 1    
    44   22   23 1    
    45   22   24 1    
    46   22  145 1    
    47   23  146 1    
    48   23  147 1    
    49   23  148 1    
    50   24   25 am   BACKBONE|DICT|INTERRES
    51   24  149 1    
    52   25   26 2    
    53   25   27 1    
    54   27   28 1    
    55   27   29 1    
    56   27  150 1    
    57   28  151 1    
    58   28  152 1    
    59   28  153 1    
    60   29   30 am   BACKBONE|DICT|INTERRES
    61   29  154 1    
    62   30   31 2    
    63   30   32 1    
    64   32   33 1    
    65   32   34 1    
    66   32  155 1    
    67   33  156 1    
    68   33  157 1    
    69   33  158 1    
    70   34   35 am   BACKBONE|DICT|INTERRES
    71   34  159 1    
    72   35   36 2    
    73   35   37 1    
    74   37   38 1    
    75   37   39 1    
    76   37  160 1    
    77   38  161 1    
    78   38  162 1    
    79   38  163 1    
    80   39   40 am   BACKBONE|DICT|INTERRES
    81   39  164 1    
    82   40   41 2    
    83   40   42 1    
    84   42   43 1    
    85   42   44 1    
    86   42  165 1    
    87   43  166 1    
    88   43  167 1    
    89   43  168 1    
    90   44   45 am   BACKBONE|DICT|INTERRES
    91   44  169 1    
    92   45   46 2    
    93   45   47 1    
    94   47   48 1    
    95   47   49 1    
    96   47  170 1    
    97   48  171 1    
    98   48  172 1    
    99   48  173 1    
   100   49   50 am   BACKBONE|DICT|INTERRES
   101   49  174 1    
   102   50   51 2    
   103   50   52 1    
   104   52   53 1    
   105   52   54 1    
   106   52  175 1    
   107   53  176 1    
   108   53  177 1    
   109   53  178 1    
   110   54   55 am   BACKBONE|DICT|INTERRES
   111   54  179 1    
   112   55   56 2    
   113   55   57 1    
   114   57   58 1    
   115   57   59 1    
   116   57  180 1    
   117   58  181 1    
   118   58  182 1    
   119   58  183 1    
   120   59   60 am   BACKBONE|DICT|INTERRES
   121   59  184 1    
   122   60   61 2    
   123   60   62 1    
   124   62   63 1    
   125   62   64 1    
   126   62  185 1    
   127   63  186 1    
   128   63  187 1    
   129   63  188 1    
   130   64   65 am   BACKBONE|DICT|INTERRES
   131   64  189 1    
   132   65   66 2    
   133   67   68 2    
   134   67   69 am   BACKBONE|DICT|INTERRES
   135   69   70 1    
   136   69  190 1    
   137   70   71 1    
   138   70   72 1    
   139   70  191 1    
   140   71  192 1    
   141   71  193 1    
   142   71  194 1    
   143   72   73 2    
   144   72   74 am   BACKBONE|DICT|INTERRES
   145   74   75 1    
   146   74  195 1    
   147   75   76 1    
   148   75   77 1    
   149   75  196 1    
   150   76  197 1    
   151   76  198 1    
   152   76  199 1    
   153   77   78 2    
   154   77   79 am   BACKBONE|DICT|INTERRES
   155   79   80 1    
   156   79  200 1    
   157   80   81 1    
   158   80   82 1    
   159   80  201 1    
   160   81  202 1    
   161   81  203 1    
   162   81  204 1    
   163   82   83 2    
   164   82   84 am   BACKBONE|DICT|INTERRES
   165   84   85 1    
   166   84  205 1    
   167   85   86 1    
   168   85   87 1    
   169   85  206 1    
   170   86  207 1    
   171   86  208 1    
   172   86  209 1    
   173   87   88 2    
   174   87   89 am   BACKBONE|DICT|INTERRES
   175   89   90 1    
   176   89  210 1    
   177   90   91 1    
   178   90   92 1    
   179   90  211 1    
   180   91  212 1    
   181   91  213 1    
   182   91  214 1    
   183   92   93 2    
   184   92   94 am   BACKBONE|DICT|INTERRES
   185   94   95 1    
   186   94  215 1    
   187   95   96 1    
   188   95   97 1    
   189   95  216 1    
   190   96  217 1    
   191   96  218 1    
   192   96  219 1    
   193   97   98 2    
   194   97   99 am   BACKBONE|DICT|INTERRES
   195   99  100 1    
   196   99  220 1    
   197  100  101 1    
   198  100  102 1    
   199  100  221 1    
   200  101  222 1    
   201  101  223 1    
   202  101  224 1    
   203  102  103 2    
   204  102  104 am   BACKBONE|DICT|INTERRES
   205  104  105 1    
   206  104  225 1    
   207  105  106 1    
   208  105  107 1    
   209  105  226 1    
   210  106  227 1    
   211  106  228 1    
   212  106  229 1    
   213  107  108 2    
   214  107  109 am   BACKBONE|DICT|INTERRES
   215  109  110 1    
   216  109  230 1    
   217  110  111 1    
   218  110  112 1    
   219  110  231 1    
   220  111  232 1    
   221  111  233 1    
   222  111  234 1    
   223  112  113 2    
   224  112  114 am   BACKBONE|DICT|INTERRES
   225  114  115 1    
   226  114  235 1    
   227  115  116 1    
   228  115  117 1    
   229  115  236 1    
   230  116  237 1    
   231  116  238 1    
   232  116  239 1    
   233  117  118 2    
   234  117  119 am   BACKBONE|DICT|INTERRES
   235  119  120 1    
   236  119  240 1    
   237  120  121 1    
   238  120  124 1    
   239  120  241 1    
   240  121  122 am   BACKBONE|DICT|INTERRES
   241  121  123 2    
   242  122  242 1    
   243  122  243 1    
   244  124  125 1    
   245  124  244 1    
   246  124  245 1    
   247  125  126 1    
   248  126  246 1    
   249  126  247 1    
@<TRIPOS>SUBSTRUCTURE
     1 UNK         1 GROUP             0       ****    0 ROOT    
