@<TRIPOS>MOLECULE
3R540
247   249    1
SMALL
USER_CHARGES


@<TRIPOS>ATOM
      1 CA         -1.1948  -16.5151  -47.9490 C.3       0 UNK        -0.1800 
      2 C          -0.3506  -15.2984  -48.3007 C.2       0 UNK         0.5000 
      3 O          -0.8860  -14.1931  -48.3675 O.2       0 UNK        -0.5000 
      4 N           0.9604  -15.5001  -48.5060 N.am      1 UNK        -0.5000 
      5 CA          1.9287  -14.5256  -49.0381 C.3       1 UNK         0.1400 
      6 C6          3.3673  -15.1155  -49.0955 C.3       23 UNK        -0.0398 
      7 S7          4.1952  -14.7225  -50.6747 S.3       23 UNK        -0.2404 
      8 C8          4.6032  -16.3750  -51.3344 C.3       23 UNK        -0.0205 
      9 C9          3.4097  -17.3220  -51.3840 C.ar      23 UNK        -0.0193 
     10 C10         2.2488  -16.9721  -52.0793 C.ar      23 UNK        -0.1150 
     11 C11         1.1530  -17.8391  -52.1152 C.ar      23 UNK        -0.0193 
     12 C12         1.2281  -19.0704  -51.4557 C.ar      23 UNK        -0.1150 
     13 C13         2.3849  -19.4346  -50.7602 C.ar      23 UNK        -0.0193 
     14 C14         3.4715  -18.5564  -50.7309 C.ar      23 UNK        -0.1150 
     15 C15         2.4791  -20.7813  -50.0557 C.3       23 UNK        -0.0205 
     16 S16         2.3956  -20.6133  -48.2437 S.3       23 UNK        -0.2404 
     17 C17         0.6181  -20.3135  -47.9800 C.3       23 UNK        -0.0398 
     18 CA         -0.0724  -21.5025  -47.2710 C.3       11 UNK         0.1400 
     19 N           0.2785  -21.6054  -45.8504 N.am      11 UNK        -0.5000 
     20 C          -0.0864  -22.6166  -45.0478 C.2       10 UNK         0.5000 
     21 O          -0.6962  -23.6123  -45.4393 O.2       10 UNK        -0.5000 
     22 CA          0.2276  -22.4672  -43.5470 C.3       10 UNK         0.1400 
     23 CB          1.6946  -22.8101  -43.2486 C.3       10 UNK        -0.1800 
     24 N          -0.0881  -21.1308  -43.0380 N.am      10 UNK        -0.5000 
     25 C          -1.3248  -20.6129  -42.9935 C.2       9 UNK         0.5000 
     26 O          -2.3355  -21.2330  -43.3217 O.2       9 UNK        -0.5000 
     27 CA         -1.4547  -19.1400  -42.5641 C.3       9 UNK         0.1400 
     28 CB         -1.4381  -19.0067  -41.0344 C.3       9 UNK        -0.1800 
     29 N          -0.4135  -18.2932  -43.1428 N.am      9 UNK        -0.5000 
     30 C          -0.2384  -18.0863  -44.4542 C.2       8 UNK         0.5000 
     31 O          -0.9734  -18.5468  -45.3250 O.2       8 UNK        -0.5000 
     32 CA          1.0064  -17.2857  -44.8690 C.3       8 UNK         0.1400 
     33 CB          0.7710  -15.7779  -44.7234 C.3       8 UNK        -0.1800 
     34 N           2.1902  -17.6771  -44.1073 N.am      8 UNK        -0.5000 
     35 C           2.7778  -18.8787  -44.1922 C.2       7 UNK         0.5000 
     36 O           2.3980  -19.7712  -44.9478 O.2       7 UNK        -0.5000 
     37 CA          3.9558  -19.1371  -43.2364 C.3       7 UNK         0.1400 
     38 CB          5.2584  -18.5677  -43.8177 C.3       7 UNK        -0.1800 
     39 N           3.7243  -18.5667  -41.9083 N.am      7 UNK        -0.5000 
     40 C           2.7925  -19.0073  -41.0506 C.2       6 UNK         0.5000 
     41 O           2.0686  -19.9791  -41.2681 O.2       6 UNK        -0.5000 
     42 CA          2.6034  -18.1854  -39.7605 C.3       6 UNK         0.1400 
     43 CB          3.6190  -18.6131  -38.6906 C.3       6 UNK        -0.1800 
     44 N           2.7035  -16.7373  -39.9805 N.am      6 UNK        -0.5000 
     45 C           1.8696  -16.0367  -40.7605 C.2       5 UNK         0.5000 
     46 O           0.9393  -16.5490  -41.3837 O.2       5 UNK        -0.5000 
     47 CA          2.1666  -14.5337  -40.9245 C.3       5 UNK         0.1400 
     48 CB          3.2851  -14.3265  -41.9574 C.3       5 UNK        -0.1800 
     49 N           0.9889  -13.7700  -41.3476 N.am      5 UNK        -0.5000 
     50 C          -0.0971  -13.5639  -40.5904 C.2       4 UNK         0.5000 
     51 O          -0.2048  -13.9726  -39.4328 O.2       4 UNK        -0.5000 
     52 CA         -1.2471  -12.7394  -41.1984 C.3       4 UNK         0.1400 
     53 CB         -1.2870  -11.3395  -40.5641 C.3       4 UNK        -0.1800 
     54 N          -1.1616  -12.5794  -42.6519 N.am      4 UNK        -0.5000 
     55 C          -1.7779  -13.3525  -43.5521 C.2       3 UNK         0.5000 
     56 O          -2.3758  -14.3891  -43.2642 O.2       3 UNK        -0.5000 
     57 CA         -1.7605  -12.8730  -45.0201 C.3       3 UNK         0.1400 
     58 CB         -2.5892  -11.5856  -45.1934 C.3       3 UNK        -0.1800 
     59 N          -0.4305  -12.7255  -45.6248 N.am      3 UNK        -0.5000 
     60 C           0.5847  -11.9235  -45.2687 C.2       2 UNK         0.5000 
     61 O           0.5379  -11.1411  -44.3184 O.2       2 UNK        -0.5000 
     62 CA          1.8778  -12.0191  -46.1036 C.3       2 UNK         0.1400 
     63 CB          3.1258  -12.0844  -45.2065 C.3       2 UNK        -0.1800 
     64 N           1.8785  -13.1905  -46.9852 N.am      2 UNK        -0.5000 
     65 C           1.9384  -13.1556  -48.3218 C.2       1 UNK         0.5000 
     66 O           1.9934  -12.1181  -48.9836 O.2       1 UNK        -0.5000 
     67 C          -1.5979  -21.4448  -47.4766 C.2       11 UNK         0.5000 
     68 O          -2.1117  -22.1807  -48.3164 O.2       11 UNK        -0.5000 
     69 N          -2.2997  -20.6120  -46.6961 N.am      12 UNK        -0.5000 
     70 CA         -3.7568  -20.4761  -46.7275 C.3       12 UNK         0.1400 
     71 CB         -4.1895  -19.3101  -45.8274 C.3       12 UNK        -0.1800 
     72 C          -4.4916  -21.7743  -46.3450 C.2       12 UNK         0.5000 
     73 O          -5.4588  -22.1354  -47.0147 O.2       12 UNK        -0.5000 
     74 N          -3.9921  -22.4840  -45.3226 N.am      13 UNK        -0.5000 
     75 CA         -4.4902  -23.7944  -44.8916 C.3       13 UNK         0.1400 
     76 CB         -3.8063  -24.1971  -43.5767 C.3       13 UNK        -0.1800 
     77 C          -4.3085  -24.8929  -45.9582 C.2       13 UNK         0.5000 
     78 O          -5.1719  -25.7603  -46.0917 O.2       13 UNK        -0.5000 
     79 N          -3.2144  -24.8092  -46.7266 N.am      14 UNK        -0.5000 
     80 CA         -2.9280  -25.6558  -47.8876 C.3       14 UNK         0.1400 
     81 CB         -1.4052  -25.6903  -48.1006 C.3       14 UNK        -0.1800 
     82 C          -3.6428  -25.1880  -49.1746 C.2       14 UNK         0.5000 
     83 O          -3.4397  -25.7935  -50.2291 O.2       14 UNK        -0.5000 
     84 N          -4.4168  -24.0944  -49.0931 N.am      15 UNK        -0.5000 
     85 CA         -5.1066  -23.4013  -50.1849 C.3       15 UNK         0.1400 
     86 CB         -6.2632  -24.2614  -50.7333 C.3       15 UNK        -0.1800 
     87 C          -4.1493  -22.9188  -51.2931 C.2       15 UNK         0.5000 
     88 O          -4.5390  -22.8810  -52.4600 O.2       15 UNK        -0.5000 
     89 N          -2.9152  -22.5604  -50.9121 N.am      16 UNK        -0.5000 
     90 CA         -1.7787  -22.2101  -51.7695 C.3       16 UNK         0.1400 
     91 CB         -2.0349  -20.8802  -52.5035 C.3       16 UNK        -0.1800 
     92 C          -1.3621  -23.3627  -52.7080 C.2       16 UNK         0.5000 
     93 O          -0.9731  -23.1186  -53.8498 O.2       16 UNK        -0.5000 
     94 N          -1.4666  -24.5998  -52.1968 N.am      17 UNK        -0.5000 
     95 CA         -1.2833  -25.8716  -52.9024 C.3       17 UNK         0.1400 
     96 CB          0.1638  -26.0353  -53.4140 C.3       17 UNK        -0.1800 
     97 C          -2.3556  -26.0622  -53.9936 C.2       17 UNK         0.5000 
     98 O          -2.0307  -26.3585  -55.1449 O.2       17 UNK        -0.5000 
     99 N          -3.6203  -25.8720  -53.5871 N.am      18 UNK        -0.5000 
    100 CA        -4.8369  -25.9313  -54.4041 C.3       18 UNK         0.1400 
    101 CB        -5.0884  -27.3656  -54.9150 C.3       18 UNK        -0.1800 
    102 C         -4.8548  -24.8695  -55.5252 C.2       18 UNK         0.5000 
    103 O         -5.1088  -25.1897  -56.6881 O.2       18 UNK        -0.5000 
    104 N         -4.5983  -23.6154  -55.1385 N.am      19 UNK        -0.5000 
    105 CA        -4.6366  -22.4256  -55.9882 C.3       19 UNK         0.1400 
    106 CB        -3.2031  -21.9430  -56.2693 C.3       19 UNK        -0.1800 
    107 C         -5.5227  -21.3433  -55.3412 C.2       19 UNK         0.5000 
    108 O         -5.2097  -20.1531  -55.4163 O.2       19 UNK        -0.5000 
    109 N         -6.6162  -21.7871  -54.7012 N.am      20 UNK        -0.5000 
    110 CA        -7.6971  -20.9893  -54.1076 C.3       20 UNK         0.1400 
    111 CB        -8.5144  -20.3019  -55.2216 C.3       20 UNK        -0.1800 
    112 C         -7.2430  -19.9981  -53.0129 C.2       20 UNK         0.5000 
    113 O         -7.8795  -18.9585  -52.8349 O.2       20 UNK        -0.5000 
    114 N         -6.1570  -20.3401  -52.3015 N.am      21 UNK        -0.5000 
    115 CA        -5.4825  -19.5228  -51.2846 C.3       21 UNK         0.1400 
    116 CB        -6.3686  -19.3359  -50.0347 C.3       21 UNK        -0.1800 
    117 C         -4.9543  -18.1992  -51.8744 C.2       21 UNK         0.5000 
    118 O         -5.2849  -17.1178  -51.3848 O.2       21 UNK        -0.5000 
    119 N         -4.1413  -18.3386  -52.9291 N.am      22 UNK        -0.5000 
    120 CA        -3.5138  -17.2588  -53.7072 C.3       22 UNK         0.1400 
    121 C         -4.5150  -16.5550  -54.6699 C.2       22 UNK         0.5000 
    122 N         -5.4031  -17.2953  -55.3219 N.am      22 UNK        -0.7600 
    123 O         -4.4881  -15.3392  -54.8451 O.2       22 UNK        -0.5000 
    124 C124       -2.6625  -16.2613  -52.8644 C.3       23 UNK        -0.0398 
    125 S125       -1.4643  -17.0500  -51.7330 S.3       23 UNK        -0.2404 
    126 C126       -0.1054  -17.4454  -52.8731 C.3       23 UNK        -0.0205 
    127 H127       -0.6058  -17.4306  -47.9445 H         1 UNK         0.0600 
    128 H128       -1.9966  -16.6362  -48.6771 H         1 UNK         0.0600 
    129 H129       -1.6488  -16.3923  -46.9661 H         1 UNK         0.0600 
    130 H130        1.3103  -16.4442  -48.4363 H         1 UNK         0.3000 
    131 H131        1.5844  -14.3359  -50.0572 H         1 UNK         0.0600 
    132 H132        3.9966  -14.7588  -48.2775 H         1 UNK         0.0800 
    133 H133        3.3470  -16.1973  -48.9660 H         1 UNK         0.0800 
    134 H134        5.0054  -16.2624  -52.3420 H         1 UNK         0.0800 
    135 H135        5.4068  -16.7987  -50.7301 H         1 UNK         0.0800 
    136 H136        2.1986  -16.0183  -52.5856 H         1 UNK         0.1150 
    137 H137        0.3831  -19.7417  -51.4826 H         1 UNK         0.1150 
    138 H138        4.3658  -18.8382  -50.1926 H         1 UNK         0.1150 
    139 H139        1.6978  -21.4608  -50.3997 H         1 UNK         0.0800 
    140 H140        3.4270  -21.2528  -50.3187 H         1 UNK         0.0800 
    141 H141        0.1502  -20.1028  -48.9431 H         1 UNK         0.0800 
    142 H142        0.5121  -19.4047  -47.3893 H         1 UNK         0.0800 
    143 H143        0.2660  -22.4230  -47.7519 H         1 UNK         0.0600 
    144 H144        0.8380  -20.8498  -45.4653 H         1 UNK         0.3000 
    145 H145       -0.3984  -23.1810  -43.0075 H         1 UNK         0.0600 
    146 H146        1.9321  -23.8220  -43.5791 H         1 UNK         0.0600 
    147 H147        2.3818  -22.1319  -43.7532 H         1 UNK         0.0600 
    148 H148        1.9011  -22.7597  -42.1793 H         1 UNK         0.0600 
    149 H149        0.6889  -20.5720  -42.7028 H         1 UNK         0.3000 
    150 H150       -2.4168  -18.7715  -42.9251 H         1 UNK         0.0600 
    151 H151       -1.5860  -17.9707  -40.7284 H         1 UNK         0.0600 
    152 H152       -0.4944  -19.3482  -40.6094 H         1 UNK         0.0600 
    153 H153       -2.2354  -19.5981  -40.5828 H         1 UNK         0.0600 
    154 H154        0.2015  -17.8140  -42.4886 H         1 UNK         0.3000 
    155 H155        1.2026  -17.4961  -45.9222 H         1 UNK         0.0600 
    156 H156       -0.0755  -15.4635  -45.3311 H         1 UNK         0.0600 
    157 H157        1.6436  -15.2108  -45.0425 H         1 UNK         0.0600 
    158 H158        0.5447  -15.4960  -43.6964 H         1 UNK         0.0600 
    159 H159        2.5251  -17.0253  -43.4156 H         1 UNK         0.3000 
    160 H160        4.0708  -20.2180  -43.1310 H         1 UNK         0.0600 
    161 H161        5.4606  -18.9877  -44.8040 H         1 UNK         0.0600 
    162 H162        6.1112  -18.8078  -43.1825 H         1 UNK         0.0600 
    163 H163        5.2142  -17.4832  -43.9254 H         1 UNK         0.0600 
    164 H164        4.2817  -17.7669  -41.6477 H         1 UNK         0.3000 
    165 H165        1.6012  -18.3961  -39.3811 H         1 UNK         0.0600 
    166 H166        3.4353  -18.1014  -37.7457 H         1 UNK         0.0600 
    167 H167        3.5528  -19.6845  -38.4964 H         1 UNK         0.0600 
    168 H168        4.6435  -18.3975  -38.9963 H         1 UNK         0.0600 
    169 H169        3.4539  -16.2583  -39.5036 H         1 UNK         0.3000 
    170 H170        2.4994  -14.1405  -39.9617 H         1 UNK         0.0600 
    171 H171        3.5183  -13.2684  -42.0788 H         1 UNK         0.0600 
    172 H172        4.2050  -14.8238  -41.6476 H         1 UNK         0.0600 
    173 H173        3.0112  -14.7258  -42.9338 H         1 UNK         0.0600 
    174 H174        0.9852  -13.4111  -42.2896 H         1 UNK         0.3000 
    175 H175       -2.1786  -13.2493  -40.9437 H         1 UNK         0.0600 
    176 H176       -0.3808  -10.7733  -40.7834 H         1 UNK         0.0600 
    177 H177       -2.1380  -10.7654  -40.9310 H         1 UNK         0.0600 
    178 H178       -1.3823  -11.4012  -39.4792 H         1 UNK         0.0600 
    179 H179       -0.6349  -11.7834  -43.0036 H         1 UNK         0.3000 
    180 H180       -2.2556  -13.6519  -45.6028 H         1 UNK         0.0600 
    181 H181       -2.6799  -11.3174  -46.2460 H         1 UNK         0.0600 
    182 H182       -2.1462  -10.7379  -44.6702 H         1 UNK         0.0600 
    183 H183       -3.5995  -11.7170  -44.8040 H         1 UNK         0.0600 
    184 H184       -0.2997  -13.2706  -46.4685 H         1 UNK         0.3000 
    185 H185        1.9307  -11.0984  -46.6877 H         1 UNK         0.0600 
    186 H186        3.1255  -12.9791  -44.5856 H         1 UNK         0.0600 
    187 H187        4.0373  -12.0945  -45.8044 H         1 UNK         0.0600 
    188 H188        3.1864  -11.2207  -44.5432 H         1 UNK         0.0600 
    189 H189        1.8317  -14.0921  -46.5350 H         1 UNK         0.3000 
    190 H190       -1.8007  -19.9972  -46.0556 H         1 UNK         0.3000 
    191 H191       -4.0391  -20.2303  -47.7534 H         1 UNK         0.0600 
    192 H192       -3.9180  -19.4833  -44.7862 H         1 UNK         0.0600 
    193 H193       -5.2699  -19.1664  -45.8667 H         1 UNK         0.0600 
    194 H194       -3.7247  -18.3757  -46.1429 H         1 UNK         0.0600 
    195 H195       -3.2263  -22.0901  -44.7815 H         1 UNK         0.3000 
    196 H196       -5.5607  -23.6957  -44.7006 H         1 UNK         0.0600 
    197 H197       -4.1727  -25.1619  -43.2240 H         1 UNK         0.0600 
    198 H198       -4.0034  -23.4676  -42.7909 H         1 UNK         0.0600 
    199 H199       -2.7254  -24.2782  -43.6937 H         1 UNK         0.0600 
    200 H200       -2.5314  -24.0897  -46.5170 H         1 UNK         0.3000 
    201 H201       -3.2661  -26.6728  -47.6797 H         1 UNK         0.0600 
    202 H202       -0.8912  -26.0450  -47.2070 H         1 UNK         0.0600 
    203 H203       -1.0097  -24.7030  -48.3412 H         1 UNK         0.0600 
    204 H204       -1.1346  -26.3613  -48.9168 H         1 UNK         0.0600 
    205 H205       -4.5037  -23.6481  -48.1881 H         1 UNK         0.3000 
    206 H206       -5.5412  -22.5010  -49.7505 H         1 UNK         0.0600 
    207 H207       -6.8569  -23.7058  -51.4602 H         1 UNK         0.0600 
    208 H208       -5.9005  -25.1634  -51.2264 H         1 UNK         0.0600 
    209 H209       -6.9374  -24.5665  -49.9331 H         1 UNK         0.0600 
    210 H210       -2.7049  -22.5731  -49.9133 H         1 UNK         0.3000 
    211 H211       -0.9306  -22.0539  -51.1013 H         1 UNK         0.0600 
    212 H212       -2.9075  -20.9360  -53.1519 H         1 UNK         0.0600 
    213 H213       -1.1849  -20.5998  -53.1258 H         1 UNK         0.0600 
    214 H214       -2.1914  -20.0719  -51.7901 H         1 UNK         0.0600 
    215 H215       -1.8537  -24.6894  -51.2659 H         1 UNK         0.3000 
    216 H216       -1.4559  -26.6567  -52.1646 H         1 UNK         0.0600 
    217 H217        0.3206  -27.0371  -53.8153 H         1 UNK         0.0600 
    218 H218        0.8847  -25.8916  -52.6092 H         1 UNK         0.0600 
    219 H219        0.4018  -25.3279  -54.2085 H         1 UNK         0.0600 
    220 H220       -3.7602  -25.6288  -52.6148 H         1 UNK         0.3000 
    221 H221       -5.6617  -25.6771  -53.7369 H         1 UNK         0.0600 
    222 H222       -4.3260  -27.6857  -55.6257 H         1 UNK         0.0600 
    223 H223       -5.1007  -28.0802  -54.0920 H         1 UNK         0.0600 
    224 H224       -6.0531  -27.4358  -55.4189 H         1 UNK         0.0600 
    225 H225       -4.4383  -23.4329  -54.1479 H         1 UNK         0.3000 
    226 H226       -5.1044  -22.6632  -56.9453 H         1 UNK         0.0600 
    227 H227       -2.6045  -22.7335  -56.7223 H         1 UNK         0.0600 
    228 H228       -3.2005  -21.0973  -56.9577 H         1 UNK         0.0600 
    229 H229       -2.6983  -21.6267  -55.3579 H         1 UNK         0.0600 
    230 H230       -6.7480  -22.7876  -54.6636 H         1 UNK         0.3000 
    231 H231       -8.3569  -21.6996  -53.6074 H         1 UNK         0.0600 
    232 H232       -7.9338  -19.5311  -55.7296 H         1 UNK         0.0600 
    233 H233       -8.8438  -21.0218  -55.9708 H         1 UNK         0.0600 
    234 H234       -9.4091  -19.8260  -54.8187 H         1 UNK         0.0600 
    235 H235       -5.6987  -21.2113  -52.5469 H         1 UNK         0.3000 
    236 H236       -4.6009  -20.0783  -50.9659 H         1 UNK         0.0600 
    237 H237       -7.2601  -18.7464  -50.2493 H         1 UNK         0.0600 
    238 H238       -6.6911  -20.2952  -49.6306 H         1 UNK         0.0600 
    239 H239       -5.8208  -18.8199  -49.2453 H         1 UNK         0.0600 
    240 H240       -4.0010  -19.2664  -53.2998 H         1 UNK         0.3000 
    241 H241       -2.8142  -17.7637  -54.3738 H         1 UNK         0.0600 
    242 H242       -6.0542  -16.8493  -55.9473 H         1 UNK         0.3800 
    243 H243       -5.3932  -18.3104  -55.2468 H         1 UNK         0.3800 
    244 H244       -2.1186  -15.5816  -53.5220 H         1 UNK         0.0800 
    245 H245       -3.3130  -15.6248  -52.2633 H         1 UNK         0.0800 
    246 H246        0.0934  -16.5857  -53.5148 H         1 UNK         0.0800 
    247 H247       -0.4073  -18.2605  -53.5316 H         1 UNK         0.0800 
@<TRIPOS>BOND
     1    1    2 1    
     2    1  127 1    
     3    1  128 1    
     4    1  129 1    
     5    2    3 2    
     6    2    4 am   BACKBONE|DICT|INTERRES
     7    4    5 1    
     8    4  130 1    
     9    5    6 1    
    10    5   65 1    
    11    5  131 1    
    12    6    7 1    
    13    6  132 1    
    14    6  133 1    
    15    7    8 1    
    16    8    9 1    
    17    8  134 1    
    18    8  135 1    
    19    9   10 ar   
    20    9   14 ar   
    21   10   11 ar   
    22   10  136 1    
    23   11   12 ar   
    24   11  126 1    
    25   12   13 ar   
    26   12  137 1    
    27   13   14 ar   
    28   13   15 1    
    29   14  138 1    
    30   15   16 1    
    31   15  139 1    
    32   15  140 1    
    33   16   17 1    
    34   17   18 1    
    35   17  141 1    
    36   17  142 1    
    37   18   19 1    
    38   18   67 1    
    39   18  143 1    
    40   19   20 am   BACKBONE|DICT|INTERRES
    41   19  144 1    
    42   20   21 2    
    43   20   22 1    
    44   22   23 1    
    45   22   24 1    
    46   22  145 1    
    47   23  146 1    
    48   23  147 1    
    49   23  148 1    
    50   24   25 am   BACKBONE|DICT|INTERRES
    51   24  149 1    
    52   25   26 2    
    53   25   27 1    
    54   27   28 1    
    55   27   29 1    
    56   27  150 1    
    57   28  151 1    
    58   28  152 1    
    59   28  153 1    
    60   29   30 am   BACKBONE|DICT|INTERRES
    61   29  154 1    
    62   30   31 2    
    63   30   32 1    
    64   32   33 1    
    65   32   34 1    
    66   32  155 1    
    67   33  156 1    
    68   33  157 1    
    69   33  158 1    
    70   34   35 am   BACKBONE|DICT|INTERRES
    71   34  159 1    
    72   35   36 2    
    73   35   37 1    
    74   37   38 1    
    75   37   39 1    
    76   37  160 1    
    77   38  161 1    
    78   38  162 1    
    79   38  163 1    
    80   39   40 am   BACKBONE|DICT|INTERRES
    81   39  164 1    
    82   40   41 2    
    83   40   42 1    
    84   42   43 1    
    85   42   44 1    
    86   42  165 1    
    87   43  166 1    
    88   43  167 1    
    89   43  168 1    
    90   44   45 am   BACKBONE|DICT|INTERRES
    91   44  169 1    
    92   45   46 2    
    93   45   47 1    
    94   47   48 1    
    95   47   49 1    
    96   47  170 1    
    97   48  171 1    
    98   48  172 1    
    99   48  173 1    
   100   49   50 am   BACKBONE|DICT|INTERRES
   101   49  174 1    
   102   50   51 2    
   103   50   52 1    
   104   52   53 1    
   105   52   54 1    
   106   52  175 1    
   107   53  176 1    
   108   53  177 1    
   109   53  178 1    
   110   54   55 am   BACKBONE|DICT|INTERRES
   111   54  179 1    
   112   55   56 2    
   113   55   57 1    
   114   57   58 1    
   115   57   59 1    
   116   57  180 1    
   117   58  181 1    
   118   58  182 1    
   119   58  183 1    
   120   59   60 am   BACKBONE|DICT|INTERRES
   121   59  184 1    
   122   60   61 2    
   123   60   62 1    
   124   62   63 1    
   125   62   64 1    
   126   62  185 1    
   127   63  186 1    
   128   63  187 1    
   129   63  188 1    
   130   64   65 am   BACKBONE|DICT|INTERRES
   131   64  189 1    
   132   65   66 2    
   133   67   68 2    
   134   67   69 am   BACKBONE|DICT|INTERRES
   135   69   70 1    
   136   69  190 1    
   137   70   71 1    
   138   70   72 1    
   139   70  191 1    
   140   71  192 1    
   141   71  193 1    
   142   71  194 1    
   143   72   73 2    
   144   72   74 am   BACKBONE|DICT|INTERRES
   145   74   75 1    
   146   74  195 1    
   147   75   76 1    
   148   75   77 1    
   149   75  196 1    
   150   76  197 1    
   151   76  198 1    
   152   76  199 1    
   153   77   78 2    
   154   77   79 am   BACKBONE|DICT|INTERRES
   155   79   80 1    
   156   79  200 1    
   157   80   81 1    
   158   80   82 1    
   159   80  201 1    
   160   81  202 1    
   161   81  203 1    
   162   81  204 1    
   163   82   83 2    
   164   82   84 am   BACKBONE|DICT|INTERRES
   165   84   85 1    
   166   84  205 1    
   167   85   86 1    
   168   85   87 1    
   169   85  206 1    
   170   86  207 1    
   171   86  208 1    
   172   86  209 1    
   173   87   88 2    
   174   87   89 am   BACKBONE|DICT|INTERRES
   175   89   90 1    
   176   89  210 1    
   177   90   91 1    
   178   90   92 1    
   179   90  211 1    
   180   91  212 1    
   181   91  213 1    
   182   91  214 1    
   183   92   93 2    
   184   92   94 am   BACKBONE|DICT|INTERRES
   185   94   95 1    
   186   94  215 1    
   187   95   96 1    
   188   95   97 1    
   189   95  216 1    
   190   96  217 1    
   191   96  218 1    
   192   96  219 1    
   193   97   98 2    
   194   97   99 am   BACKBONE|DICT|INTERRES
   195   99  100 1    
   196   99  220 1    
   197  100  101 1    
   198  100  102 1    
   199  100  221 1    
   200  101  222 1    
   201  101  223 1    
   202  101  224 1    
   203  102  103 2    
   204  102  104 am   BACKBONE|DICT|INTERRES
   205  104  105 1    
   206  104  225 1    
   207  105  106 1    
   208  105  107 1    
   209  105  226 1    
   210  106  227 1    
   211  106  228 1    
   212  106  229 1    
   213  107  108 2    
   214  107  109 am   BACKBONE|DICT|INTERRES
   215  109  110 1    
   216  109  230 1    
   217  110  111 1    
   218  110  112 1    
   219  110  231 1    
   220  111  232 1    
   221  111  233 1    
   222  111  234 1    
   223  112  113 2    
   224  112  114 am   BACKBONE|DICT|INTERRES
   225  114  115 1    
   226  114  235 1    
   227  115  116 1    
   228  115  117 1    
   229  115  236 1    
   230  116  237 1    
   231  116  238 1    
   232  116  239 1    
   233  117  118 2    
   234  117  119 am   BACKBONE|DICT|INTERRES
   235  119  120 1    
   236  119  240 1    
   237  120  121 1    
   238  120  124 1    
   239  120  241 1    
   240  121  122 am   BACKBONE|DICT|INTERRES
   241  121  123 2    
   242  122  242 1    
   243  122  243 1    
   244  124  125 1    
   245  124  244 1    
   246  124  245 1    
   247  125  126 1    
   248  126  246 1    
   249  126  247 1    
@<TRIPOS>SUBSTRUCTURE
     1 UNK         1 GROUP             0       ****    0 ROOT    
