@<TRIPOS>MOLECULE
3R540
247   249    1
SMALL
USER_CHARGES


@<TRIPOS>ATOM
      1 CA         -4.4187  -15.8119  -50.2179 C.3       0 UNK        -0.1800 
      2 C          -3.3090  -15.7120  -49.1836 C.2       0 UNK         0.5000 
      3 O          -2.1737  -15.3841  -49.5266 O.2       0 UNK        -0.5000 
      4 N          -3.6325  -15.9655  -47.9096 N.am      1 UNK        -0.5000 
      5 CA         -2.6811  -15.9407  -46.7899 C.3       1 UNK         0.1400 
      6 C6         -3.2703  -16.5216  -45.4803 C.3       23 UNK        -0.0398 
      7 S7         -4.1810  -18.0869  -45.7010 S.3       23 UNK        -0.2404 
      8 C8         -2.8537  -19.3307  -45.5982 C.3       23 UNK        -0.0205 
      9 C9         -1.9656  -19.3817  -46.8374 C.ar      23 UNK        -0.0193 
     10 C10        -2.5324  -19.4437  -48.1151 C.ar      23 UNK        -0.1150 
     11 C11        -1.7337  -19.4972  -49.2607 C.ar      23 UNK        -0.0193 
     12 C12        -0.3418  -19.5221  -49.1073 C.ar      23 UNK        -0.1150 
     13 C13         0.2427  -19.4641  -47.8398 C.ar      23 UNK        -0.0193 
     14 C14        -0.5734  -19.3938  -46.7068 C.ar      23 UNK        -0.1150 
     15 C15         1.7588  -19.4451  -47.7153 C.3       23 UNK        -0.0205 
     16 S16         2.4837  -21.1090  -47.8209 S.3       23 UNK        -0.2404 
     17 C17         2.3044  -21.6945  -46.1062 C.3       23 UNK        -0.0398 
     18 CA          1.7543  -23.1368  -46.0215 C.3       11 UNK         0.1400 
     19 N           2.1235  -23.7730  -44.7570 N.am      11 UNK        -0.5000 
     20 C           2.0359  -25.0850  -44.5025 C.2       10 UNK         0.5000 
     21 O           1.6723  -25.9214  -45.3287 O.2       10 UNK        -0.5000 
     22 CA          2.3697  -25.5218  -43.0642 C.3       10 UNK         0.1400 
     23 CB          3.8824  -25.7287  -42.8978 C.3       10 UNK        -0.1800 
     24 N           1.8980  -24.5567  -42.0677 N.am      10 UNK        -0.5000 
     25 C           0.6044  -24.3195  -41.8089 C.2       9 UNK         0.5000 
     26 O          -0.3195  -24.9240  -42.3513 O.2       9 UNK        -0.5000 
     27 CA          0.2890  -23.1879  -40.8137 C.3       9 UNK         0.1400 
     28 CB          0.3189  -23.7147  -39.3713 C.3       9 UNK        -0.1800 
     29 N           1.1840  -22.0318  -40.9287 N.am      9 UNK        -0.5000 
     30 C           1.3016  -21.2606  -42.0177 C.2       8 UNK         0.5000 
     31 O           0.7301  -21.4893  -43.0853 O.2       8 UNK        -0.5000 
     32 CA          2.2590  -20.0611  -41.9114 C.3       8 UNK         0.1400 
     33 CB          3.6652  -20.4571  -42.3863 C.3       8 UNK        -0.1800 
     34 N           1.8024  -18.9126  -42.6951 N.am      8 UNK        -0.5000 
     35 C           0.7042  -18.1895  -42.4324 C.2       7 UNK         0.5000 
     36 O          -0.0641  -18.4364  -41.5008 O.2       7 UNK        -0.5000 
     37 CA          0.4382  -16.9747  -43.3539 C.3       7 UNK         0.1400 
     38 CB         -0.5013  -15.9339  -42.7108 C.3       7 UNK        -0.1800 
     39 N           1.6526  -16.3097  -43.8474 N.am      7 UNK        -0.5000 
     40 C           2.6644  -15.8099  -43.1173 C.2       6 UNK         0.5000 
     41 O           2.7505  -15.8935  -41.8918 O.2       6 UNK        -0.5000 
     42 CA          3.7635  -15.0729  -43.9038 C.3       6 UNK         0.1400 
     43 CB          4.7206  -16.0756  -44.5676 C.3       6 UNK        -0.1800 
     44 N           3.2163  -14.1779  -44.9240 N.am      6 UNK        -0.5000 
     45 C           2.4888  -13.0803  -44.6786 C.2       5 UNK         0.5000 
     46 O           2.2425  -12.6689  -43.5442 O.2       5 UNK        -0.5000 
     47 CA          1.9226  -12.3118  -45.8879 C.3       5 UNK         0.1400 
     48 CB          2.8529  -11.1587  -46.3082 C.3       5 UNK        -0.1800 
     49 N           1.5559  -13.1517  -47.0338 N.am      5 UNK        -0.5000 
     50 C           2.3334  -13.8287  -47.8897 C.2       4 UNK         0.5000 
     51 O           3.5587  -13.9023  -47.7983 O.2       4 UNK        -0.5000 
     52 CA          1.6083  -14.5762  -49.0248 C.3       4 UNK         0.1400 
     53 CB          1.2810  -16.0073  -48.5787 C.3       4 UNK        -0.1800 
     54 N           0.3788  -13.9052  -49.4530 N.am      4 UNK        -0.5000 
     55 C           0.3392  -12.7184  -50.0783 C.2       3 UNK         0.5000 
     56 O           1.3393  -12.1221  -50.4800 O.2       3 UNK        -0.5000 
     57 CA         -1.0435  -12.0550  -50.2166 C.3       3 UNK         0.1400 
     58 CB         -1.7892  -12.5496  -51.4651 C.3       3 UNK        -0.1800 
     59 N          -1.8658  -12.2813  -49.0270 N.am      3 UNK        -0.5000 
     60 C          -1.7039  -11.6365  -47.8619 C.2       2 UNK         0.5000 
     61 O          -0.8893  -10.7303  -47.6897 O.2       2 UNK        -0.5000 
     62 CA         -2.5836  -12.0897  -46.6812 C.3       2 UNK         0.1400 
     63 CB         -3.8598  -11.2384  -46.6030 C.3       2 UNK        -0.1800 
     64 N          -2.9554  -13.5024  -46.7617 N.am      2 UNK        -0.5000 
     65 C          -2.1189  -14.5263  -46.5382 C.2       1 UNK         0.5000 
     66 O          -0.9482  -14.3864  -46.1877 O.2       1 UNK        -0.5000 
     67 C           0.2304  -23.1997  -46.2418 C.2       11 UNK         0.5000 
     68 O          -0.2113  -23.5765  -47.3255 O.2       11 UNK        -0.5000 
     69 N          -0.5387  -22.9037  -45.1847 N.am      12 UNK        -0.5000 
     70 CA         -1.9970  -22.9998  -45.1530 C.3       12 UNK         0.1400 
     71 CB         -2.5112  -22.4420  -43.8165 C.3       12 UNK        -0.1800 
     72 C          -2.5183  -24.4310  -45.3737 C.2       12 UNK         0.5000 
     73 O          -3.5459  -24.6017  -46.0258 O.2       12 UNK        -0.5000 
     74 N          -1.8026  -25.4312  -44.8423 N.am      13 UNK        -0.5000 
     75 CA         -2.0899  -26.8488  -45.0544 C.3       13 UNK         0.1400 
     76 CB         -1.3017  -27.6902  -44.0392 C.3       13 UNK        -0.1800 
     77 C          -1.7853  -27.3017  -46.4944 C.2       13 UNK         0.5000 
     78 O          -2.5616  -28.0699  -47.0632 O.2       13 UNK        -0.5000 
     79 N          -0.6666  -26.8227  -47.0562 N.am      14 UNK        -0.5000 
     80 CA         -0.2278  -27.1284  -48.4173 C.3       14 UNK         0.1400 
     81 CB          1.2435  -26.7174  -48.5864 C.3       14 UNK        -0.1800 
     82 C          -1.1106  -26.4620  -49.4875 C.2       14 UNK         0.5000 
     83 O          -1.5744  -27.1397  -50.4052 O.2       14 UNK        -0.5000 
     84 N          -1.3384  -25.1520  -49.3438 N.am      15 UNK        -0.5000 
     85 CA         -2.1029  -24.3143  -50.2648 C.3       15 UNK         0.1400 
     86 CB         -1.3127  -23.0205  -50.5213 C.3       15 UNK        -0.1800 
     87 C          -3.5151  -24.0540  -49.7086 C.2       15 UNK         0.5000 
     88 O          -3.9649  -22.9073  -49.6492 O.2       15 UNK        -0.5000 
     89 N          -4.2013  -25.1411  -49.3276 N.am      16 UNK        -0.5000 
     90 CA         -5.5169  -25.1592  -48.6754 C.3       16 UNK         0.1400 
     91 CB         -5.8578  -26.6089  -48.2974 C.3       16 UNK        -0.1800 
     92 C          -6.6683  -24.5214  -49.4788 C.2       16 UNK         0.5000 
     93 O          -7.7037  -24.1997  -48.8943 O.2       16 UNK        -0.5000 
     94 N          -6.4702  -24.3284  -50.7896 N.am      17 UNK        -0.5000 
     95 CA         -7.3708  -23.5863  -51.6717 C.3       17 UNK         0.1400 
     96 CB         -6.9270  -23.8015  -53.1273 C.3       17 UNK        -0.1800 
     97 C          -7.4387  -22.0775  -51.3530 C.2       17 UNK         0.5000 
     98 O          -8.4419  -21.4471  -51.6890 O.2       17 UNK        -0.5000 
     99 N          -6.3796  -21.5304  -50.7289 N.am      18 UNK        -0.5000 
    100 CA        -6.2046  -20.1210  -50.3519 C.3       18 UNK         0.1400 
    101 CB        -7.1561  -19.7439  -49.1985 C.3       18 UNK        -0.1800 
    102 C         -6.2970  -19.1583  -51.5578 C.2       18 UNK         0.5000 
    103 O         -6.8981  -18.0871  -51.4576 O.2       18 UNK        -0.5000 
    104 N         -5.7283  -19.5889  -52.6919 N.am      19 UNK        -0.5000 
    105 CA        -5.7808  -18.8994  -53.9788 C.3       19 UNK         0.1400 
    106 CB        -5.2375  -19.8457  -55.0613 C.3       19 UNK        -0.1800 
    107 C         -4.9907  -17.5796  -53.9866 C.2       19 UNK         0.5000 
    108 O         -3.9494  -17.4771  -53.3375 O.2       19 UNK        -0.5000 
    109 N         -5.4561  -16.6183  -54.7948 N.am      20 UNK        -0.5000 
    110 CA        -4.8343  -15.3025  -54.9938 C.3       20 UNK         0.1400 
    111 CB        -5.8000  -14.4191  -55.7996 C.3       20 UNK        -0.1800 
    112 C         -3.4454  -15.3466  -55.6694 C.2       20 UNK         0.5000 
    113 O         -2.7409  -14.3371  -55.6702 O.2       20 UNK        -0.5000 
    114 N         -3.0741  -16.5091  -56.2234 N.am      21 UNK        -0.5000 
    115 CA        -1.7508  -16.8088  -56.7689 C.3       21 UNK         0.1400 
    116 CB        -1.8401  -18.1111  -57.5802 C.3       21 UNK        -0.1800 
    117 C         -0.6491  -16.9184  -55.6926 C.2       21 UNK         0.5000 
    118 O          0.5294  -16.8133  -56.0367 O.2       21 UNK        -0.5000 
    119 N         -1.0346  -17.1375  -54.4271 N.am      22 UNK        -0.5000 
    120 CA        -0.1341  -17.1595  -53.2645 C.3       22 UNK         0.1400 
    121 C          0.5654  -15.7942  -53.0068 C.2       22 UNK         0.5000 
    122 N          1.7960  -15.8074  -52.5119 N.am      22 UNK        -0.7600 
    123 O          0.0002  -14.7266  -53.2252 O.2       22 UNK        -0.5000 
    124 C124       -0.8733  -17.6363  -51.9917 C.3       23 UNK        -0.0398 
    125 S125       -1.3611  -19.3908  -52.0969 S.3       23 UNK        -0.2404 
    126 C126       -2.4299  -19.5413  -50.6242 C.3       23 UNK        -0.0205 
    127 H127       -5.3936  -15.9681  -49.7557 H         1 UNK         0.0600 
    128 H128       -4.2262  -16.6455  -50.8895 H         1 UNK         0.0600 
    129 H129       -4.4641  -14.8998  -50.8126 H         1 UNK         0.0600 
    130 H130       -4.5725  -16.2524  -47.6765 H         1 UNK         0.3000 
    131 H131       -1.8350  -16.5668  -47.0797 H         1 UNK         0.0600 
    132 H132       -3.9689  -15.8137  -45.0301 H         1 UNK         0.0800 
    133 H133       -2.4811  -16.6732  -44.7438 H         1 UNK         0.0800 
    134 H134       -2.2652  -19.1610  -44.6953 H         1 UNK         0.0800 
    135 H135       -3.3304  -20.3024  -45.4821 H         1 UNK         0.0800 
    136 H136       -3.6080  -19.4427  -48.2168 H         1 UNK         0.1150 
    137 H137        0.3050  -19.5866  -49.9691 H         1 UNK         0.1150 
    138 H138       -0.1248  -19.3562  -45.7247 H         1 UNK         0.1150 
    139 H139        2.1756  -18.8507  -48.5288 H         1 UNK         0.0800 
    140 H140        2.0700  -18.9534  -46.7924 H         1 UNK         0.0800 
    141 H141        1.6968  -21.0027  -45.5217 H         1 UNK         0.0800 
    142 H142        3.3027  -21.6548  -45.6692 H         1 UNK         0.0800 
    143 H143        2.2226  -23.7245  -46.8146 H         1 UNK         0.0600 
    144 H144        2.3683  -23.1555  -43.9980 H         1 UNK         0.3000 
    145 H145        1.8713  -26.4762  -42.8810 H         1 UNK         0.0600 
    146 H146        4.1213  -26.1062  -41.9034 H         1 UNK         0.0600 
    147 H147        4.2577  -26.4558  -43.6191 H         1 UNK         0.0600 
    148 H148        4.4367  -24.8013  -43.0474 H         1 UNK         0.0600 
    149 H149        2.5977  -24.0229  -41.5735 H         1 UNK         0.3000 
    150 H150       -0.7241  -22.8402  -41.0253 H         1 UNK         0.0600 
    151 H151        1.3176  -24.0442  -39.0823 H         1 UNK         0.0600 
    152 H152       -0.3546  -24.5646  -39.2522 H         1 UNK         0.0600 
    153 H153       -0.0003  -22.9484  -38.6646 H         1 UNK         0.0600 
    154 H154        1.7021  -21.7850  -40.0976 H         1 UNK         0.3000 
    155 H155        2.3179  -19.7521  -40.8657 H         1 UNK         0.0600 
    156 H156        3.6706  -20.7441  -43.4378 H         1 UNK         0.0600 
    157 H157        4.0514  -21.3008  -41.8130 H         1 UNK         0.0600 
    158 H158        4.3687  -19.6335  -42.2614 H         1 UNK         0.0600 
    159 H159        2.3756  -18.6439  -43.4796 H         1 UNK         0.3000 
    160 H160       -0.0687  -17.3727  -44.2336 H         1 UNK         0.0600 
    161 H161       -0.0711  -15.5124  -41.8018 H         1 UNK         0.0600 
    162 H162       -1.4614  -16.3773  -42.4444 H         1 UNK         0.0600 
    163 H163       -0.7041  -15.1106  -43.3963 H         1 UNK         0.0600 
    164 H164        1.6889  -16.1596  -44.8451 H         1 UNK         0.3000 
    165 H165        4.3360  -14.4696  -43.1960 H         1 UNK         0.0600 
    166 H166        5.5499  -15.5629  -45.0555 H         1 UNK         0.0600 
    167 H167        5.1487  -16.7549  -43.8292 H         1 UNK         0.0600 
    168 H168        4.2150  -16.6827  -45.3196 H         1 UNK         0.0600 
    169 H169        3.4229  -14.3906  -45.8941 H         1 UNK         0.3000 
    170 H170        0.9847  -11.8657  -45.5531 H         1 UNK         0.0600 
    171 H171        3.0169  -10.4707  -45.4781 H         1 UNK         0.0600 
    172 H172        3.8307  -11.5180  -46.6296 H         1 UNK         0.0600 
    173 H173        2.4193  -10.5837  -47.1267 H         1 UNK         0.0600 
    174 H174        0.5575  -13.2891  -47.1369 H         1 UNK         0.3000 
    175 H175        2.2884  -14.6262  -49.8769 H         1 UNK         0.0600 
    176 H176        0.5634  -16.0260  -47.7586 H         1 UNK         0.0600 
    177 H177        0.8653  -16.5899  -49.3977 H         1 UNK         0.0600 
    178 H178        2.1819  -16.5179  -48.2382 H         1 UNK         0.0600 
    179 H179       -0.4989  -14.3698  -49.2406 H         1 UNK         0.3000 
    180 H180       -0.8871  -10.9799  -50.3288 H         1 UNK         0.0600 
    181 H181       -1.9481  -13.6277  -51.4475 H         1 UNK         0.0600 
    182 H182       -1.2215  -12.3225  -52.3682 H         1 UNK         0.0600 
    183 H183       -2.7619  -12.0678  -51.5631 H         1 UNK         0.0600 
    184 H184       -2.5211  -13.0476  -49.0730 H         1 UNK         0.3000 
    185 H185       -2.0125  -11.9347  -45.7631 H         1 UNK         0.0600 
    186 H186       -3.6170  -10.1785  -46.5166 H         1 UNK         0.0600 
    187 H187       -4.4820  -11.3614  -47.4904 H         1 UNK         0.0600 
    188 H188       -4.4590  -11.5051  -45.7323 H         1 UNK         0.0600 
    189 H189       -3.9001  -13.7087  -47.0523 H         1 UNK         0.3000 
    190 H190       -0.0896  -22.5572  -44.3401 H         1 UNK         0.3000 
    191 H191       -2.3804  -22.3813  -45.9664 H         1 UNK         0.0600 
    192 H192       -2.1191  -21.4442  -43.6211 H         1 UNK         0.0600 
    193 H193       -3.5997  -22.3742  -43.8171 H         1 UNK         0.0600 
    194 H194       -2.2247  -23.0779  -42.9791 H         1 UNK         0.0600 
    195 H195       -1.0221  -25.2053  -44.2353 H         1 UNK         0.3000 
    196 H196       -3.1544  -27.0114  -44.8724 H         1 UNK         0.0600 
    197 H197       -1.5136  -28.7528  -44.1643 H         1 UNK         0.0600 
    198 H198       -1.5679  -27.4235  -43.0162 H         1 UNK         0.0600 
    199 H199       -0.2257  -27.5542  -44.1502 H         1 UNK         0.0600 
    200 H200       -0.0585  -26.2272  -46.5057 H         1 UNK         0.3000 
    201 H201       -0.2911  -28.2093  -48.5596 H         1 UNK         0.0600 
    202 H202        1.5988  -26.9400  -49.5932 H         1 UNK         0.0600 
    203 H203        1.8845  -27.2563  -47.8884 H         1 UNK         0.0600 
    204 H204        1.3881  -25.6503  -48.4145 H         1 UNK         0.0600 
    205 H205       -0.9401  -24.6658  -48.5403 H         1 UNK         0.3000 
    206 H206       -2.2227  -24.8207  -51.2245 H         1 UNK         0.0600 
    207 H207       -0.2986  -23.2351  -50.8582 H         1 UNK         0.0600 
    208 H208       -1.7894  -22.4238  -51.2984 H         1 UNK         0.0600 
    209 H209       -1.2410  -22.4065  -49.6226 H         1 UNK         0.0600 
    210 H210       -3.7421  -26.0364  -49.4189 H         1 UNK         0.3000 
    211 H211       -5.4339  -24.5778  -47.7568 H         1 UNK         0.0600 
    212 H212       -5.9082  -27.2522  -49.1767 H         1 UNK         0.0600 
    213 H213       -6.8216  -26.6676  -47.7899 H         1 UNK         0.0600 
    214 H214       -5.1118  -27.0225  -47.6186 H         1 UNK         0.0600 
    215 H215       -5.5943  -24.6349  -51.1856 H         1 UNK         0.3000 
    216 H216       -8.3766  -23.9951  -51.5539 H         1 UNK         0.0600 
    217 H217       -7.5920  -23.2830  -53.8194 H         1 UNK         0.0600 
    218 H218       -6.9441  -24.8586  -53.3933 H         1 UNK         0.0600 
    219 H219       -5.9174  -23.4266  -53.3004 H         1 UNK         0.0600 
    220 H220       -5.6086  -22.1403  -50.4707 H         1 UNK         0.3000 
    221 H221       -5.1897  -20.0351  -49.9676 H         1 UNK         0.0600 
    222 H222       -8.2003  -19.7631  -49.5119 H         1 UNK         0.0600 
    223 H223       -7.0450  -20.4291  -48.3580 H         1 UNK         0.0600 
    224 H224       -6.9425  -18.7406  -48.8278 H         1 UNK         0.0600 
    225 H225       -5.2388  -20.4704  -52.6764 H         1 UNK         0.3000 
    226 H226       -6.8282  -18.6815  -54.1982 H         1 UNK         0.0600 
    227 H227       -5.8092  -20.7734  -55.0980 H         1 UNK         0.0600 
    228 H228       -5.2988  -19.3899  -56.0503 H         1 UNK         0.0600 
    229 H229       -4.1921  -20.1022  -54.8821 H         1 UNK         0.0600 
    230 H230       -6.3050  -16.7885  -55.3151 H         1 UNK         0.3000 
    231 H231       -4.6952  -14.8488  -54.0102 H         1 UNK         0.0600 
    232 H232       -5.9909  -14.8330  -56.7906 H         1 UNK         0.0600 
    233 H233       -5.3934  -13.4161  -55.9358 H         1 UNK         0.0600 
    234 H234       -6.7571  -14.3116  -55.2888 H         1 UNK         0.0600 
    235 H235       -3.7271  -17.2764  -56.1829 H         1 UNK         0.3000 
    236 H236       -1.4693  -15.9996  -57.4459 H         1 UNK         0.0600 
    237 H237       -2.5655  -18.0240  -58.3893 H         1 UNK         0.0600 
    238 H238       -0.8785  -18.3565  -58.0331 H         1 UNK         0.0600 
    239 H239       -2.1329  -18.9551  -56.9542 H         1 UNK         0.0600 
    240 H240       -2.0230  -17.2126  -54.2161 H         1 UNK         0.3000 
    241 H241        0.6515  -17.8838  -53.4890 H         1 UNK         0.0600 
    242 H242        2.2906  -16.6681  -52.3382 H         1 UNK         0.3800 
    243 H243        2.2574  -14.9271  -52.3483 H         1 UNK         0.3800 
    244 H244       -0.2390  -17.5239  -51.1143 H         1 UNK         0.0800 
    245 H245       -1.7552  -17.0205  -51.8079 H         1 UNK         0.0800 
    246 H246       -3.1808  -18.7528  -50.6690 H         1 UNK         0.0800 
    247 H247       -2.9703  -20.4844  -50.6981 H         1 UNK         0.0800 
@<TRIPOS>BOND
     1    1    2 1    
     2    1  127 1    
     3    1  128 1    
     4    1  129 1    
     5    2    3 2    
     6    2    4 am   BACKBONE|DICT|INTERRES
     7    4    5 1    
     8    4  130 1    
     9    5    6 1    
    10    5   65 1    
    11    5  131 1    
    12    6    7 1    
    13    6  132 1    
    14    6  133 1    
    15    7    8 1    
    16    8    9 1    
    17    8  134 1    
    18    8  135 1    
    19    9   10 ar   
    20    9   14 ar   
    21   10   11 ar   
    22   10  136 1    
    23   11   12 ar   
    24   11  126 1    
    25   12   13 ar   
    26   12  137 1    
    27   13   14 ar   
    28   13   15 1    
    29   14  138 1    
    30   15   16 1    
    31   15  139 1    
    32   15  140 1    
    33   16   17 1    
    34   17   18 1    
    35   17  141 1    
    36   17  142 1    
    37   18   19 1    
    38   18   67 1    
    39   18  143 1    
    40   19   20 am   BACKBONE|DICT|INTERRES
    41   19  144 1    
    42   20   21 2    
    43   20   22 1    
    44   22   23 1    
    45   22   24 1    
    46   22  145 1    
    47   23  146 1    
    48   23  147 1    
    49   23  148 1    
    50   24   25 am   BACKBONE|DICT|INTERRES
    51   24  149 1    
    52   25   26 2    
    53   25   27 1    
    54   27   28 1    
    55   27   29 1    
    56   27  150 1    
    57   28  151 1    
    58   28  152 1    
    59   28  153 1    
    60   29   30 am   BACKBONE|DICT|INTERRES
    61   29  154 1    
    62   30   31 2    
    63   30   32 1    
    64   32   33 1    
    65   32   34 1    
    66   32  155 1    
    67   33  156 1    
    68   33  157 1    
    69   33  158 1    
    70   34   35 am   BACKBONE|DICT|INTERRES
    71   34  159 1    
    72   35   36 2    
    73   35   37 1    
    74   37   38 1    
    75   37   39 1    
    76   37  160 1    
    77   38  161 1    
    78   38  162 1    
    79   38  163 1    
    80   39   40 am   BACKBONE|DICT|INTERRES
    81   39  164 1    
    82   40   41 2    
    83   40   42 1    
    84   42   43 1    
    85   42   44 1    
    86   42  165 1    
    87   43  166 1    
    88   43  167 1    
    89   43  168 1    
    90   44   45 am   BACKBONE|DICT|INTERRES
    91   44  169 1    
    92   45   46 2    
    93   45   47 1    
    94   47   48 1    
    95   47   49 1    
    96   47  170 1    
    97   48  171 1    
    98   48  172 1    
    99   48  173 1    
   100   49   50 am   BACKBONE|DICT|INTERRES
   101   49  174 1    
   102   50   51 2    
   103   50   52 1    
   104   52   53 1    
   105   52   54 1    
   106   52  175 1    
   107   53  176 1    
   108   53  177 1    
   109   53  178 1    
   110   54   55 am   BACKBONE|DICT|INTERRES
   111   54  179 1    
   112   55   56 2    
   113   55   57 1    
   114   57   58 1    
   115   57   59 1    
   116   57  180 1    
   117   58  181 1    
   118   58  182 1    
   119   58  183 1    
   120   59   60 am   BACKBONE|DICT|INTERRES
   121   59  184 1    
   122   60   61 2    
   123   60   62 1    
   124   62   63 1    
   125   62   64 1    
   126   62  185 1    
   127   63  186 1    
   128   63  187 1    
   129   63  188 1    
   130   64   65 am   BACKBONE|DICT|INTERRES
   131   64  189 1    
   132   65   66 2    
   133   67   68 2    
   134   67   69 am   BACKBONE|DICT|INTERRES
   135   69   70 1    
   136   69  190 1    
   137   70   71 1    
   138   70   72 1    
   139   70  191 1    
   140   71  192 1    
   141   71  193 1    
   142   71  194 1    
   143   72   73 2    
   144   72   74 am   BACKBONE|DICT|INTERRES
   145   74   75 1    
   146   74  195 1    
   147   75   76 1    
   148   75   77 1    
   149   75  196 1    
   150   76  197 1    
   151   76  198 1    
   152   76  199 1    
   153   77   78 2    
   154   77   79 am   BACKBONE|DICT|INTERRES
   155   79   80 1    
   156   79  200 1    
   157   80   81 1    
   158   80   82 1    
   159   80  201 1    
   160   81  202 1    
   161   81  203 1    
   162   81  204 1    
   163   82   83 2    
   164   82   84 am   BACKBONE|DICT|INTERRES
   165   84   85 1    
   166   84  205 1    
   167   85   86 1    
   168   85   87 1    
   169   85  206 1    
   170   86  207 1    
   171   86  208 1    
   172   86  209 1    
   173   87   88 2    
   174   87   89 am   BACKBONE|DICT|INTERRES
   175   89   90 1    
   176   89  210 1    
   177   90   91 1    
   178   90   92 1    
   179   90  211 1    
   180   91  212 1    
   181   91  213 1    
   182   91  214 1    
   183   92   93 2    
   184   92   94 am   BACKBONE|DICT|INTERRES
   185   94   95 1    
   186   94  215 1    
   187   95   96 1    
   188   95   97 1    
   189   95  216 1    
   190   96  217 1    
   191   96  218 1    
   192   96  219 1    
   193   97   98 2    
   194   97   99 am   BACKBONE|DICT|INTERRES
   195   99  100 1    
   196   99  220 1    
   197  100  101 1    
   198  100  102 1    
   199  100  221 1    
   200  101  222 1    
   201  101  223 1    
   202  101  224 1    
   203  102  103 2    
   204  102  104 am   BACKBONE|DICT|INTERRES
   205  104  105 1    
   206  104  225 1    
   207  105  106 1    
   208  105  107 1    
   209  105  226 1    
   210  106  227 1    
   211  106  228 1    
   212  106  229 1    
   213  107  108 2    
   214  107  109 am   BACKBONE|DICT|INTERRES
   215  109  110 1    
   216  109  230 1    
   217  110  111 1    
   218  110  112 1    
   219  110  231 1    
   220  111  232 1    
   221  111  233 1    
   222  111  234 1    
   223  112  113 2    
   224  112  114 am   BACKBONE|DICT|INTERRES
   225  114  115 1    
   226  114  235 1    
   227  115  116 1    
   228  115  117 1    
   229  115  236 1    
   230  116  237 1    
   231  116  238 1    
   232  116  239 1    
   233  117  118 2    
   234  117  119 am   BACKBONE|DICT|INTERRES
   235  119  120 1    
   236  119  240 1    
   237  120  121 1    
   238  120  124 1    
   239  120  241 1    
   240  121  122 am   BACKBONE|DICT|INTERRES
   241  121  123 2    
   242  122  242 1    
   243  122  243 1    
   244  124  125 1    
   245  124  244 1    
   246  124  245 1    
   247  125  126 1    
   248  126  246 1    
   249  126  247 1    
@<TRIPOS>SUBSTRUCTURE
     1 UNK         1 GROUP             0       ****    0 ROOT    
