@<TRIPOS>MOLECULE
3R540
247   249    1
SMALL
USER_CHARGES


@<TRIPOS>ATOM
      1 CA          5.5920   -9.5773  -50.8537 C.3       0 UNK        -0.1800 
      2 C           5.6034  -10.5458  -49.6797 C.2       0 UNK         0.5000 
      3 O           5.9422  -10.1501  -48.5645 O.2       0 UNK        -0.5000 
      4 N           5.2366  -11.8108  -49.9277 N.am      1 UNK        -0.5000 
      5 CA          5.1476  -12.8780  -48.9227 C.3       1 UNK         0.1400 
      6 C6          4.9618  -14.2590  -49.5994 C.3       23 UNK        -0.0398 
      7 S7          5.1591  -15.6717  -48.4591 S.3       23 UNK        -0.2404 
      8 C8          3.4252  -16.1231  -48.1269 C.3       23 UNK        -0.0205 
      9 C9          2.8071  -16.8961  -49.2788 C.ar      23 UNK        -0.0193 
     10 C10         1.9901  -16.2587  -50.2168 C.ar      23 UNK        -0.1150 
     11 C11         1.4361  -16.9785  -51.2795 C.ar      23 UNK        -0.0193 
     12 C12         1.6863  -18.3529  -51.3834 C.ar      23 UNK        -0.1150 
     13 C13         2.5081  -19.0002  -50.4526 C.ar      23 UNK        -0.0193 
     14 C14         3.0634  -18.2619  -49.4049 C.ar      23 UNK        -0.1150 
     15 C15         2.8728  -20.4714  -50.6207 C.3       23 UNK        -0.0205 
     16 S16         2.6051  -21.4605  -49.1100 S.3       23 UNK        -0.2404 
     17 C17         0.8338  -21.8352  -49.2588 C.3       23 UNK        -0.0398 
     18 CA          0.3687  -22.9076  -48.2462 C.3       11 UNK         0.1400 
     19 N           0.4347  -22.4523  -46.8541 N.am      11 UNK        -0.5000 
     20 C           0.2767  -23.2512  -45.7879 C.2       10 UNK         0.5000 
     21 O           0.1447  -24.4736  -45.8632 O.2       10 UNK        -0.5000 
     22 CA          0.1809  -22.5570  -44.4156 C.3       10 UNK         0.1400 
     23 CB          1.5764  -22.2336  -43.8630 C.3       10 UNK        -0.1800 
     24 N          -0.6219  -21.3334  -44.4760 N.am      10 UNK        -0.5000 
     25 C          -1.9381  -21.3097  -44.7348 C.2       9 UNK         0.5000 
     26 O          -2.6233  -22.3242  -44.8478 O.2       9 UNK        -0.5000 
     27 CA         -2.5901  -19.9332  -44.9639 C.3       9 UNK         0.1400 
     28 CB         -3.1811  -19.3863  -43.6576 C.3       9 UNK        -0.1800 
     29 N          -1.6566  -18.9610  -45.5302 N.am      9 UNK        -0.5000 
     30 C          -1.1207  -19.0361  -46.7552 C.2       8 UNK         0.5000 
     31 O          -1.4479  -19.8857  -47.5844 O.2       8 UNK        -0.5000 
     32 CA         -0.0266  -18.0142  -47.1082 C.3       8 UNK         0.1400 
     33 CB         -0.6155  -16.8541  -47.9114 C.3       8 UNK        -0.1800 
     34 N           0.6388  -17.4775  -45.9220 N.am      8 UNK        -0.5000 
     35 C           1.6514  -18.0798  -45.2855 C.2       7 UNK         0.5000 
     36 O           2.1437  -19.1476  -45.6468 O.2       7 UNK        -0.5000 
     37 CA          2.1828  -17.3834  -44.0179 C.3       7 UNK         0.1400 
     38 CB          3.2552  -16.3420  -44.3716 C.3       7 UNK        -0.1800 
     39 N           1.1171  -16.7344  -43.2540 N.am      7 UNK        -0.5000 
     40 C           0.1765  -17.3994  -42.5670 C.2       6 UNK         0.5000 
     41 O           0.1488  -18.6262  -42.4667 O.2       6 UNK        -0.5000 
     42 CA         -0.9445  -16.5615  -41.9180 C.3       6 UNK         0.1400 
     43 CB         -0.5753  -16.2037  -40.4709 C.3       6 UNK        -0.1800 
     44 N          -1.2622  -15.3311  -42.6472 N.am      6 UNK        -0.5000 
     45 C          -1.6733  -15.2644  -43.9222 C.2       5 UNK         0.5000 
     46 O          -1.8667  -16.2558  -44.6223 O.2       5 UNK        -0.5000 
     47 CA         -1.8510  -13.8630  -44.5360 C.3       5 UNK         0.1400 
     48 CB         -3.3362  -13.4761  -44.5724 C.3       5 UNK        -0.1800 
     49 N          -1.0952  -12.8126  -43.8464 N.am      5 UNK        -0.5000 
     50 C           0.2407  -12.7492  -43.7793 C.2       4 UNK         0.5000 
     51 O           0.9922  -13.5922  -44.2734 O.2       4 UNK        -0.5000 
     52 CA          0.8327  -11.5485  -43.0193 C.3       4 UNK         0.1400 
     53 CB          1.8256  -12.0140  -41.9419 C.3       4 UNK        -0.1800 
     54 N           1.5096  -10.6297  -43.9318 N.am      4 UNK        -0.5000 
     55 C           0.8997   -9.8922  -44.8687 C.2       3 UNK         0.5000 
     56 O          -0.3230   -9.8502  -45.0139 O.2       3 UNK        -0.5000 
     57 CA          1.7932   -9.0637  -45.8148 C.3       3 UNK         0.1400 
     58 CB          3.3157   -9.2695  -45.6388 C.3       3 UNK        -0.1800 
     59 N           1.3988   -9.1958  -47.2228 N.am      3 UNK        -0.5000 
     60 C           1.3536  -10.2677  -48.0309 C.2       2 UNK         0.5000 
     61 O           1.0095  -10.1481  -49.2072 O.2       2 UNK        -0.5000 
     62 CA          1.7613  -11.6721  -47.5448 C.3       2 UNK         0.1400 
     63 CB          0.6124  -12.6815  -47.7120 C.3       2 UNK        -0.1800 
     64 N           2.8955  -12.0923  -48.3560 N.am      2 UNK        -0.5000 
     65 C           4.0408  -12.5960  -47.8819 C.2       1 UNK         0.5000 
     66 O           4.2517  -12.8224  -46.6899 O.2       1 UNK        -0.5000 
     67 C          -1.0453  -23.4050  -48.6006 C.2       11 UNK         0.5000 
     68 O          -1.1699  -24.4361  -49.2588 O.2       11 UNK        -0.5000 
     69 N          -2.0819  -22.6951  -48.1307 N.am      12 UNK        -0.5000 
     70 CA         -3.4837  -23.0694  -48.3223 C.3       12 UNK         0.1400 
     71 CB         -4.4083  -21.9473  -47.8349 C.3       12 UNK        -0.1800 
     72 C          -3.8379  -24.3988  -47.6404 C.2       12 UNK         0.5000 
     73 O          -4.5228  -25.2189  -48.2473 O.2       12 UNK        -0.5000 
     74 N          -3.3329  -24.6107  -46.4179 N.am      13 UNK        -0.5000 
     75 CA         -3.4671  -25.8601  -45.6698 C.3       13 UNK         0.1400 
     76 CB         -2.9041  -25.6782  -44.2523 C.3       13 UNK        -0.1800 
     77 C          -2.7961  -27.0476  -46.3837 C.2       13 UNK         0.5000 
     78 O          -3.3995  -28.1172  -46.4726 O.2       13 UNK        -0.5000 
     79 N          -1.5893  -26.8247  -46.9248 N.am      14 UNK        -0.5000 
     80 CA         -0.8495  -27.7998  -47.7303 C.3       14 UNK         0.1400 
     81 CB          0.5796  -27.2885  -47.9673 C.3       14 UNK        -0.1800 
     82 C          -1.5461  -28.1280  -49.0666 C.2       14 UNK         0.5000 
     83 O          -1.5560  -29.2882  -49.4790 O.2       14 UNK        -0.5000 
     84 N          -2.1411  -27.1090  -49.7006 N.am      15 UNK        -0.5000 
     85 CA         -2.9142  -27.2164  -50.9398 C.3       15 UNK         0.1400 
     86 CB         -2.9811  -25.8296  -51.6029 C.3       15 UNK        -0.1800 
     87 C          -4.3383  -27.7749  -50.7432 C.2       15 UNK         0.5000 
     88 O          -5.0277  -27.9972  -51.7376 O.2       15 UNK        -0.5000 
     89 N          -4.7783  -27.9478  -49.4876 N.am      16 UNK        -0.5000 
     90 CA         -6.1316  -28.3358  -49.0699 C.3       16 UNK         0.1400 
     91 CB         -6.4350  -29.7933  -49.4744 C.3       16 UNK        -0.1800 
     92 C          -7.2059  -27.3327  -49.5491 C.2       16 UNK         0.5000 
     93 O          -8.2806  -27.7328  -49.9995 O.2       16 UNK        -0.5000 
     94 N          -6.8649  -26.0391  -49.4584 N.am      17 UNK        -0.5000 
     95 CA         -7.6338  -24.8534  -49.8498 C.3       17 UNK         0.1400 
     96 CB         -8.9475  -24.7556  -49.0473 C.3       17 UNK        -0.1800 
     97 C          -7.8577  -24.6987  -51.3701 C.2       17 UNK         0.5000 
     98 O          -8.6407  -23.8388  -51.7766 O.2       17 UNK        -0.5000 
     99 N          -7.1605  -25.4953  -52.1935 N.am      18 UNK        -0.5000 
    100 CA        -7.2427  -25.4425  -53.6563 C.3       18 UNK         0.1400 
    101 CB        -6.7920  -26.7935  -54.2325 C.3       18 UNK        -0.1800 
    102 C         -6.4177  -24.2966  -54.2768 C.2       18 UNK         0.5000 
    103 O         -6.6016  -23.9971  -55.4576 O.2       18 UNK        -0.5000 
    104 N         -5.5198  -23.6877  -53.4941 N.am      19 UNK        -0.5000 
    105 CA        -4.6216  -22.6132  -53.9022 C.3       19 UNK         0.1400 
    106 CB        -3.3959  -23.2131  -54.6198 C.3       19 UNK        -0.1800 
    107 C         -4.2065  -21.7953  -52.6688 C.2       19 UNK         0.5000 
    108 O         -4.5451  -22.1676  -51.5425 O.2       19 UNK        -0.5000 
    109 N         -3.4601  -20.7115  -52.9189 N.am      20 UNK        -0.5000 
    110 CA        -2.8920  -19.7749  -51.9461 C.3       20 UNK         0.1400 
    111 CB        -1.8075  -20.4575  -51.0884 C.3       20 UNK        -0.1800 
    112 C         -3.9682  -19.0167  -51.1392 C.2       20 UNK         0.5000 
    113 O         -4.9327  -18.5425  -51.7425 O.2       20 UNK        -0.5000 
    114 N         -3.7544  -18.8561  -49.8214 N.am      21 UNK        -0.5000 
    115 CA        -4.5175  -17.9974  -48.8988 C.3       21 UNK         0.1400 
    116 CB        -5.9766  -18.4781  -48.7505 C.3       21 UNK        -0.1800 
    117 C         -4.4043  -16.5001  -49.2696 C.2       21 UNK         0.5000 
    118 O         -5.3567  -15.7351  -49.1098 O.2       21 UNK        -0.5000 
    119 N         -3.2277  -16.1409  -49.7927 N.am      22 UNK        -0.5000 
    120 CA        -2.8174  -14.8275  -50.3003 C.3       22 UNK         0.1400 
    121 C         -2.9157  -13.6882  -49.2476 C.2       22 UNK         0.5000 
    122 N         -3.2608  -12.4784  -49.6667 N.am      22 UNK        -0.7600 
    123 O         -2.6370  -13.8786  -48.0670 O.2       22 UNK        -0.5000 
    124 C124       -1.3817  -14.8973  -50.8902 C.3       23 UNK        -0.0398 
    125 S125       -1.1574  -16.2867  -52.0603 S.3       23 UNK        -0.2404 
    126 C126        0.6367  -16.2568  -52.3579 C.3       23 UNK        -0.0205 
    127 H127        6.5869   -9.1583  -51.0044 H         1 UNK         0.0600 
    128 H128        4.9017   -8.7573  -50.6557 H         1 UNK         0.0600 
    129 H129        5.2845  -10.0644  -51.7794 H         1 UNK         0.0600 
    130 H130        4.9847  -12.0700  -50.8711 H         1 UNK         0.3000 
    131 H131        6.0995  -12.8930  -48.3871 H         1 UNK         0.0600 
    132 H132        4.0018  -14.3147  -50.1116 H         1 UNK         0.0800 
    133 H133        5.7152  -14.3830  -50.3785 H         1 UNK         0.0800 
    134 H134        2.8339  -15.2382  -47.8904 H         1 UNK         0.0800 
    135 H135        3.4026  -16.7477  -47.2354 H         1 UNK         0.0800 
    136 H136        1.8009  -15.1983  -50.1312 H         1 UNK         0.1150 
    137 H137        1.2722  -18.9085  -52.2130 H         1 UNK         0.1150 
    138 H138        3.7103  -18.7500  -48.6892 H         1 UNK         0.1150 
    139 H139        2.3300  -20.9174  -51.4553 H         1 UNK         0.0800 
    140 H140        3.9299  -20.5284  -50.8833 H         1 UNK         0.0800 
    141 H141        0.6521  -22.1768  -50.2795 H         1 UNK         0.0800 
    142 H142        0.2780  -20.9074  -49.1373 H         1 UNK         0.0800 
    143 H143        1.0360  -23.7672  -48.3405 H         1 UNK         0.0600 
    144 H144        0.5418  -21.4593  -46.7088 H         1 UNK         0.3000 
    145 H145       -0.3070  -23.2474  -43.7242 H         1 UNK         0.0600 
    146 H146        1.5132  -21.7577  -42.8842 H         1 UNK         0.0600 
    147 H147        2.1677  -23.1426  -43.7465 H         1 UNK         0.0600 
    148 H148        2.1296  -21.5670  -44.5247 H         1 UNK         0.0600 
    149 H149       -0.1337  -20.4555  -44.3652 H         1 UNK         0.3000 
    150 H150       -3.4069  -20.0597  -45.6760 H         1 UNK         0.0600 
    151 H151       -3.9642  -20.0459  -43.2818 H         1 UNK         0.0600 
    152 H152       -3.6264  -18.4019  -43.8040 H         1 UNK         0.0600 
    153 H153       -2.4249  -19.3035  -42.8778 H         1 UNK         0.0600 
    154 H154       -1.4350  -18.1522  -44.9598 H         1 UNK         0.3000 
    155 H155        0.7122  -18.5194  -47.7336 H         1 UNK         0.0600 
    156 H156       -1.4909  -16.4214  -47.4247 H         1 UNK         0.0600 
    157 H157       -0.9091  -17.2019  -48.9007 H         1 UNK         0.0600 
    158 H158        0.1134  -16.0565  -48.0496 H         1 UNK         0.0600 
    159 H159        0.2508  -16.6303  -45.5312 H         1 UNK         0.3000 
    160 H160        2.6443  -18.1458  -43.3864 H         1 UNK         0.0600 
    161 H161        2.8596  -15.5547  -45.0151 H         1 UNK         0.0600 
    162 H162        4.0932  -16.8059  -44.8933 H         1 UNK         0.0600 
    163 H163        3.6555  -15.8682  -43.4752 H         1 UNK         0.0600 
    164 H164        1.0620  -15.7254  -43.3158 H         1 UNK         0.3000 
    165 H165       -1.8471  -17.1744  -41.8991 H         1 UNK         0.0600 
    166 H166       -1.3951  -15.6887  -39.9697 H         1 UNK         0.0600 
    167 H167       -0.3546  -17.1008  -39.8908 H         1 UNK         0.0600 
    168 H168        0.3039  -15.5596  -40.4273 H         1 UNK         0.0600 
    169 H169       -1.1325  -14.4643  -42.1476 H         1 UNK         0.3000 
    170 H170       -1.4866  -13.9157  -45.5638 H         1 UNK         0.0600 
    171 H171       -3.9195  -14.2245  -45.1110 H         1 UNK         0.0600 
    172 H172       -3.7561  -13.3880  -43.5697 H         1 UNK         0.0600 
    173 H173       -3.4821  -12.5257  -45.0863 H         1 UNK         0.0600 
    174 H174       -1.6391  -12.0651  -43.4393 H         1 UNK         0.3000 
    175 H175        0.0255  -11.0066  -42.5217 H         1 UNK         0.0600 
    176 H176        2.6832  -12.5295  -42.3768 H         1 UNK         0.0600 
    177 H177        2.2009  -11.1713  -41.3610 H         1 UNK         0.0600 
    178 H178        1.3491  -12.7031  -41.2433 H         1 UNK         0.0600 
    179 H179        2.5185  -10.6287  -43.8942 H         1 UNK         0.3000 
    180 H180        1.5886   -8.0237  -45.5563 H         1 UNK         0.0600 
    181 H181        3.8736   -8.6412  -46.3336 H         1 UNK         0.0600 
    182 H182        3.6352  -10.2963  -45.8059 H         1 UNK         0.0600 
    183 H183        3.6353   -8.9863  -44.6353 H         1 UNK         0.0600 
    184 H184        1.0836   -8.3263  -47.6277 H         1 UNK         0.3000 
    185 H185        2.0354  -11.6695  -46.4945 H         1 UNK         0.0600 
    186 H186       -0.2675  -12.3618  -47.1524 H         1 UNK         0.0600 
    187 H187        0.3150  -12.7955  -48.7550 H         1 UNK         0.0600 
    188 H188        0.8946  -13.6643  -47.3340 H         1 UNK         0.0600 
    189 H189        2.8270  -11.8667  -49.3391 H         1 UNK         0.3000 
    190 H190       -1.8973  -21.8234  -47.6464 H         1 UNK         0.3000 
    191 H191       -3.6385  -23.1972  -49.3936 H         1 UNK         0.0600 
    192 H192       -4.4432  -21.8890  -46.7479 H         1 UNK         0.0600 
    193 H193       -5.4281  -22.1120  -48.1841 H         1 UNK         0.0600 
    194 H194       -4.0856  -20.9802  -48.2126 H         1 UNK         0.0600 
    195 H195       -2.8419  -23.8506  -45.9549 H         1 UNK         0.3000 
    196 H196       -4.5328  -26.0826  -45.5854 H         1 UNK         0.0600 
    197 H197       -3.0168  -26.5916  -43.6671 H         1 UNK         0.0600 
    198 H198       -3.4279  -24.8837  -43.7204 H         1 UNK         0.0600 
    199 H199       -1.8438  -25.4258  -44.2675 H         1 UNK         0.0600 
    200 H200       -1.1496  -25.9223  -46.7814 H         1 UNK         0.3000 
    201 H201       -0.7852  -28.7259  -47.1553 H         1 UNK         0.0600 
    202 H202        1.0962  -27.1112  -47.0238 H         1 UNK         0.0600 
    203 H203        0.5873  -26.3560  -48.5316 H         1 UNK         0.0600 
    204 H204        1.1663  -28.0166  -48.5287 H         1 UNK         0.0600 
    205 H205       -2.0165  -26.1704  -49.3309 H         1 UNK         0.3000 
    206 H206       -2.3911  -27.8930  -51.6184 H         1 UNK         0.0600 
    207 H207       -1.9835  -25.4365  -51.7993 H         1 UNK         0.0600 
    208 H208       -3.5043  -25.8747  -52.5588 H         1 UNK         0.0600 
    209 H209       -3.5061  -25.1088  -50.9753 H         1 UNK         0.0600 
    210 H210       -4.1483  -27.6961  -48.7372 H         1 UNK         0.3000 
    211 H211       -6.1370  -28.2885  -47.9800 H         1 UNK         0.0600 
    212 H212       -6.5023  -29.9101  -50.5564 H         1 UNK         0.0600 
    213 H213       -7.3832  -30.1261  -49.0509 H         1 UNK         0.0600 
    214 H214       -5.6624  -30.4709  -49.1112 H         1 UNK         0.0600 
    215 H215       -5.9479  -25.8297  -49.0612 H         1 UNK         0.3000 
    216 H216       -7.0152  -24.0024  -49.5608 H         1 UNK         0.0600 
    217 H217       -9.4356  -23.7940  -49.2098 H         1 UNK         0.0600 
    218 H218       -8.7631  -24.8459  -47.9768 H         1 UNK         0.0600 
    219 H219       -9.6570  -25.5321  -49.3336 H         1 UNK         0.0600 
    220 H220       -6.5506  -26.1994  -51.7983 H         1 UNK         0.3000 
    221 H221       -8.2856  -25.2886  -53.9415 H         1 UNK         0.0600 
    222 H222       -5.7277  -26.9647  -54.0689 H         1 UNK         0.0600 
    223 H223       -7.3401  -27.6214  -53.7820 H         1 UNK         0.0600 
    224 H224       -6.9657  -26.8352  -55.3084 H         1 UNK         0.0600 
    225 H225       -5.4692  -23.9250  -52.5122 H         1 UNK         0.3000 
    226 H226       -5.1512  -21.9418  -54.5814 H         1 UNK         0.0600 
    227 H227       -3.6923  -23.8092  -55.4830 H         1 UNK         0.0600 
    228 H228       -2.7273  -22.4337  -54.9861 H         1 UNK         0.0600 
    229 H229       -2.8174  -23.8548  -53.9545 H         1 UNK         0.0600 
    230 H230       -3.2749  -20.4809  -53.8846 H         1 UNK         0.3000 
    231 H231       -2.3886  -19.0126  -52.5415 H         1 UNK         0.0600 
    232 H232       -1.0743  -20.9621  -51.7174 H         1 UNK         0.0600 
    233 H233       -2.2344  -21.1997  -50.4161 H         1 UNK         0.0600 
    234 H234       -1.2625  -19.7271  -50.4894 H         1 UNK         0.0600 
    235 H235       -2.9466  -19.3115  -49.4158 H         1 UNK         0.3000 
    236 H236       -4.0399  -18.1030  -47.9233 H         1 UNK         0.0600 
    237 H237       -6.4830  -17.9388  -47.9493 H         1 UNK         0.0600 
    238 H238       -6.5527  -18.3193  -49.6622 H         1 UNK         0.0600 
    239 H239       -6.0249  -19.5384  -48.5060 H         1 UNK         0.0600 
    240 H240       -2.5351  -16.8633  -49.9073 H         1 UNK         0.3000 
    241 H241       -3.5056  -14.5889  -51.1132 H         1 UNK         0.0600 
    242 H242       -3.3129  -11.7295  -48.9945 H         1 UNK         0.3800 
    243 H243       -3.4874  -12.2927  -50.6314 H         1 UNK         0.3800 
    244 H244       -0.6462  -14.9920  -50.0916 H         1 UNK         0.0800 
    245 H245       -1.1441  -13.9692  -51.4127 H         1 UNK         0.0800 
    246 H246        0.9746  -15.2241  -52.4575 H         1 UNK         0.0800 
    247 H247        0.8321  -16.7269  -53.3228 H         1 UNK         0.0800 
@<TRIPOS>BOND
     1    1    2 1    
     2    1  127 1    
     3    1  128 1    
     4    1  129 1    
     5    2    3 2    
     6    2    4 am   BACKBONE|DICT|INTERRES
     7    4    5 1    
     8    4  130 1    
     9    5    6 1    
    10    5   65 1    
    11    5  131 1    
    12    6    7 1    
    13    6  132 1    
    14    6  133 1    
    15    7    8 1    
    16    8    9 1    
    17    8  134 1    
    18    8  135 1    
    19    9   10 ar   
    20    9   14 ar   
    21   10   11 ar   
    22   10  136 1    
    23   11   12 ar   
    24   11  126 1    
    25   12   13 ar   
    26   12  137 1    
    27   13   14 ar   
    28   13   15 1    
    29   14  138 1    
    30   15   16 1    
    31   15  139 1    
    32   15  140 1    
    33   16   17 1    
    34   17   18 1    
    35   17  141 1    
    36   17  142 1    
    37   18   19 1    
    38   18   67 1    
    39   18  143 1    
    40   19   20 am   BACKBONE|DICT|INTERRES
    41   19  144 1    
    42   20   21 2    
    43   20   22 1    
    44   22   23 1    
    45   22   24 1    
    46   22  145 1    
    47   23  146 1    
    48   23  147 1    
    49   23  148 1    
    50   24   25 am   BACKBONE|DICT|INTERRES
    51   24  149 1    
    52   25   26 2    
    53   25   27 1    
    54   27   28 1    
    55   27   29 1    
    56   27  150 1    
    57   28  151 1    
    58   28  152 1    
    59   28  153 1    
    60   29   30 am   BACKBONE|DICT|INTERRES
    61   29  154 1    
    62   30   31 2    
    63   30   32 1    
    64   32   33 1    
    65   32   34 1    
    66   32  155 1    
    67   33  156 1    
    68   33  157 1    
    69   33  158 1    
    70   34   35 am   BACKBONE|DICT|INTERRES
    71   34  159 1    
    72   35   36 2    
    73   35   37 1    
    74   37   38 1    
    75   37   39 1    
    76   37  160 1    
    77   38  161 1    
    78   38  162 1    
    79   38  163 1    
    80   39   40 am   BACKBONE|DICT|INTERRES
    81   39  164 1    
    82   40   41 2    
    83   40   42 1    
    84   42   43 1    
    85   42   44 1    
    86   42  165 1    
    87   43  166 1    
    88   43  167 1    
    89   43  168 1    
    90   44   45 am   BACKBONE|DICT|INTERRES
    91   44  169 1    
    92   45   46 2    
    93   45   47 1    
    94   47   48 1    
    95   47   49 1    
    96   47  170 1    
    97   48  171 1    
    98   48  172 1    
    99   48  173 1    
   100   49   50 am   BACKBONE|DICT|INTERRES
   101   49  174 1    
   102   50   51 2    
   103   50   52 1    
   104   52   53 1    
   105   52   54 1    
   106   52  175 1    
   107   53  176 1    
   108   53  177 1    
   109   53  178 1    
   110   54   55 am   BACKBONE|DICT|INTERRES
   111   54  179 1    
   112   55   56 2    
   113   55   57 1    
   114   57   58 1    
   115   57   59 1    
   116   57  180 1    
   117   58  181 1    
   118   58  182 1    
   119   58  183 1    
   120   59   60 am   BACKBONE|DICT|INTERRES
   121   59  184 1    
   122   60   61 2    
   123   60   62 1    
   124   62   63 1    
   125   62   64 1    
   126   62  185 1    
   127   63  186 1    
   128   63  187 1    
   129   63  188 1    
   130   64   65 am   BACKBONE|DICT|INTERRES
   131   64  189 1    
   132   65   66 2    
   133   67   68 2    
   134   67   69 am   BACKBONE|DICT|INTERRES
   135   69   70 1    
   136   69  190 1    
   137   70   71 1    
   138   70   72 1    
   139   70  191 1    
   140   71  192 1    
   141   71  193 1    
   142   71  194 1    
   143   72   73 2    
   144   72   74 am   BACKBONE|DICT|INTERRES
   145   74   75 1    
   146   74  195 1    
   147   75   76 1    
   148   75   77 1    
   149   75  196 1    
   150   76  197 1    
   151   76  198 1    
   152   76  199 1    
   153   77   78 2    
   154   77   79 am   BACKBONE|DICT|INTERRES
   155   79   80 1    
   156   79  200 1    
   157   80   81 1    
   158   80   82 1    
   159   80  201 1    
   160   81  202 1    
   161   81  203 1    
   162   81  204 1    
   163   82   83 2    
   164   82   84 am   BACKBONE|DICT|INTERRES
   165   84   85 1    
   166   84  205 1    
   167   85   86 1    
   168   85   87 1    
   169   85  206 1    
   170   86  207 1    
   171   86  208 1    
   172   86  209 1    
   173   87   88 2    
   174   87   89 am   BACKBONE|DICT|INTERRES
   175   89   90 1    
   176   89  210 1    
   177   90   91 1    
   178   90   92 1    
   179   90  211 1    
   180   91  212 1    
   181   91  213 1    
   182   91  214 1    
   183   92   93 2    
   184   92   94 am   BACKBONE|DICT|INTERRES
   185   94   95 1    
   186   94  215 1    
   187   95   96 1    
   188   95   97 1    
   189   95  216 1    
   190   96  217 1    
   191   96  218 1    
   192   96  219 1    
   193   97   98 2    
   194   97   99 am   BACKBONE|DICT|INTERRES
   195   99  100 1    
   196   99  220 1    
   197  100  101 1    
   198  100  102 1    
   199  100  221 1    
   200  101  222 1    
   201  101  223 1    
   202  101  224 1    
   203  102  103 2    
   204  102  104 am   BACKBONE|DICT|INTERRES
   205  104  105 1    
   206  104  225 1    
   207  105  106 1    
   208  105  107 1    
   209  105  226 1    
   210  106  227 1    
   211  106  228 1    
   212  106  229 1    
   213  107  108 2    
   214  107  109 am   BACKBONE|DICT|INTERRES
   215  109  110 1    
   216  109  230 1    
   217  110  111 1    
   218  110  112 1    
   219  110  231 1    
   220  111  232 1    
   221  111  233 1    
   222  111  234 1    
   223  112  113 2    
   224  112  114 am   BACKBONE|DICT|INTERRES
   225  114  115 1    
   226  114  235 1    
   227  115  116 1    
   228  115  117 1    
   229  115  236 1    
   230  116  237 1    
   231  116  238 1    
   232  116  239 1    
   233  117  118 2    
   234  117  119 am   BACKBONE|DICT|INTERRES
   235  119  120 1    
   236  119  240 1    
   237  120  121 1    
   238  120  124 1    
   239  120  241 1    
   240  121  122 am   BACKBONE|DICT|INTERRES
   241  121  123 2    
   242  122  242 1    
   243  122  243 1    
   244  124  125 1    
   245  124  244 1    
   246  124  245 1    
   247  125  126 1    
   248  126  246 1    
   249  126  247 1    
@<TRIPOS>SUBSTRUCTURE
     1 UNK         1 GROUP             0       ****    0 ROOT    
