@<TRIPOS>MOLECULE
3R540
247   249    1
SMALL
USER_CHARGES


@<TRIPOS>ATOM
      1 CA         -0.2315  -12.2904  -50.7068 C.3       0 UNK        -0.1800 
      2 C          -0.5225  -13.0827  -49.4417 C.2       0 UNK         0.5000 
      3 O           0.2435  -13.0056  -48.4814 O.2       0 UNK        -0.5000 
      4 N          -1.6349  -13.8295  -49.4280 N.am      1 UNK        -0.5000 
      5 CA         -2.0424  -14.7142  -48.3270 C.3       1 UNK         0.1400 
      6 C6         -3.2322  -15.6236  -48.7339 C.3       23 UNK        -0.0398 
      7 S7         -3.1308  -17.3048  -48.0235 S.3       23 UNK        -0.2404 
      8 C8         -2.9543  -18.3503  -49.5097 C.3       23 UNK        -0.0205 
      9 C9         -1.5066  -18.5757  -49.9257 C.ar      23 UNK        -0.0193 
     10 C10        -0.6948  -17.5025  -50.3008 C.ar      23 UNK        -0.1150 
     11 C11         0.6287  -17.7087  -50.6964 C.ar      23 UNK        -0.0193 
     12 C12         1.1394  -19.0096  -50.7276 C.ar      23 UNK        -0.1150 
     13 C13         0.3291  -20.0985  -50.3941 C.ar      23 UNK        -0.0193 
     14 C14        -0.9880  -19.8729  -49.9817 C.ar      23 UNK        -0.1150 
     15 C15         0.8583  -21.5222  -50.5193 C.3       23 UNK        -0.0205 
     16 S16         2.2366  -21.8950  -49.3835 S.3       23 UNK        -0.2404 
     17 C17         1.5177  -21.5207  -47.7515 C.3       23 UNK        -0.0398 
     18 CA          0.8978  -22.7464  -47.0417 C.3       11 UNK         0.1400 
     19 N           0.8817  -22.5744  -45.5869 N.am      11 UNK        -0.5000 
     20 C           0.4890  -23.5020  -44.7021 C.2       10 UNK         0.5000 
     21 O           0.1630  -24.6489  -45.0077 O.2       10 UNK        -0.5000 
     22 CA          0.3897  -23.0475  -43.2359 C.3       10 UNK         0.1400 
     23 CB          1.7513  -23.1484  -42.5325 C.3       10 UNK        -0.1800 
     24 N          -0.1222  -21.6796  -43.1327 N.am      10 UNK        -0.5000 
     25 C          -1.3965  -21.3376  -43.3737 C.2       9 UNK         0.5000 
     26 O          -2.2811  -22.1525  -43.6392 O.2       9 UNK        -0.5000 
     27 CA         -1.7237  -19.8307  -43.3640 C.3       9 UNK         0.1400 
     28 CB         -1.9774  -19.3416  -41.9312 C.3       9 UNK        -0.1800 
     29 N          -0.6740  -19.0192  -43.9899 N.am      9 UNK        -0.5000 
     30 C          -0.3586  -19.1003  -45.2916 C.2       8 UNK         0.5000 
     31 O          -0.9700  -19.8094  -46.0850 O.2       8 UNK        -0.5000 
     32 CA          0.8716  -18.3323  -45.8029 C.3       8 UNK         0.1400 
     33 CB          0.4676  -17.0429  -46.5217 C.3       8 UNK        -0.1800 
     34 N           1.8767  -18.0562  -44.7809 N.am      8 UNK        -0.5000 
     35 C           2.6120  -18.9975  -44.1729 C.2       7 UNK         0.5000 
     36 O           2.4385  -20.2055  -44.3451 O.2       7 UNK        -0.5000 
     37 CA          3.7133  -18.5132  -43.2165 C.3       7 UNK         0.1400 
     38 CB          4.9824  -18.1575  -44.0057 C.3       7 UNK        -0.1800 
     39 N           3.2735  -17.3382  -42.4655 N.am      7 UNK        -0.5000 
     40 C           2.9983  -17.3237  -41.1550 C.2       6 UNK         0.5000 
     41 O           3.1780  -18.2837  -40.4045 O.2       6 UNK        -0.5000 
     42 CA          2.4010  -16.0214  -40.5796 C.3       6 UNK         0.1400 
     43 CB          3.5144  -15.1210  -40.0234 C.3       6 UNK        -0.1800 
     44 N           1.6013  -15.2522  -41.5379 N.am      6 UNK        -0.5000 
     45 C           0.5053  -15.7030  -42.1638 C.2       5 UNK         0.5000 
     46 O           0.0317  -16.8255  -41.9903 O.2       5 UNK        -0.5000 
     47 CA         -0.1519  -14.7680  -43.1951 C.3       5 UNK         0.1400 
     48 CB         -1.2039  -13.8822  -42.5116 C.3       5 UNK        -0.1800 
     49 N           0.7512  -13.9162  -43.9826 N.am      5 UNK        -0.5000 
     50 C           1.8916  -14.2659  -44.5983 C.2       4 UNK         0.5000 
     51 O           2.4411  -15.3580  -44.4473 O.2       4 UNK        -0.5000 
     52 CA          2.5228  -13.2349  -45.5549 C.3       4 UNK         0.1400 
     53 CB          3.1520  -13.9122  -46.7856 C.3       4 UNK        -0.1800 
     54 N           1.5524  -12.2437  -46.0215 N.am      4 UNK        -0.5000 
     55 C           1.3930  -11.0171  -45.5112 C.2       3 UNK         0.5000 
     56 O           2.0208  -10.5891  -44.5426 O.2       3 UNK        -0.5000 
     57 CA          0.3363  -10.1301  -46.1883 C.3       3 UNK         0.1400 
     58 CB          0.8726   -9.5539  -47.5085 C.3       3 UNK        -0.1800 
     59 N          -0.9048  -10.8596  -46.4468 N.am      3 UNK        -0.5000 
     60 C          -1.8514  -11.0952  -45.5280 C.2       2 UNK         0.5000 
     61 O          -1.7623  -10.7405  -44.3527 O.2       2 UNK        -0.5000 
     62 CA         -3.1174  -11.8365  -45.9989 C.3       2 UNK         0.1400 
     63 CB         -4.2087  -10.8304  -46.3953 C.3       2 UNK        -0.1800 
     64 N          -2.8611  -12.7289  -47.1301 N.am      2 UNK        -0.5000 
     65 C          -2.3308  -13.9543  -47.0138 C.2       1 UNK         0.5000 
     66 O          -2.0496  -14.4719  -45.9347 O.2       1 UNK        -0.5000 
     67 C          -0.5090  -23.0652  -47.5897 C.2       11 UNK         0.5000 
     68 O          -0.6619  -24.0272  -48.3385 O.2       11 UNK        -0.5000 
     69 N          -1.5152  -22.2848  -47.1707 N.am      12 UNK        -0.5000 
     70 CA         -2.9260  -22.4565  -47.5134 C.3       12 UNK         0.1400 
     71 CB         -3.7452  -21.3101  -46.9019 C.3       12 UNK        -0.1800 
     72 C          -3.4929  -23.8112  -47.0645 C.2       12 UNK         0.5000 
     73 O          -4.2190  -24.4414  -47.8317 O.2       12 UNK        -0.5000 
     74 N          -3.1256  -24.2472  -45.8517 N.am      13 UNK        -0.5000 
     75 CA         -3.4900  -25.5527  -45.3024 C.3       13 UNK         0.1400 
     76 CB         -3.1029  -25.6117  -43.8170 C.3       13 UNK        -0.1800 
     77 C          -2.8619  -26.7221  -46.0845 C.2       13 UNK         0.5000 
     78 O          -3.5410  -27.7202  -46.3270 O.2       13 UNK        -0.5000 
     79 N          -1.5909  -26.5698  -46.4821 N.am      14 UNK        -0.5000 
     80 CA         -0.8512  -27.5424  -47.2864 C.3       14 UNK         0.1400 
     81 CB          0.6479  -27.2071  -47.2424 C.3       14 UNK        -0.1800 
     82 C          -1.3546  -27.6190  -48.7402 C.2       14 UNK         0.5000 
     83 O          -1.5281  -28.7194  -49.2657 O.2       14 UNK        -0.5000 
     84 N          -1.5813  -26.4535  -49.3611 N.am      15 UNK        -0.5000 
     85 CA         -2.0610  -26.3165  -50.7374 C.3       15 UNK         0.1400 
     86 CB         -1.8278  -24.8725  -51.2122 C.3       15 UNK        -0.1800 
     87 C          -3.5436  -26.6913  -50.9066 C.2       15 UNK         0.5000 
     88 O          -3.9439  -27.0782  -52.0044 O.2       15 UNK        -0.5000 
     89 N          -4.3365  -26.5228  -49.8390 N.am      16 UNK        -0.5000 
     90 CA         -5.7819  -26.7486  -49.7000 C.3       16 UNK         0.1400 
     91 CB         -6.1585  -28.2081  -50.0175 C.3       16 UNK        -0.1800 
     92 C          -6.6688  -25.7561  -50.4810 C.2       16 UNK         0.5000 
     93 O          -7.7740  -25.4563  -50.0282 O.2       16 UNK        -0.5000 
     94 N          -6.1795  -25.2517  -51.6210 N.am      17 UNK        -0.5000 
     95 CA         -6.8434  -24.2655  -52.4747 C.3       17 UNK         0.1400 
     96 CB         -6.0830  -24.1717  -53.8067 C.3       17 UNK        -0.1800 
     97 C          -6.9607  -22.8713  -51.8290 C.2       17 UNK         0.5000 
     98 O          -7.9138  -22.1518  -52.1303 O.2       17 UNK        -0.5000 
     99 N          -5.9976  -22.5277  -50.9583 N.am      18 UNK        -0.5000 
    100 CA        -5.8609  -21.2559  -50.2425 C.3       18 UNK         0.1400 
    101 CB        -6.9524  -21.1278  -49.1569 C.3       18 UNK        -0.1800 
    102 C         -5.7800  -20.0589  -51.2145 C.2       18 UNK         0.5000 
    103 O         -4.8163  -19.9871  -51.9795 O.2       18 UNK        -0.5000 
    104 N         -6.7756  -19.1594  -51.1702 N.am      19 UNK        -0.5000 
    105 CA        -6.9655  -17.9880  -52.0324 C.3       19 UNK         0.1400 
    106 CB        -7.3666  -18.4357  -53.4562 C.3       19 UNK        -0.1800 
    107 C         -5.7496  -17.0409  -51.9990 C.2       19 UNK         0.5000 
    108 O         -5.5960  -16.2896  -51.0362 O.2       19 UNK        -0.5000 
    109 N         -4.9007  -17.1196  -53.0272 N.am      20 UNK        -0.5000 
    110 CA        -3.6120  -16.4463  -53.1312 C.3       20 UNK         0.1400 
    111 CB        -3.7964  -15.0147  -53.6696 C.3       20 UNK        -0.1800 
    112 C         -2.6770  -17.3139  -53.9887 C.2       20 UNK         0.5000 
    113 O         -2.0474  -16.8108  -54.9205 O.2       20 UNK        -0.5000 
    114 N         -2.6272  -18.6192  -53.6821 N.am      21 UNK        -0.5000 
    115 CA        -1.8583  -19.6550  -54.3845 C.3       21 UNK         0.1400 
    116 CB        -2.4257  -21.0313  -53.9868 C.3       21 UNK        -0.1800 
    117 C         -0.3250  -19.5703  -54.1791 C.2       21 UNK         0.5000 
    118 O          0.3236  -20.5925  -53.9479 O.2       21 UNK        -0.5000 
    119 N          0.2306  -18.3582  -54.2647 N.am      22 UNK        -0.5000 
    120 CA         1.6597  -18.0568  -54.1265 C.3       22 UNK         0.1400 
    121 C          2.5062  -18.5930  -55.3145 C.2       22 UNK         0.5000 
    122 N          3.7425  -19.0055  -55.0674 N.am      22 UNK        -0.7600 
    123 O          2.0720  -18.5972  -56.4647 O.2       22 UNK        -0.5000 
    124 C124        1.9174  -16.5413  -53.9162 C.3       23 UNK        -0.0398 
    125 S125        0.8986  -15.7374  -52.6263 S.3       23 UNK        -0.2404 
    126 C126        1.4908  -16.5170  -51.0884 C.3       23 UNK        -0.0205 
    127 H127        0.7311  -12.5916  -51.1202 H         1 UNK         0.0600 
    128 H128       -0.9931  -12.4501  -51.4703 H         1 UNK         0.0600 
    129 H129       -0.1897  -11.2248  -50.4818 H         1 UNK         0.0600 
    130 H130       -2.2363  -13.8243  -50.2390 H         1 UNK         0.3000 
    131 H131       -1.1754  -15.3459  -48.1324 H         1 UNK         0.0600 
    132 H132       -3.2767  -15.7167  -49.8179 H         1 UNK         0.0800 
    133 H133       -4.1923  -15.1839  -48.4569 H         1 UNK         0.0800 
    134 H134       -3.5087  -17.9260  -50.3436 H         1 UNK         0.0800 
    135 H135       -3.4328  -19.3063  -49.3024 H         1 UNK         0.0800 
    136 H136       -1.0881  -16.4987  -50.2945 H         1 UNK         0.1150 
    137 H137        2.1614  -19.1840  -51.0312 H         1 UNK         0.1150 
    138 H138       -1.6161  -20.7120  -49.7211 H         1 UNK         0.1150 
    139 H139        0.0587  -22.2473  -50.3657 H         1 UNK         0.0800 
    140 H140        1.2034  -21.6750  -51.5427 H         1 UNK         0.0800 
    141 H141        0.8001  -20.7065  -47.8379 H         1 UNK         0.0800 
    142 H142        2.3383  -21.1276  -47.1495 H         1 UNK         0.0800 
    143 H143        1.5309  -23.6142  -47.2391 H         1 UNK         0.0600 
    144 H144        1.1725  -21.6721  -45.2294 H         1 UNK         0.3000 
    145 H145       -0.3054  -23.7165  -42.7240 H         1 UNK         0.0600 
    146 H146        1.6752  -22.8617  -41.4836 H         1 UNK         0.0600 
    147 H147        2.1284  -24.1714  -42.5633 H         1 UNK         0.0600 
    148 H148        2.5007  -22.5102  -43.0010 H         1 UNK         0.0600 
    149 H149        0.5576  -20.9495  -42.9731 H         1 UNK         0.3000 
    150 H150       -2.6432  -19.6900  -43.9363 H         1 UNK         0.0600 
    151 H151       -2.7497  -19.9385  -41.4443 H         1 UNK         0.0600 
    152 H152       -2.3167  -18.3057  -41.9245 H         1 UNK         0.0600 
    153 H153       -1.0770  -19.4033  -41.3186 H         1 UNK         0.0600 
    154 H154       -0.1575  -18.3898  -43.3853 H         1 UNK         0.3000 
    155 H155        1.3580  -18.9599  -46.5481 H         1 UNK         0.0600 
    156 H156       -0.0600  -16.3561  -45.8635 H         1 UNK         0.0600 
    157 H157       -0.1918  -17.2736  -47.3576 H         1 UNK         0.0600 
    158 H158        1.3357  -16.5278  -46.9307 H         1 UNK         0.0600 
    159 H159        2.0880  -17.0749  -44.6126 H         1 UNK         0.3000 
    160 H160        3.9514  -19.3393  -42.5434 H         1 UNK         0.0600 
    161 H161        5.7911  -17.8646  -43.3359 H         1 UNK         0.0600 
    162 H162        4.8087  -17.3340  -44.7000 H         1 UNK         0.0600 
    163 H163        5.3338  -19.0110  -44.5870 H         1 UNK         0.0600 
    164 H164        3.0669  -16.5068  -43.0108 H         1 UNK         0.3000 
    165 H165        1.7433  -16.3024  -39.7546 H         1 UNK         0.0600 
    166 H166        3.1017  -14.2409  -39.5300 H         1 UNK         0.0600 
    167 H167        4.1159  -15.6534  -39.2854 H         1 UNK         0.0600 
    168 H168        4.1871  -14.7810  -40.8120 H         1 UNK         0.0600 
    169 H169        1.9300  -14.3248  -41.7624 H         1 UNK         0.3000 
    170 H170       -0.6755  -15.4137  -43.8994 H         1 UNK         0.0600 
    171 H171       -1.8910  -14.4792  -41.9103 H         1 UNK         0.0600 
    172 H172       -0.7431  -13.1450  -41.8532 H         1 UNK         0.0600 
    173 H173       -1.8045  -13.3479  -43.2473 H         1 UNK         0.0600 
    174 H174        0.4035  -12.9898  -44.1810 H         1 UNK         0.3000 
    175 H175        3.3246  -12.7423  -45.0016 H         1 UNK         0.0600 
    176 H176        2.4051  -14.4405  -47.3786 H         1 UNK         0.0600 
    177 H177        3.6303  -13.1782  -47.4342 H         1 UNK         0.0600 
    178 H178        3.9174  -14.6337  -46.4970 H         1 UNK         0.0600 
    179 H179        0.9958  -12.5151  -46.8299 H         1 UNK         0.3000 
    180 H180        0.1215   -9.2929  -45.5205 H         1 UNK         0.0600 
    181 H181        1.1044  -10.3380  -48.2303 H         1 UNK         0.0600 
    182 H182        1.7866   -8.9828  -47.3410 H         1 UNK         0.0600 
    183 H183        0.1486   -8.8802  -47.9670 H         1 UNK         0.0600 
    184 H184       -1.0260  -11.2346  -47.3757 H         1 UNK         0.3000 
    185 H185       -3.4903  -12.4250  -45.1577 H         1 UNK         0.0600 
    186 H186       -4.4437  -10.1623  -45.5655 H         1 UNK         0.0600 
    187 H187       -3.9002  -10.2107  -47.2382 H         1 UNK         0.0600 
    188 H188       -5.1322  -11.3393  -46.6723 H         1 UNK         0.0600 
    189 H189       -3.0675  -12.3737  -48.0522 H         1 UNK         0.3000 
    190 H190       -1.2955  -21.4662  -46.6044 H         1 UNK         0.3000 
    191 H191       -3.0098  -22.4043  -48.6002 H         1 UNK         0.0600 
    192 H192       -3.6876  -21.3113  -45.8135 H         1 UNK         0.0600 
    193 H193       -4.7980  -21.3895  -47.1713 H         1 UNK         0.0600 
    194 H194       -3.3898  -20.3401  -47.2449 H         1 UNK         0.0600 
    195 H195       -2.5544  -23.6468  -45.2692 H         1 UNK         0.3000 
    196 H196       -4.5753  -25.6523  -45.3725 H         1 UNK         0.0600 
    197 H197       -3.4035  -26.5617  -43.3734 H         1 UNK         0.0600 
    198 H198       -3.5914  -24.8184  -43.2507 H         1 UNK         0.0600 
    199 H199       -2.0272  -25.5091  -43.6744 H         1 UNK         0.0600 
    200 H200       -1.0877  -25.7342  -46.2016 H         1 UNK         0.3000 
    201 H201       -0.9875  -28.5276  -46.8353 H         1 UNK         0.0600 
    202 H202        1.0252  -27.2268  -46.2198 H         1 UNK         0.0600 
    203 H203        0.8538  -26.2184  -47.6535 H         1 UNK         0.0600 
    204 H204        1.2273  -27.9300  -47.8179 H         1 UNK         0.0600 
    205 H205       -1.3524  -25.5873  -48.8749 H         1 UNK         0.3000 
    206 H206       -1.4759  -26.9844  -51.3728 H         1 UNK         0.0600 
    207 H207       -0.7704  -24.6108  -51.1696 H         1 UNK         0.0600 
    208 H208       -2.1533  -24.7395  -52.2448 H         1 UNK         0.0600 
    209 H209       -2.3743  -24.1543  -50.5996 H         1 UNK         0.0600 
    210 H210       -3.9151  -26.0953  -49.0212 H         1 UNK         0.3000 
    211 H211       -5.9953  -26.5808  -48.6431 H         1 UNK         0.0600 
    212 H212       -6.0143  -28.4485  -51.0710 H         1 UNK         0.0600 
    213 H213       -7.2067  -28.3971  -49.7831 H         1 UNK         0.0600 
    214 H214       -5.5625  -28.9050  -49.4280 H         1 UNK         0.0600 
    215 H215       -5.2959  -25.6259  -51.9487 H         1 UNK         0.3000 
    216 H216       -7.8548  -24.6224  -52.6799 H         1 UNK         0.0600 
    217 H217       -6.5648  -23.4643  -54.4830 H         1 UNK         0.0600 
    218 H218       -6.0537  -25.1365  -54.3135 H         1 UNK         0.0600 
    219 H219       -5.0548  -23.8376  -53.6605 H         1 UNK         0.0600 
    220 H220       -5.2616  -23.1998  -50.8003 H         1 UNK         0.3000 
    221 H221       -4.8969  -21.2940  -49.7357 H         1 UNK         0.0600 
    222 H222       -7.9573  -21.1036  -49.5796 H         1 UNK         0.0600 
    223 H223       -6.9109  -21.9713  -48.4674 H         1 UNK         0.0600 
    224 H224       -6.8146  -20.2229  -48.5635 H         1 UNK         0.0600 
    225 H225       -7.5047  -19.3106  -50.4881 H         1 UNK         0.3000 
    226 H226       -7.8031  -17.4256  -51.6171 H         1 UNK         0.0600 
    227 H227       -8.3045  -18.9908  -53.4353 H         1 UNK         0.0600 
    228 H228       -7.5164  -17.5768  -54.1118 H         1 UNK         0.0600 
    229 H229       -6.6184  -19.0819  -53.9165 H         1 UNK         0.0600 
    230 H230       -5.0965  -17.7959  -53.7528 H         1 UNK         0.3000 
    231 H231       -3.1523  -16.3840  -52.1439 H         1 UNK         0.0600 
    232 H232       -4.4355  -14.4244  -53.0129 H         1 UNK         0.0600 
    233 H233       -4.2463  -15.0158  -54.6629 H         1 UNK         0.0600 
    234 H234       -2.8389  -14.4968  -53.7396 H         1 UNK         0.0600 
    235 H235       -3.2008  -18.9561  -52.9160 H         1 UNK         0.3000 
    236 H236       -2.0310  -19.5272  -55.4548 H         1 UNK         0.0600 
    237 H237       -1.9386  -21.8365  -54.5380 H         1 UNK         0.0600 
    238 H238       -2.2866  -21.2274  -52.9226 H         1 UNK         0.0600 
    239 H239       -3.4926  -21.0964  -54.2014 H         1 UNK         0.0600 
    240 H240       -0.3767  -17.5768  -54.4905 H         1 UNK         0.3000 
    241 H241        2.0081  -18.5784  -53.2374 H         1 UNK         0.0600 
    242 H242        4.3072  -19.3407  -55.8327 H         1 UNK         0.3800 
    243 H243        4.1271  -19.0066  -54.1354 H         1 UNK         0.3800 
    244 H244        2.9676  -16.3670  -53.6766 H         1 UNK         0.0800 
    245 H245        1.7307  -16.0019  -54.8466 H         1 UNK         0.0800 
    246 H246        2.5388  -16.8022  -51.1898 H         1 UNK         0.0800 
    247 H247        1.4513  -15.7789  -50.2856 H         1 UNK         0.0800 
@<TRIPOS>BOND
     1    1    2 1    
     2    1  127 1    
     3    1  128 1    
     4    1  129 1    
     5    2    3 2    
     6    2    4 am   BACKBONE|DICT|INTERRES
     7    4    5 1    
     8    4  130 1    
     9    5    6 1    
    10    5   65 1    
    11    5  131 1    
    12    6    7 1    
    13    6  132 1    
    14    6  133 1    
    15    7    8 1    
    16    8    9 1    
    17    8  134 1    
    18    8  135 1    
    19    9   10 ar   
    20    9   14 ar   
    21   10   11 ar   
    22   10  136 1    
    23   11   12 ar   
    24   11  126 1    
    25   12   13 ar   
    26   12  137 1    
    27   13   14 ar   
    28   13   15 1    
    29   14  138 1    
    30   15   16 1    
    31   15  139 1    
    32   15  140 1    
    33   16   17 1    
    34   17   18 1    
    35   17  141 1    
    36   17  142 1    
    37   18   19 1    
    38   18   67 1    
    39   18  143 1    
    40   19   20 am   BACKBONE|DICT|INTERRES
    41   19  144 1    
    42   20   21 2    
    43   20   22 1    
    44   22   23 1    
    45   22   24 1    
    46   22  145 1    
    47   23  146 1    
    48   23  147 1    
    49   23  148 1    
    50   24   25 am   BACKBONE|DICT|INTERRES
    51   24  149 1    
    52   25   26 2    
    53   25   27 1    
    54   27   28 1    
    55   27   29 1    
    56   27  150 1    
    57   28  151 1    
    58   28  152 1    
    59   28  153 1    
    60   29   30 am   BACKBONE|DICT|INTERRES
    61   29  154 1    
    62   30   31 2    
    63   30   32 1    
    64   32   33 1    
    65   32   34 1    
    66   32  155 1    
    67   33  156 1    
    68   33  157 1    
    69   33  158 1    
    70   34   35 am   BACKBONE|DICT|INTERRES
    71   34  159 1    
    72   35   36 2    
    73   35   37 1    
    74   37   38 1    
    75   37   39 1    
    76   37  160 1    
    77   38  161 1    
    78   38  162 1    
    79   38  163 1    
    80   39   40 am   BACKBONE|DICT|INTERRES
    81   39  164 1    
    82   40   41 2    
    83   40   42 1    
    84   42   43 1    
    85   42   44 1    
    86   42  165 1    
    87   43  166 1    
    88   43  167 1    
    89   43  168 1    
    90   44   45 am   BACKBONE|DICT|INTERRES
    91   44  169 1    
    92   45   46 2    
    93   45   47 1    
    94   47   48 1    
    95   47   49 1    
    96   47  170 1    
    97   48  171 1    
    98   48  172 1    
    99   48  173 1    
   100   49   50 am   BACKBONE|DICT|INTERRES
   101   49  174 1    
   102   50   51 2    
   103   50   52 1    
   104   52   53 1    
   105   52   54 1    
   106   52  175 1    
   107   53  176 1    
   108   53  177 1    
   109   53  178 1    
   110   54   55 am   BACKBONE|DICT|INTERRES
   111   54  179 1    
   112   55   56 2    
   113   55   57 1    
   114   57   58 1    
   115   57   59 1    
   116   57  180 1    
   117   58  181 1    
   118   58  182 1    
   119   58  183 1    
   120   59   60 am   BACKBONE|DICT|INTERRES
   121   59  184 1    
   122   60   61 2    
   123   60   62 1    
   124   62   63 1    
   125   62   64 1    
   126   62  185 1    
   127   63  186 1    
   128   63  187 1    
   129   63  188 1    
   130   64   65 am   BACKBONE|DICT|INTERRES
   131   64  189 1    
   132   65   66 2    
   133   67   68 2    
   134   67   69 am   BACKBONE|DICT|INTERRES
   135   69   70 1    
   136   69  190 1    
   137   70   71 1    
   138   70   72 1    
   139   70  191 1    
   140   71  192 1    
   141   71  193 1    
   142   71  194 1    
   143   72   73 2    
   144   72   74 am   BACKBONE|DICT|INTERRES
   145   74   75 1    
   146   74  195 1    
   147   75   76 1    
   148   75   77 1    
   149   75  196 1    
   150   76  197 1    
   151   76  198 1    
   152   76  199 1    
   153   77   78 2    
   154   77   79 am   BACKBONE|DICT|INTERRES
   155   79   80 1    
   156   79  200 1    
   157   80   81 1    
   158   80   82 1    
   159   80  201 1    
   160   81  202 1    
   161   81  203 1    
   162   81  204 1    
   163   82   83 2    
   164   82   84 am   BACKBONE|DICT|INTERRES
   165   84   85 1    
   166   84  205 1    
   167   85   86 1    
   168   85   87 1    
   169   85  206 1    
   170   86  207 1    
   171   86  208 1    
   172   86  209 1    
   173   87   88 2    
   174   87   89 am   BACKBONE|DICT|INTERRES
   175   89   90 1    
   176   89  210 1    
   177   90   91 1    
   178   90   92 1    
   179   90  211 1    
   180   91  212 1    
   181   91  213 1    
   182   91  214 1    
   183   92   93 2    
   184   92   94 am   BACKBONE|DICT|INTERRES
   185   94   95 1    
   186   94  215 1    
   187   95   96 1    
   188   95   97 1    
   189   95  216 1    
   190   96  217 1    
   191   96  218 1    
   192   96  219 1    
   193   97   98 2    
   194   97   99 am   BACKBONE|DICT|INTERRES
   195   99  100 1    
   196   99  220 1    
   197  100  101 1    
   198  100  102 1    
   199  100  221 1    
   200  101  222 1    
   201  101  223 1    
   202  101  224 1    
   203  102  103 2    
   204  102  104 am   BACKBONE|DICT|INTERRES
   205  104  105 1    
   206  104  225 1    
   207  105  106 1    
   208  105  107 1    
   209  105  226 1    
   210  106  227 1    
   211  106  228 1    
   212  106  229 1    
   213  107  108 2    
   214  107  109 am   BACKBONE|DICT|INTERRES
   215  109  110 1    
   216  109  230 1    
   217  110  111 1    
   218  110  112 1    
   219  110  231 1    
   220  111  232 1    
   221  111  233 1    
   222  111  234 1    
   223  112  113 2    
   224  112  114 am   BACKBONE|DICT|INTERRES
   225  114  115 1    
   226  114  235 1    
   227  115  116 1    
   228  115  117 1    
   229  115  236 1    
   230  116  237 1    
   231  116  238 1    
   232  116  239 1    
   233  117  118 2    
   234  117  119 am   BACKBONE|DICT|INTERRES
   235  119  120 1    
   236  119  240 1    
   237  120  121 1    
   238  120  124 1    
   239  120  241 1    
   240  121  122 am   BACKBONE|DICT|INTERRES
   241  121  123 2    
   242  122  242 1    
   243  122  243 1    
   244  124  125 1    
   245  124  244 1    
   246  124  245 1    
   247  125  126 1    
   248  126  246 1    
   249  126  247 1    
@<TRIPOS>SUBSTRUCTURE
     1 UNK         1 GROUP             0       ****    0 ROOT    
