@<TRIPOS>MOLECULE
3R540
247   249    1
SMALL
USER_CHARGES


@<TRIPOS>ATOM
      1 CA          6.1163  -18.5179  -49.1781 C.3       0 UNK        -0.1800 
      2 C           5.7060  -17.0819  -49.4724 C.2       0 UNK         0.5000 
      3 O           6.5658  -16.2041  -49.5468 O.2       0 UNK        -0.5000 
      4 N           4.3971  -16.8485  -49.6352 N.am      1 UNK        -0.5000 
      5 CA          3.7696  -15.5537  -49.9416 C.3       1 UNK         0.1400 
      6 C6          4.1266  -14.9800  -51.3439 C.3       23 UNK        -0.0398 
      7 S7          3.9641  -16.1715  -52.7197 S.3       23 UNK        -0.2404 
      8 C8          2.1821  -16.0906  -53.0974 C.3       23 UNK        -0.0205 
      9 C9          1.3381  -16.7620  -52.0230 C.ar      23 UNK        -0.0193 
     10 C10         0.3817  -16.0319  -51.3109 C.ar      23 UNK        -0.1150 
     11 C11        -0.3800  -16.6436  -50.3089 C.ar      23 UNK        -0.0193 
     12 C12        -0.1756  -17.9972  -50.0220 C.ar      23 UNK        -0.1150 
     13 C13         0.7892  -18.7328  -50.7165 C.ar      23 UNK        -0.0193 
     14 C14         1.5302  -18.1136  -51.7247 C.ar      23 UNK        -0.1150 
     15 C15         1.0303  -20.1985  -50.3960 C.3       23 UNK        -0.0205 
     16 S16         2.3355  -20.4342  -49.1420 S.3       23 UNK        -0.2404 
     17 C17         1.4243  -20.2224  -47.5716 C.3       23 UNK        -0.0398 
     18 CA          0.9116  -21.5569  -46.9683 C.3       11 UNK         0.1400 
     19 N           0.5242  -21.4161  -45.5612 N.am      11 UNK        -0.5000 
     20 C           0.1246  -22.4207  -44.7658 C.2       10 UNK         0.5000 
     21 O           0.1115  -23.6026  -45.1070 O.2       10 UNK        -0.5000 
     22 CA         -0.4119  -22.0388  -43.3749 C.3       10 UNK         0.1400 
     23 CB          0.7387  -21.7859  -42.3901 C.3       10 UNK        -0.1800 
     24 N          -1.3033  -20.8784  -43.4200 N.am      10 UNK        -0.5000 
     25 C          -2.4742  -20.8532  -44.0742 C.2       9 UNK         0.5000 
     26 O          -2.9505  -21.8278  -44.6555 O.2       9 UNK        -0.5000 
     27 CA         -3.2208  -19.5084  -44.1273 C.3       9 UNK         0.1400 
     28 CB         -4.0244  -19.2803  -42.8388 C.3       9 UNK        -0.1800 
     29 N          -2.3297  -18.3725  -44.3658 N.am      9 UNK        -0.5000 
     30 C          -1.5985  -18.1971  -45.4770 C.2       8 UNK         0.5000 
     31 O          -1.6221  -18.9612  -46.4418 O.2       8 UNK        -0.5000 
     32 CA         -0.6244  -17.0045  -45.4813 C.3       8 UNK         0.1400 
     33 CB         -1.3696  -15.6828  -45.7191 C.3       8 UNK        -0.1800 
     34 N           0.1439  -16.9153  -44.2393 N.am      8 UNK        -0.5000 
     35 C           0.9817  -17.8585  -43.7868 C.2       7 UNK         0.5000 
     36 O           1.2701  -18.8741  -44.4189 O.2       7 UNK        -0.5000 
     37 CA          1.5457  -17.6653  -42.3680 C.3       7 UNK         0.1400 
     38 CB          2.7847  -16.7623  -42.3721 C.3       7 UNK        -0.1800 
     39 N           0.5480  -17.1146  -41.4528 N.am      7 UNK        -0.5000 
     40 C          -0.4932  -17.8054  -40.9706 C.2       6 UNK         0.5000 
     41 O          -0.7109  -18.9870  -41.2358 O.2       6 UNK        -0.5000 
     42 CA         -1.4724  -17.0335  -40.0683 C.3       6 UNK         0.1400 
     43 CB         -0.9496  -16.9750  -38.6253 C.3       6 UNK        -0.1800 
     44 N          -1.7260  -15.6746  -40.5495 N.am      6 UNK        -0.5000 
     45 C          -2.3764  -15.3898  -41.6859 C.2       5 UNK         0.5000 
     46 O          -2.8447  -16.2438  -42.4374 O.2       5 UNK        -0.5000 
     47 CA         -2.4867  -13.9029  -42.0677 C.3       5 UNK         0.1400 
     48 CB         -3.6919  -13.2553  -41.3696 C.3       5 UNK        -0.1800 
     49 N          -1.2798  -13.1222  -41.7790 N.am      5 UNK        -0.5000 
     50 C          -0.0705  -13.3598  -42.3035 C.2       4 UNK         0.5000 
     51 O           0.1941  -14.3342  -43.0100 O.2       4 UNK        -0.5000 
     52 CA          1.0410  -12.3545  -41.9621 C.3       4 UNK         0.1400 
     53 CB          2.0168  -12.9507  -40.9361 C.3       4 UNK        -0.1800 
     54 N           1.7779  -11.9696  -43.1648 N.am      4 UNK        -0.5000 
     55 C           1.2913  -11.1785  -44.1317 C.2       3 UNK         0.5000 
     56 O           0.1870  -10.6350  -44.0760 O.2       3 UNK        -0.5000 
     57 CA          2.1889  -10.9340  -45.3598 C.3       3 UNK         0.1400 
     58 CB          2.9607   -9.6142  -45.2036 C.3       3 UNK        -0.1800 
     59 N           3.1449  -12.0169  -45.6019 N.am      3 UNK        -0.5000 
     60 C           2.8347  -13.1783  -46.1912 C.2       2 UNK         0.5000 
     61 O           1.7026  -13.4723  -46.5817 O.2       2 UNK        -0.5000 
     62 CA          3.9891  -14.1869  -46.3457 C.3       2 UNK         0.1400 
     63 CB          4.0321  -15.1346  -45.1411 C.3       2 UNK        -0.1800 
     64 N           3.8714  -14.9907  -47.5603 N.am      2 UNK        -0.5000 
     65 C           3.9682  -14.5193  -48.8104 C.2       1 UNK         0.5000 
     66 O           4.2140  -13.3405  -49.0761 O.2       1 UNK        -0.5000 
     67 C          -0.2389  -22.1529  -47.8039 C.2       11 UNK         0.5000 
     68 O          -0.0287  -23.1427  -48.5053 O.2       11 UNK        -0.5000 
     69 N          -1.4344  -21.5553  -47.6912 N.am      12 UNK        -0.5000 
     70 CA         -2.6540  -21.9846  -48.3746 C.3       12 UNK         0.1400 
     71 CB         -3.7980  -21.0152  -48.0481 C.3       12 UNK        -0.1800 
     72 C          -3.0499  -23.4354  -48.0536 C.2       12 UNK         0.5000 
     73 O          -3.3677  -24.1904  -48.9714 O.2       12 UNK        -0.5000 
     74 N          -2.9804  -23.8080  -46.7690 N.am      13 UNK        -0.5000 
     75 CA         -3.2347  -25.1630  -46.2840 C.3       13 UNK         0.1400 
     76 CB         -3.3011  -25.1516  -44.7492 C.3       13 UNK        -0.1800 
     77 C          -2.1938  -26.1854  -46.7767 C.2       13 UNK         0.5000 
     78 O          -2.5747  -27.2854  -47.1782 O.2       13 UNK        -0.5000 
     79 N          -0.9073  -25.8100  -46.7400 N.am      14 UNK        -0.5000 
     80 CA          0.2131  -26.6557  -47.1533 C.3       14 UNK         0.1400 
     81 CB          1.5345  -26.0365  -46.6722 C.3       14 UNK        -0.1800 
     82 C           0.2523  -26.9026  -48.6708 C.2       14 UNK         0.5000 
     83 O           0.4385  -28.0442  -49.0946 O.2       14 UNK        -0.5000 
     84 N           0.0810  -25.8340  -49.4598 N.am      15 UNK        -0.5000 
     85 CA          0.0999  -25.8854  -50.9222 C.3       15 UNK         0.1400 
     86 CB          0.3850  -24.4798  -51.4685 C.3       15 UNK        -0.1800 
     87 C          -1.2051  -26.4365  -51.5236 C.2       15 UNK         0.5000 
     88 O          -1.1768  -26.9575  -52.6393 O.2       15 UNK        -0.5000 
     89 N          -2.3215  -26.2856  -50.7956 N.am      16 UNK        -0.5000 
     90 CA         -3.7033  -26.6639  -51.1185 C.3       16 UNK         0.1400 
     91 CB         -3.8389  -28.1769  -51.3731 C.3       16 UNK        -0.1800 
     92 C          -4.3221  -25.8372  -52.2614 C.2       16 UNK         0.5000 
     93 O          -5.4106  -25.2878  -52.0940 O.2       16 UNK        -0.5000 
     94 N          -3.6143  -25.7322  -53.3928 N.am      17 UNK        -0.5000 
     95 CA         -4.0067  -24.9504  -54.5668 C.3       17 UNK         0.1400 
     96 CB         -3.0532  -25.2716  -55.7269 C.3       17 UNK        -0.1800 
     97 C          -4.0349  -23.4355  -54.2929 C.2       17 UNK         0.5000 
     98 O          -4.8867  -22.7326  -54.8348 O.2       17 UNK        -0.5000 
     99 N          -3.1376  -22.9662  -53.4148 N.am      18 UNK        -0.5000 
    100 CA        -3.0189  -21.5658  -52.9996 C.3       18 UNK         0.1400 
    101 CB        -1.6140  -21.3270  -52.4269 C.3       18 UNK        -0.1800 
    102 C         -4.1166  -21.1021  -52.0173 C.2       18 UNK         0.5000 
    103 O         -4.0569  -19.9660  -51.5532 O.2       18 UNK        -0.5000 
    104 N         -5.0948  -21.9664  -51.7110 N.am      19 UNK        -0.5000 
    105 CA        -6.3267  -21.5909  -51.0191 C.3       19 UNK         0.1400 
    106 CB        -6.9142  -22.8274  -50.3238 C.3       19 UNK        -0.1800 
    107 C         -7.3588  -20.9559  -51.9724 C.2       19 UNK         0.5000 
    108 O         -8.2278  -20.2165  -51.5066 O.2       19 UNK        -0.5000 
    109 N         -7.2532  -21.2317  -53.2825 N.am      20 UNK        -0.5000 
    110 CA        -8.0848  -20.6437  -54.3336 C.3       20 UNK         0.1400 
    111 CB        -8.0593  -21.5599  -55.5698 C.3       20 UNK        -0.1800 
    112 C         -7.5994  -19.2142  -54.6417 C.2       20 UNK         0.5000 
    113 O         -6.8517  -19.0107  -55.6000 O.2       20 UNK        -0.5000 
    114 N         -8.0114  -18.2787  -53.7741 N.am      21 UNK        -0.5000 
    115 CA        -7.5112  -16.9136  -53.5764 C.3       21 UNK         0.1400 
    116 CB        -7.4334  -16.0979  -54.8821 C.3       21 UNK        -0.1800 
    117 C         -6.1691  -16.9364  -52.8202 C.2       21 UNK         0.5000 
    118 O         -5.2631  -17.6801  -53.1940 O.2       21 UNK        -0.5000 
    119 N         -6.0841  -16.1224  -51.7608 N.am      22 UNK        -0.5000 
    120 CA        -5.0247  -16.1098  -50.7312 C.3       22 UNK         0.1400 
    121 C         -5.2187  -17.1674  -49.5995 C.2       22 UNK         0.5000 
    122 N         -6.2958  -17.9446  -49.5854 N.am      22 UNK        -0.7600 
    123 O         -4.4147  -17.2470  -48.6772 O.2       22 UNK        -0.5000 
    124 C124       -3.5698  -16.0721  -51.2977 C.3       23 UNK        -0.0398 
    125 S125       -2.5171  -14.8209  -50.4851 S.3       23 UNK        -0.2404 
    126 C126       -1.3806  -15.8403  -49.4868 C.3       23 UNK        -0.0205 
    127 H127        6.7878  -18.8825  -49.9554 H         1 UNK         0.0600 
    128 H128        5.2554  -19.1852  -49.1332 H         1 UNK         0.0600 
    129 H129        6.6376  -18.5712  -48.2223 H         1 UNK         0.0600 
    130 H130        3.7559  -17.6276  -49.5793 H         1 UNK         0.3000 
    131 H131        2.7000  -15.7498  -49.9306 H         1 UNK         0.0600 
    132 H132        3.5068  -14.1100  -51.5669 H         1 UNK         0.0800 
    133 H133        5.1573  -14.6217  -51.3487 H         1 UNK         0.0800 
    134 H134        2.0018  -16.5949  -54.0477 H         1 UNK         0.0800 
    135 H135        1.8864  -15.0502  -53.2409 H         1 UNK         0.0800 
    136 H136        0.2387  -14.9820  -51.5247 H         1 UNK         0.1150 
    137 H137       -0.7603  -18.4748  -49.2478 H         1 UNK         0.1150 
    138 H138        2.2753  -18.6792  -52.2668 H         1 UNK         0.1150 
    139 H139        0.0994  -20.6633  -50.0779 H         1 UNK         0.0800 
    140 H140        1.3270  -20.7258  -51.3040 H         1 UNK         0.0800 
    141 H141        0.6179  -19.5019  -47.6979 H         1 UNK         0.0800 
    142 H142        2.1210  -19.7574  -46.8731 H         1 UNK         0.0800 
    143 H143        1.7350  -22.2740  -46.9900 H         1 UNK         0.0600 
    144 H144        0.5484  -20.4750  -45.1775 H         1 UNK         0.3000 
    145 H145       -0.9924  -22.8849  -43.0015 H         1 UNK         0.0600 
    146 H146        1.3582  -20.9444  -42.6982 H         1 UNK         0.0600 
    147 H147        0.3622  -21.5767  -41.3888 H         1 UNK         0.0600 
    148 H148        1.3871  -22.6599  -42.3175 H         1 UNK         0.0600 
    149 H149       -1.0078  -20.0543  -42.9068 H         1 UNK         0.3000 
    150 H150       -3.9257  -19.5534  -44.9595 H         1 UNK         0.0600 
    151 H151       -4.7028  -20.1128  -42.6487 H         1 UNK         0.0600 
    152 H152       -4.6304  -18.3768  -42.9081 H         1 UNK         0.0600 
    153 H153       -3.3740  -19.1805  -41.9696 H         1 UNK         0.0600 
    154 H154       -2.2876  -17.6700  -43.6330 H         1 UNK         0.3000 
    155 H155        0.0795  -17.1516  -46.3031 H         1 UNK         0.0600 
    156 H156       -2.0250  -15.4349  -44.8856 H         1 UNK         0.0600 
    157 H157       -0.6712  -14.8561  -45.8512 H         1 UNK         0.0600 
    158 H158       -1.9919  -15.7345  -46.6119 H         1 UNK         0.0600 
    159 H159        0.0155  -16.0716  -43.6857 H         1 UNK         0.3000 
    160 H160        1.8494  -18.6453  -41.9946 H         1 UNK         0.0600 
    161 H161        3.5587  -17.1664  -43.0254 H         1 UNK         0.0600 
    162 H162        2.5438  -15.7582  -42.7191 H         1 UNK         0.0600 
    163 H163        3.2145  -16.6775  -41.3740 H         1 UNK         0.0600 
    164 H164        0.6209  -16.1317  -41.2370 H         1 UNK         0.3000 
    165 H165       -2.4201  -17.5763  -40.0657 H         1 UNK         0.0600 
    166 H166       -1.6729  -16.4985  -37.9633 H         1 UNK         0.0600 
    167 H167       -0.7661  -17.9776  -38.2364 H         1 UNK         0.0600 
    168 H168       -0.0135  -16.4195  -38.5561 H         1 UNK         0.0600 
    169 H169       -1.3700  -14.9128  -39.9913 H         1 UNK         0.3000 
    170 H170       -2.6559  -13.8543  -43.1451 H         1 UNK         0.0600 
    171 H171       -4.6091  -13.8063  -41.5829 H         1 UNK         0.0600 
    172 H172       -3.5669  -13.2326  -40.2863 H         1 UNK         0.0600 
    173 H173       -3.8433  -12.2316  -41.7123 H         1 UNK         0.0600 
    174 H174       -1.4067  -12.3047  -41.1999 H         1 UNK         0.3000 
    175 H175        0.5928  -11.4579  -41.5283 H         1 UNK         0.0600 
    176 H176        2.5303  -13.8292  -41.3265 H         1 UNK         0.0600 
    177 H177        2.7751  -12.2229  -40.6467 H         1 UNK         0.0600 
    178 H178        1.4939  -13.2522  -40.0275 H         1 UNK         0.0600 
    179 H179        2.6764  -12.4044  -43.3064 H         1 UNK         0.3000 
    180 H180        1.5361  -10.8416  -46.2307 H         1 UNK         0.0600 
    181 H181        3.6411   -9.6430  -44.3515 H         1 UNK         0.0600 
    182 H182        2.2774   -8.7779  -45.0496 H         1 UNK         0.0600 
    183 H183        3.5471   -9.3922  -46.0954 H         1 UNK         0.0600 
    184 H184        4.0978  -11.8488  -45.3125 H         1 UNK         0.3000 
    185 H185        4.9325  -13.6391  -46.3946 H         1 UNK         0.0600 
    186 H186        4.8744  -15.8236  -45.2071 H         1 UNK         0.0600 
    187 H187        4.1389  -14.5798  -44.2082 H         1 UNK         0.0600 
    188 H188        3.1177  -15.7256  -45.0753 H         1 UNK         0.0600 
    189 H189        3.6601  -15.9689  -47.4339 H         1 UNK         0.3000 
    190 H190       -1.5154  -20.7259  -47.1072 H         1 UNK         0.3000 
    191 H191       -2.4669  -21.9302  -49.4466 H         1 UNK         0.0600 
    192 H192       -3.9610  -20.9277  -46.9750 H         1 UNK         0.0600 
    193 H193       -4.7337  -21.3532  -48.4903 H         1 UNK         0.0600 
    194 H194       -3.5918  -20.0181  -48.4388 H         1 UNK         0.0600 
    195 H195       -2.7531  -23.1076  -46.0676 H         1 UNK         0.3000 
    196 H196       -4.2105  -25.4746  -46.6627 H         1 UNK         0.0600 
    197 H197       -3.5033  -26.1495  -44.3582 H         1 UNK         0.0600 
    198 H198       -4.0962  -24.4954  -44.3948 H         1 UNK         0.0600 
    199 H199       -2.3645  -24.8079  -44.3086 H         1 UNK         0.0600 
    200 H200       -0.6688  -24.8987  -46.3589 H         1 UNK         0.3000 
    201 H201        0.1004  -27.6251  -46.6633 H         1 UNK         0.0600 
    202 H202        1.5585  -25.9572  -45.5853 H         1 UNK         0.0600 
    203 H203        1.6843  -25.0373  -47.0833 H         1 UNK         0.0600 
    204 H204        2.3865  -26.6478  -46.9721 H         1 UNK         0.0600 
    205 H205       -0.0366  -24.9153  -49.0353 H         1 UNK         0.3000 
    206 H206        0.9127  -26.5420  -51.2399 H         1 UNK         0.0600 
    207 H207        1.3450  -24.1047  -51.1132 H         1 UNK         0.0600 
    208 H208        0.4142  -24.4753  -52.5588 H         1 UNK         0.0600 
    209 H209       -0.3830  -23.7765  -51.1531 H         1 UNK         0.0600 
    210 H210       -2.2371  -25.7734  -49.9253 H         1 UNK         0.3000 
    211 H211       -4.2827  -26.4374  -50.2220 H         1 UNK         0.0600 
    212 H212       -3.3096  -28.4934  -52.2720 H         1 UNK         0.0600 
    213 H213       -4.8858  -28.4552  -51.4989 H         1 UNK         0.0600 
    214 H214       -3.4480  -28.7519  -50.5334 H         1 UNK         0.0600 
    215 H215       -2.7193  -26.2135  -53.4280 H         1 UNK         0.3000 
    216 H216       -5.0150  -25.2547  -54.8551 H         1 UNK         0.0600 
    217 H217       -3.3282  -24.7158  -56.6243 H         1 UNK         0.0600 
    218 H218       -3.0838  -26.3317  -55.9796 H         1 UNK         0.0600 
    219 H219       -2.0215  -25.0148  -55.4831 H         1 UNK         0.0600 
    220 H220       -2.4970  -23.6213  -52.9930 H         1 UNK         0.3000 
    221 H221       -3.1193  -20.9421  -53.8905 H         1 UNK         0.0600 
    222 H222       -1.4705  -21.8623  -51.4914 H         1 UNK         0.0600 
    223 H223       -0.8381  -21.6450  -53.1234 H         1 UNK         0.0600 
    224 H224       -1.4513  -20.2674  -52.2248 H         1 UNK         0.0600 
    225 H225       -5.0558  -22.9049  -52.0855 H         1 UNK         0.3000 
    226 H226       -6.0974  -20.8482  -50.2537 H         1 UNK         0.0600 
    227 H227       -6.1874  -23.2875  -49.6535 H         1 UNK         0.0600 
    228 H228       -7.7865  -22.5599  -49.7263 H         1 UNK         0.0600 
    229 H229       -7.2302  -23.5820  -51.0447 H         1 UNK         0.0600 
    230 H230       -6.4773  -21.7987  -53.6017 H         1 UNK         0.3000 
    231 H231       -9.1188  -20.5896  -53.9860 H         1 UNK         0.0600 
    232 H232       -8.6953  -21.1610  -56.3609 H         1 UNK         0.0600 
    233 H233       -8.4262  -22.5576  -55.3285 H         1 UNK         0.0600 
    234 H234       -7.0544  -21.6640  -55.9798 H         1 UNK         0.0600 
    235 H235       -8.5740  -18.6235  -53.0052 H         1 UNK         0.3000 
    236 H236       -8.2524  -16.4295  -52.9384 H         1 UNK         0.0600 
    237 H237       -7.2469  -15.0455  -54.6656 H         1 UNK         0.0600 
    238 H238       -8.3664  -16.1556  -55.4425 H         1 UNK         0.0600 
    239 H239       -6.6262  -16.4373  -55.5315 H         1 UNK         0.0600 
    240 H240       -6.8752  -15.5298  -51.5509 H         1 UNK         0.3000 
    241 H241       -5.2001  -15.1609  -50.2233 H         1 UNK         0.0600 
    242 H242       -6.9803  -17.9031  -50.3216 H         1 UNK         0.3800 
    243 H243       -6.4136  -18.5939  -48.8255 H         1 UNK         0.3800 
    244 H244       -3.1002  -17.0573  -51.2611 H         1 UNK         0.0800 
    245 H245       -3.5788  -15.7980  -52.3528 H         1 UNK         0.0800 
    246 H246       -0.8218  -15.1823  -48.8200 H         1 UNK         0.0800 
    247 H247       -1.9649  -16.5007  -48.8467 H         1 UNK         0.0800 
@<TRIPOS>BOND
     1    1    2 1    
     2    1  127 1    
     3    1  128 1    
     4    1  129 1    
     5    2    3 2    
     6    2    4 am   BACKBONE|DICT|INTERRES
     7    4    5 1    
     8    4  130 1    
     9    5    6 1    
    10    5   65 1    
    11    5  131 1    
    12    6    7 1    
    13    6  132 1    
    14    6  133 1    
    15    7    8 1    
    16    8    9 1    
    17    8  134 1    
    18    8  135 1    
    19    9   10 ar   
    20    9   14 ar   
    21   10   11 ar   
    22   10  136 1    
    23   11   12 ar   
    24   11  126 1    
    25   12   13 ar   
    26   12  137 1    
    27   13   14 ar   
    28   13   15 1    
    29   14  138 1    
    30   15   16 1    
    31   15  139 1    
    32   15  140 1    
    33   16   17 1    
    34   17   18 1    
    35   17  141 1    
    36   17  142 1    
    37   18   19 1    
    38   18   67 1    
    39   18  143 1    
    40   19   20 am   BACKBONE|DICT|INTERRES
    41   19  144 1    
    42   20   21 2    
    43   20   22 1    
    44   22   23 1    
    45   22   24 1    
    46   22  145 1    
    47   23  146 1    
    48   23  147 1    
    49   23  148 1    
    50   24   25 am   BACKBONE|DICT|INTERRES
    51   24  149 1    
    52   25   26 2    
    53   25   27 1    
    54   27   28 1    
    55   27   29 1    
    56   27  150 1    
    57   28  151 1    
    58   28  152 1    
    59   28  153 1    
    60   29   30 am   BACKBONE|DICT|INTERRES
    61   29  154 1    
    62   30   31 2    
    63   30   32 1    
    64   32   33 1    
    65   32   34 1    
    66   32  155 1    
    67   33  156 1    
    68   33  157 1    
    69   33  158 1    
    70   34   35 am   BACKBONE|DICT|INTERRES
    71   34  159 1    
    72   35   36 2    
    73   35   37 1    
    74   37   38 1    
    75   37   39 1    
    76   37  160 1    
    77   38  161 1    
    78   38  162 1    
    79   38  163 1    
    80   39   40 am   BACKBONE|DICT|INTERRES
    81   39  164 1    
    82   40   41 2    
    83   40   42 1    
    84   42   43 1    
    85   42   44 1    
    86   42  165 1    
    87   43  166 1    
    88   43  167 1    
    89   43  168 1    
    90   44   45 am   BACKBONE|DICT|INTERRES
    91   44  169 1    
    92   45   46 2    
    93   45   47 1    
    94   47   48 1    
    95   47   49 1    
    96   47  170 1    
    97   48  171 1    
    98   48  172 1    
    99   48  173 1    
   100   49   50 am   BACKBONE|DICT|INTERRES
   101   49  174 1    
   102   50   51 2    
   103   50   52 1    
   104   52   53 1    
   105   52   54 1    
   106   52  175 1    
   107   53  176 1    
   108   53  177 1    
   109   53  178 1    
   110   54   55 am   BACKBONE|DICT|INTERRES
   111   54  179 1    
   112   55   56 2    
   113   55   57 1    
   114   57   58 1    
   115   57   59 1    
   116   57  180 1    
   117   58  181 1    
   118   58  182 1    
   119   58  183 1    
   120   59   60 am   BACKBONE|DICT|INTERRES
   121   59  184 1    
   122   60   61 2    
   123   60   62 1    
   124   62   63 1    
   125   62   64 1    
   126   62  185 1    
   127   63  186 1    
   128   63  187 1    
   129   63  188 1    
   130   64   65 am   BACKBONE|DICT|INTERRES
   131   64  189 1    
   132   65   66 2    
   133   67   68 2    
   134   67   69 am   BACKBONE|DICT|INTERRES
   135   69   70 1    
   136   69  190 1    
   137   70   71 1    
   138   70   72 1    
   139   70  191 1    
   140   71  192 1    
   141   71  193 1    
   142   71  194 1    
   143   72   73 2    
   144   72   74 am   BACKBONE|DICT|INTERRES
   145   74   75 1    
   146   74  195 1    
   147   75   76 1    
   148   75   77 1    
   149   75  196 1    
   150   76  197 1    
   151   76  198 1    
   152   76  199 1    
   153   77   78 2    
   154   77   79 am   BACKBONE|DICT|INTERRES
   155   79   80 1    
   156   79  200 1    
   157   80   81 1    
   158   80   82 1    
   159   80  201 1    
   160   81  202 1    
   161   81  203 1    
   162   81  204 1    
   163   82   83 2    
   164   82   84 am   BACKBONE|DICT|INTERRES
   165   84   85 1    
   166   84  205 1    
   167   85   86 1    
   168   85   87 1    
   169   85  206 1    
   170   86  207 1    
   171   86  208 1    
   172   86  209 1    
   173   87   88 2    
   174   87   89 am   BACKBONE|DICT|INTERRES
   175   89   90 1    
   176   89  210 1    
   177   90   91 1    
   178   90   92 1    
   179   90  211 1    
   180   91  212 1    
   181   91  213 1    
   182   91  214 1    
   183   92   93 2    
   184   92   94 am   BACKBONE|DICT|INTERRES
   185   94   95 1    
   186   94  215 1    
   187   95   96 1    
   188   95   97 1    
   189   95  216 1    
   190   96  217 1    
   191   96  218 1    
   192   96  219 1    
   193   97   98 2    
   194   97   99 am   BACKBONE|DICT|INTERRES
   195   99  100 1    
   196   99  220 1    
   197  100  101 1    
   198  100  102 1    
   199  100  221 1    
   200  101  222 1    
   201  101  223 1    
   202  101  224 1    
   203  102  103 2    
   204  102  104 am   BACKBONE|DICT|INTERRES
   205  104  105 1    
   206  104  225 1    
   207  105  106 1    
   208  105  107 1    
   209  105  226 1    
   210  106  227 1    
   211  106  228 1    
   212  106  229 1    
   213  107  108 2    
   214  107  109 am   BACKBONE|DICT|INTERRES
   215  109  110 1    
   216  109  230 1    
   217  110  111 1    
   218  110  112 1    
   219  110  231 1    
   220  111  232 1    
   221  111  233 1    
   222  111  234 1    
   223  112  113 2    
   224  112  114 am   BACKBONE|DICT|INTERRES
   225  114  115 1    
   226  114  235 1    
   227  115  116 1    
   228  115  117 1    
   229  115  236 1    
   230  116  237 1    
   231  116  238 1    
   232  116  239 1    
   233  117  118 2    
   234  117  119 am   BACKBONE|DICT|INTERRES
   235  119  120 1    
   236  119  240 1    
   237  120  121 1    
   238  120  124 1    
   239  120  241 1    
   240  121  122 am   BACKBONE|DICT|INTERRES
   241  121  123 2    
   242  122  242 1    
   243  122  243 1    
   244  124  125 1    
   245  124  244 1    
   246  124  245 1    
   247  125  126 1    
   248  126  246 1    
   249  126  247 1    
@<TRIPOS>SUBSTRUCTURE
     1 UNK         1 GROUP             0       ****    0 ROOT    
