@<TRIPOS>MOLECULE
3R540
247   249    1
SMALL
USER_CHARGES


@<TRIPOS>ATOM
      1 CA          5.8648  -11.1427  -46.9705 C.3       0 UNK        -0.1800 
      2 C           5.2478  -12.5286  -46.8610 C.2       0 UNK         0.5000 
      3 O           5.0015  -13.0097  -45.7547 O.2       0 UNK        -0.5000 
      4 N           4.9742  -13.1567  -48.0127 N.am      1 UNK        -0.5000 
      5 CA          4.4793  -14.5353  -48.1636 C.3       1 UNK         0.1400 
      6 C6          4.5140  -14.9724  -49.6524 C.3       23 UNK        -0.0398 
      7 S7          4.7583  -16.7701  -49.8813 S.3       23 UNK        -0.2404 
      8 C8          4.0845  -17.0267  -51.5565 C.3       23 UNK        -0.0205 
      9 C9          2.6590  -17.5669  -51.5440 C.ar      23 UNK        -0.0193 
     10 C10         2.3782  -18.8333  -52.0700 C.ar      23 UNK        -0.1150 
     11 C11         1.0657  -19.3163  -52.0994 C.ar      23 UNK        -0.0193 
     12 C12         0.0304  -18.5292  -51.5909 C.ar      23 UNK        -0.1150 
     13 C13         0.3004  -17.2728  -51.0438 C.ar      23 UNK        -0.0193 
     14 C14         1.6122  -16.7939  -51.0341 C.ar      23 UNK        -0.1150 
     15 C15        -0.8179  -16.4277  -50.4541 C.3       23 UNK        -0.0205 
     16 S16        -1.7097  -17.2656  -49.1037 S.3       23 UNK        -0.2404 
     17 C17        -0.3645  -17.9290  -48.0426 C.3       23 UNK        -0.0398 
     18 CA         -0.1506  -19.4767  -48.0176 C.3       11 UNK         0.1400 
     19 N           0.4624  -19.9113  -46.7569 N.am      11 UNK        -0.5000 
     20 C           0.8341  -21.1589  -46.4336 C.2       10 UNK         0.5000 
     21 O           0.7939  -22.1127  -47.2091 O.2       10 UNK        -0.5000 
     22 CA          1.2673  -21.3976  -44.9744 C.3       10 UNK         0.1400 
     23 CB          2.7357  -21.0020  -44.7595 C.3       10 UNK        -0.1800 
     24 N           0.4122  -20.7013  -44.0094 N.am      10 UNK        -0.5000 
     25 C          -0.8903  -20.9651  -43.8262 C.2       9 UNK         0.5000 
     26 O          -1.4934  -21.8587  -44.4195 O.2       9 UNK        -0.5000 
     27 CA         -1.6638  -20.0548  -42.8534 C.3       9 UNK         0.1400 
     28 CB         -1.4160  -20.4676  -41.3951 C.3       9 UNK        -0.1800 
     29 N          -1.3401  -18.6392  -43.0304 N.am      9 UNK        -0.5000 
     30 C          -1.6041  -17.9369  -44.1417 C.2       8 UNK         0.5000 
     31 O          -2.2169  -18.3924  -45.1080 O.2       8 UNK        -0.5000 
     32 CA         -1.0320  -16.5075  -44.2111 C.3       8 UNK         0.1400 
     33 CB         -1.9405  -15.5081  -43.4820 C.3       8 UNK        -0.1800 
     34 N           0.3287  -16.4169  -43.6785 N.am      8 UNK        -0.5000 
     35 C           1.3867  -17.0824  -44.1635 C.2       7 UNK         0.5000 
     36 O           1.3314  -17.8182  -45.1440 O.2       7 UNK        -0.5000 
     37 CA          2.7080  -16.9599  -43.3865 C.3       7 UNK         0.1400 
     38 CB          3.4385  -15.6481  -43.7121 C.3       7 UNK        -0.1800 
     39 N           2.4880  -17.0640  -41.9453 N.am      7 UNK        -0.5000 
     40 C           2.1180  -18.1905  -41.3200 C.2       6 UNK         0.5000 
     41 O           1.9745  -19.2722  -41.8894 O.2       6 UNK        -0.5000 
     42 CA          1.8204  -18.0768  -39.8137 C.3       6 UNK         0.1400 
     43 CB          3.1101  -18.2328  -38.9946 C.3       6 UNK        -0.1800 
     44 N           1.1759  -16.8089  -39.4664 N.am      6 UNK        -0.5000 
     45 C          -0.0667  -16.4666  -39.8359 C.2       5 UNK         0.5000 
     46 O          -0.8191  -17.2070  -40.4691 O.2       5 UNK        -0.5000 
     47 CA         -0.5162  -15.0337  -39.4880 C.3       5 UNK         0.1400 
     48 CB         -1.0557  -14.9678  -38.0516 C.3       5 UNK        -0.1800 
     49 N           0.5527  -14.0418  -39.6565 N.am      5 UNK        -0.5000 
     50 C           1.1387  -13.7630  -40.8281 C.2       4 UNK         0.5000 
     51 O           0.8311  -14.3148  -41.8859 O.2       4 UNK        -0.5000 
     52 CA          2.3051  -12.7618  -40.8029 C.3       4 UNK         0.1400 
     53 CB          3.5887  -13.4538  -40.3164 C.3       4 UNK        -0.1800 
     54 N           2.5468  -12.2204  -42.1397 N.am      4 UNK        -0.5000 
     55 C           1.9002  -11.1728  -42.6637 C.2       3 UNK         0.5000 
     56 O           1.0868  -10.4858  -42.0441 O.2       3 UNK        -0.5000 
     57 CA          2.2191  -10.8427  -44.1323 C.3       3 UNK         0.1400 
     58 CB          3.5929  -10.1658  -44.2543 C.3       3 UNK        -0.1800 
     59 N           2.1690  -12.0257  -44.9975 N.am      3 UNK        -0.5000 
     60 C           1.0248  -12.5954  -45.4105 C.2       2 UNK         0.5000 
     61 O          -0.0887  -12.1759  -45.0928 O.2       2 UNK        -0.5000 
     62 CA          1.1374  -13.8079  -46.3555 C.3       2 UNK         0.1400 
     63 CB         -0.0890  -13.9882  -47.2681 C.3       2 UNK        -0.1800 
     64 N           2.3559  -13.7446  -47.1622 N.am      2 UNK        -0.5000 
     65 C           3.1009  -14.8033  -47.5068 C.2       1 UNK         0.5000 
     66 O           2.7562  -15.9633  -47.2912 O.2       1 UNK        -0.5000 
     67 C          -1.4244  -20.2989  -48.3098 C.2       11 UNK         0.5000 
     68 O          -1.5185  -20.9124  -49.3732 O.2       11 UNK        -0.5000 
     69 N          -2.3536  -20.3311  -47.3422 N.am      12 UNK        -0.5000 
     70 CA         -3.6059  -21.0809  -47.4232 C.3       12 UNK         0.1400 
     71 CB         -4.4766  -20.7777  -46.1957 C.3       12 UNK        -0.1800 
     72 C          -3.3911  -22.5952  -47.5838 C.2       12 UNK         0.5000 
     73 O          -4.0506  -23.2066  -48.4240 O.2       12 UNK        -0.5000 
     74 N          -2.4589  -23.1658  -46.8086 N.am      13 UNK        -0.5000 
     75 CA         -2.0734  -24.5760  -46.8723 C.3       13 UNK         0.1400 
     76 CB         -1.1053  -24.9030  -45.7257 C.3       13 UNK        -0.1800 
     77 C          -1.4683  -24.9673  -48.2321 C.2       13 UNK         0.5000 
     78 O          -1.8847  -25.9710  -48.8122 O.2       13 UNK        -0.5000 
     79 N          -0.5366  -24.1473  -48.7397 N.am      14 UNK        -0.5000 
     80 CA          0.0870  -24.3089  -50.0555 C.3       14 UNK         0.1400 
     81 CB          1.2483  -23.3157  -50.1975 C.3       14 UNK        -0.1800 
     82 C          -0.9156  -24.1521  -51.2141 C.2       14 UNK         0.5000 
     83 O          -0.8031  -24.8564  -52.2168 O.2       14 UNK        -0.5000 
     84 N          -1.9102  -23.2749  -51.0305 N.am      15 UNK        -0.5000 
     85 CA         -3.0590  -23.0794  -51.9144 C.3       15 UNK         0.1400 
     86 CB         -3.5905  -21.6475  -51.7271 C.3       15 UNK        -0.1800 
     87 C          -4.1745  -24.1332  -51.7283 C.2       15 UNK         0.5000 
     88 O          -5.2909  -23.8968  -52.1858 O.2       15 UNK        -0.5000 
     89 N          -3.8755  -25.2652  -51.0717 N.am      16 UNK        -0.5000 
     90 CA         -4.7414  -26.4322  -50.8691 C.3       16 UNK         0.1400 
     91 CB         -5.0327  -27.1310  -52.2140 C.3       16 UNK        -0.1800 
     92 C          -6.0168  -26.0989  -50.0698 C.2       16 UNK         0.5000 
     93 O          -7.1264  -26.4048  -50.5093 O.2       16 UNK        -0.5000 
     94 N          -5.8147  -25.4596  -48.9097 N.am      17 UNK        -0.5000 
     95 CA         -6.8309  -24.9160  -48.0025 C.3       17 UNK         0.1400 
     96 CB         -7.7655  -26.0170  -47.4573 C.3       17 UNK        -0.1800 
     97 C          -7.5749  -23.7239  -48.6368 C.2       17 UNK         0.5000 
     98 O          -8.8016  -23.6377  -48.5583 O.2       17 UNK        -0.5000 
     99 N          -6.7886  -22.8251  -49.2474 N.am      18 UNK        -0.5000 
    100 CA        -7.1936  -21.5876  -49.9184 C.3       18 UNK         0.1400 
    101 CB        -7.6945  -20.5550  -48.8878 C.3       18 UNK        -0.1800 
    102 C         -8.1839  -21.8183  -51.0791 C.2       18 UNK         0.5000 
    103 O         -9.1795  -21.1006  -51.2023 O.2       18 UNK        -0.5000 
    104 N         -7.8820  -22.8017  -51.9365 N.am      19 UNK        -0.5000 
    105 CA        -8.6170  -23.1138  -53.1619 C.3       19 UNK         0.1400 
    106 CB        -8.3554  -24.5819  -53.5423 C.3       19 UNK        -0.1800 
    107 C         -8.2247  -22.1260  -54.2791 C.2       19 UNK         0.5000 
    108 O         -7.5629  -22.5044  -55.2467 O.2       19 UNK        -0.5000 
    109 N         -8.6105  -20.8584  -54.0836 N.am      20 UNK        -0.5000 
    110 CA        -8.2733  -19.6602  -54.8563 C.3       20 UNK         0.1400 
    111 CB        -8.6837  -19.7767  -56.3385 C.3       20 UNK        -0.1800 
    112 C         -6.8007  -19.2462  -54.6836 C.2       20 UNK         0.5000 
    113 O         -6.5384  -18.1968  -54.0949 O.2       20 UNK        -0.5000 
    114 N         -5.8715  -20.0727  -55.1738 N.am      21 UNK        -0.5000 
    115 CA        -4.4275  -19.8610  -55.1265 C.3       21 UNK         0.1400 
    116 CB        -4.0194  -18.7195  -56.0803 C.3       21 UNK        -0.1800 
    117 C         -3.7052  -21.1598  -55.5120 C.2       21 UNK         0.5000 
    118 O         -4.3046  -22.0408  -56.1332 O.2       21 UNK        -0.5000 
    119 N         -2.4177  -21.2357  -55.1617 N.am      22 UNK        -0.5000 
    120 CA        -1.4748  -22.2591  -55.6361 C.3       22 UNK         0.1400 
    121 C         -1.1569  -22.1395  -57.1558 C.2       22 UNK         0.5000 
    122 N         -0.7701  -23.2334  -57.7989 N.am      22 UNK        -0.7600 
    123 O         -1.2284  -21.0671  -57.7529 O.2       22 UNK        -0.5000 
    124 C124       -0.1773  -22.2857  -54.7825 C.3       23 UNK        -0.0398 
    125 S125        0.5596  -20.6395  -54.4721 S.3       23 UNK        -0.2404 
    126 C126        0.7597  -20.6915  -52.6657 C.3       23 UNK        -0.0205 
    127 H127        6.6204  -11.1138  -47.7558 H         1 UNK         0.0600 
    128 H128        6.3425  -10.8599  -46.0323 H         1 UNK         0.0600 
    129 H129        5.0983  -10.4038  -47.2024 H         1 UNK         0.0600 
    130 H130        5.1789  -12.6762  -48.8777 H         1 UNK         0.3000 
    131 H131        5.1929  -15.1564  -47.6177 H         1 UNK         0.0600 
    132 H132        3.6257  -14.6271  -50.1811 H         1 UNK         0.0800 
    133 H133        5.3542  -14.4958  -50.1595 H         1 UNK         0.0800 
    134 H134        4.7435  -17.7196  -52.0817 H         1 UNK         0.0800 
    135 H135        4.1168  -16.0961  -52.1248 H         1 UNK         0.0800 
    136 H136        3.1777  -19.4417  -52.4689 H         1 UNK         0.1150 
    137 H137       -0.9845  -18.9021  -51.5998 H         1 UNK         0.1150 
    138 H138        1.8160  -15.8187  -50.6202 H         1 UNK         0.1150 
    139 H139       -0.4317  -15.4772  -50.0850 H         1 UNK         0.0800 
    140 H140       -1.5284  -16.1806  -51.2437 H         1 UNK         0.0800 
    141 H141       -0.6046  -17.5861  -47.0395 H         1 UNK         0.0800 
    142 H142        0.5777  -17.4345  -48.2817 H         1 UNK         0.0800 
    143 H143        0.5588  -19.7176  -48.8120 H         1 UNK         0.0600 
    144 H144        0.6151  -19.1804  -46.0638 H         1 UNK         0.3000 
    145 H145        1.1798  -22.4677  -44.7764 H         1 UNK         0.0600 
    146 H146        3.0584  -21.2223  -43.7418 H         1 UNK         0.0600 
    147 H147        3.3894  -21.5544  -45.4356 H         1 UNK         0.0600 
    148 H148        2.9016  -19.9405  -44.9403 H         1 UNK         0.0600 
    149 H149        0.8506  -19.9757  -43.4522 H         1 UNK         0.3000 
    150 H150       -2.7285  -20.1794  -43.0613 H         1 UNK         0.0600 
    151 H151       -1.6853  -21.5123  -41.2349 H         1 UNK         0.0600 
    152 H152       -2.0146  -19.8679  -40.7092 H         1 UNK         0.0600 
    153 H153       -0.3698  -20.3517  -41.1132 H         1 UNK         0.0600 
    154 H154       -0.8837  -18.1721  -42.2537 H         1 UNK         0.3000 
    155 H155       -0.9935  -16.2127  -45.2602 H         1 UNK         0.0600 
    156 H156       -2.0158  -15.7320  -42.4182 H         1 UNK         0.0600 
    157 H157       -2.9499  -15.5266  -43.8945 H         1 UNK         0.0600 
    158 H158       -1.5653  -14.4892  -43.5838 H         1 UNK         0.0600 
    159 H159        0.4681  -15.7842  -42.8930 H         1 UNK         0.3000 
    160 H160        3.3549  -17.7860  -43.6894 H         1 UNK         0.0600 
    161 H161        2.8127  -14.7750  -43.5356 H         1 UNK         0.0600 
    162 H162        3.7390  -15.6257  -44.7587 H         1 UNK         0.0600 
    163 H163        4.3464  -15.5408  -43.1190 H         1 UNK         0.0600 
    164 H164        2.5315  -16.2088  -41.4138 H         1 UNK         0.3000 
    165 H165        1.1432  -18.8904  -39.5449 H         1 UNK         0.0600 
    166 H166        2.9008  -18.2253  -37.9247 H         1 UNK         0.0600 
    167 H167        3.6035  -19.1789  -39.2213 H         1 UNK         0.0600 
    168 H168        3.8215  -17.4329  -39.2038 H         1 UNK         0.0600 
    169 H169        1.7247  -16.1439  -38.9421 H         1 UNK         0.3000 
    170 H170       -1.3282  -14.7689  -40.1684 H         1 UNK         0.0600 
    171 H171       -1.8643  -15.6854  -37.9056 H         1 UNK         0.0600 
    172 H172       -0.2808  -15.1925  -37.3177 H         1 UNK         0.0600 
    173 H173       -1.4560  -13.9793  -37.8258 H         1 UNK         0.0600 
    174 H174        0.8582  -13.5594  -38.8234 H         1 UNK         0.3000 
    175 H175        2.0589  -11.9505  -40.1145 H         1 UNK         0.0600 
    176 H176        3.8729  -14.2850  -40.9622 H         1 UNK         0.0600 
    177 H177        4.4242  -12.7540  -40.2883 H         1 UNK         0.0600 
    178 H178        3.4667  -13.8487  -39.3072 H         1 UNK         0.0600 
    179 H179        3.1677  -12.7473  -42.7343 H         1 UNK         0.3000 
    180 H180        1.4696  -10.1275  -44.4786 H         1 UNK         0.0600 
    181 H181        4.4061  -10.8447  -43.9949 H         1 UNK         0.0600 
    182 H182        3.6632   -9.3015  -43.5925 H         1 UNK         0.0600 
    183 H183        3.7622   -9.8074  -45.2688 H         1 UNK         0.0600 
    184 H184        3.0570  -12.4420  -45.2562 H         1 UNK         0.3000 
    185 H185        1.1928  -14.6744  -45.6981 H         1 UNK         0.0600 
    186 H186       -1.0103  -14.0605  -46.6891 H         1 UNK         0.0600 
    187 H187       -0.1971  -13.1563  -47.9645 H         1 UNK         0.0600 
    188 H188       -0.0051  -14.9058  -47.8477 H         1 UNK         0.0600 
    189 H189        2.6988  -12.8204  -47.3834 H         1 UNK         0.3000 
    190 H190       -2.2076  -19.7766  -46.5033 H         1 UNK         0.3000 
    191 H191       -4.1397  -20.7295  -48.3083 H         1 UNK         0.0600 
    192 H192       -3.9804  -21.0631  -45.2679 H         1 UNK         0.0600 
    193 H193       -5.4223  -21.3191  -46.2434 H         1 UNK         0.0600 
    194 H194       -4.7118  -19.7150  -46.1341 H         1 UNK         0.0600 
    195 H195       -1.9908  -22.5973  -46.1074 H         1 UNK         0.3000 
    196 H196       -2.9776  -25.1712  -46.7293 H         1 UNK         0.0600 
    197 H197       -0.8212  -25.9559  -45.7420 H         1 UNK         0.0600 
    198 H198       -1.5622  -24.7039  -44.7562 H         1 UNK         0.0600 
    199 H199       -0.1902  -24.3142  -45.7904 H         1 UNK         0.0600 
    200 H200       -0.2291  -23.3474  -48.1901 H         1 UNK         0.3000 
    201 H201        0.4964  -25.3197  -50.1089 H         1 UNK         0.0600 
    202 H202        2.0013  -23.4796  -49.4266 H         1 UNK         0.0600 
    203 H203        0.9060  -22.2836  -50.1125 H         1 UNK         0.0600 
    204 H204        1.7428  -23.4286  -51.1626 H         1 UNK         0.0600 
    205 H205       -1.8894  -22.6925  -50.1981 H         1 UNK         0.3000 
    206 H206       -2.7218  -23.1734  -52.9475 H         1 UNK         0.0600 
    207 H207       -2.8192  -20.9107  -51.9515 H         1 UNK         0.0600 
    208 H208       -4.4347  -21.4428  -52.3861 H         1 UNK         0.0600 
    209 H209       -3.9222  -21.4787  -50.7032 H         1 UNK         0.0600 
    210 H210       -2.9513  -25.3444  -50.6668 H         1 UNK         0.3000 
    211 H211       -4.1715  -27.1316  -50.2556 H         1 UNK         0.0600 
    212 H212       -5.6303  -26.5049  -52.8772 H         1 UNK         0.0600 
    213 H213       -5.5827  -28.0599  -52.0595 H         1 UNK         0.0600 
    214 H214       -4.1089  -27.3837  -52.7344 H         1 UNK         0.0600 
    215 H215       -4.8664  -25.1702  -48.7006 H         1 UNK         0.3000 
    216 H216       -6.2844  -24.5091  -47.1504 H         1 UNK         0.0600 
    217 H217       -8.4084  -25.6229  -46.6696 H         1 UNK         0.0600 
    218 H218       -7.1957  -26.8414  -47.0288 H         1 UNK         0.0600 
    219 H219       -8.4164  -26.4241  -48.2312 H         1 UNK         0.0600 
    220 H220       -5.7892  -23.0076  -49.2252 H         1 UNK         0.3000 
    221 H221       -6.2919  -21.1782  -50.3739 H         1 UNK         0.0600 
    222 H222       -8.6171  -20.8789  -48.4053 H         1 UNK         0.0600 
    223 H223       -6.9515  -20.3824  -48.1095 H         1 UNK         0.0600 
    224 H224       -7.8933  -19.5934  -49.3623 H         1 UNK         0.0600 
    225 H225       -7.0016  -23.3006  -51.8214 H         1 UNK         0.3000 
    226 H226       -9.6878  -23.0050  -52.9771 H         1 UNK         0.0600 
    227 H227       -8.6514  -25.2558  -52.7381 H         1 UNK         0.0600 
    228 H228       -8.9238  -24.8619  -54.4298 H         1 UNK         0.0600 
    229 H229       -7.3017  -24.7635  -53.7564 H         1 UNK         0.0600 
    230 H230       -9.0922  -20.6752  -53.2088 H         1 UNK         0.3000 
    231 H231       -8.8750  -18.8590  -54.4241 H         1 UNK         0.0600 
    232 H232       -9.7417  -20.0207  -56.4348 H         1 UNK         0.0600 
    233 H233       -8.1153  -20.5389  -56.8714 H         1 UNK         0.0600 
    234 H234       -8.5198  -18.8320  -56.8580 H         1 UNK         0.0600 
    235 H235       -6.1615  -20.9619  -55.5742 H         1 UNK         0.3000 
    236 H236       -4.1451  -19.6008  -54.1044 H         1 UNK         0.0600 
    237 H237       -2.9378  -18.5788  -56.0878 H         1 UNK         0.0600 
    238 H238       -4.3285  -18.9278  -57.1053 H         1 UNK         0.0600 
    239 H239       -4.4611  -17.7683  -55.7845 H         1 UNK         0.0600 
    240 H240       -1.9870  -20.4490  -54.6980 H         1 UNK         0.3000 
    241 H241       -1.9676  -23.2243  -55.5012 H         1 UNK         0.0600 
    242 H242       -0.5506  -23.1694  -58.7811 H         1 UNK         0.3800 
    243 H243       -0.7006  -24.1270  -57.3367 H         1 UNK         0.3800 
    244 H244       -0.4054  -22.7525  -53.8261 H         1 UNK         0.0800 
    245 H245        0.5808  -22.9280  -55.2343 H         1 UNK         0.0800 
    246 H246        1.5662  -21.3818  -52.4181 H         1 UNK         0.0800 
    247 H247       -0.1456  -21.0857  -52.2004 H         1 UNK         0.0800 
@<TRIPOS>BOND
     1    1    2 1    
     2    1  127 1    
     3    1  128 1    
     4    1  129 1    
     5    2    3 2    
     6    2    4 am   BACKBONE|DICT|INTERRES
     7    4    5 1    
     8    4  130 1    
     9    5    6 1    
    10    5   65 1    
    11    5  131 1    
    12    6    7 1    
    13    6  132 1    
    14    6  133 1    
    15    7    8 1    
    16    8    9 1    
    17    8  134 1    
    18    8  135 1    
    19    9   10 ar   
    20    9   14 ar   
    21   10   11 ar   
    22   10  136 1    
    23   11   12 ar   
    24   11  126 1    
    25   12   13 ar   
    26   12  137 1    
    27   13   14 ar   
    28   13   15 1    
    29   14  138 1    
    30   15   16 1    
    31   15  139 1    
    32   15  140 1    
    33   16   17 1    
    34   17   18 1    
    35   17  141 1    
    36   17  142 1    
    37   18   19 1    
    38   18   67 1    
    39   18  143 1    
    40   19   20 am   BACKBONE|DICT|INTERRES
    41   19  144 1    
    42   20   21 2    
    43   20   22 1    
    44   22   23 1    
    45   22   24 1    
    46   22  145 1    
    47   23  146 1    
    48   23  147 1    
    49   23  148 1    
    50   24   25 am   BACKBONE|DICT|INTERRES
    51   24  149 1    
    52   25   26 2    
    53   25   27 1    
    54   27   28 1    
    55   27   29 1    
    56   27  150 1    
    57   28  151 1    
    58   28  152 1    
    59   28  153 1    
    60   29   30 am   BACKBONE|DICT|INTERRES
    61   29  154 1    
    62   30   31 2    
    63   30   32 1    
    64   32   33 1    
    65   32   34 1    
    66   32  155 1    
    67   33  156 1    
    68   33  157 1    
    69   33  158 1    
    70   34   35 am   BACKBONE|DICT|INTERRES
    71   34  159 1    
    72   35   36 2    
    73   35   37 1    
    74   37   38 1    
    75   37   39 1    
    76   37  160 1    
    77   38  161 1    
    78   38  162 1    
    79   38  163 1    
    80   39   40 am   BACKBONE|DICT|INTERRES
    81   39  164 1    
    82   40   41 2    
    83   40   42 1    
    84   42   43 1    
    85   42   44 1    
    86   42  165 1    
    87   43  166 1    
    88   43  167 1    
    89   43  168 1    
    90   44   45 am   BACKBONE|DICT|INTERRES
    91   44  169 1    
    92   45   46 2    
    93   45   47 1    
    94   47   48 1    
    95   47   49 1    
    96   47  170 1    
    97   48  171 1    
    98   48  172 1    
    99   48  173 1    
   100   49   50 am   BACKBONE|DICT|INTERRES
   101   49  174 1    
   102   50   51 2    
   103   50   52 1    
   104   52   53 1    
   105   52   54 1    
   106   52  175 1    
   107   53  176 1    
   108   53  177 1    
   109   53  178 1    
   110   54   55 am   BACKBONE|DICT|INTERRES
   111   54  179 1    
   112   55   56 2    
   113   55   57 1    
   114   57   58 1    
   115   57   59 1    
   116   57  180 1    
   117   58  181 1    
   118   58  182 1    
   119   58  183 1    
   120   59   60 am   BACKBONE|DICT|INTERRES
   121   59  184 1    
   122   60   61 2    
   123   60   62 1    
   124   62   63 1    
   125   62   64 1    
   126   62  185 1    
   127   63  186 1    
   128   63  187 1    
   129   63  188 1    
   130   64   65 am   BACKBONE|DICT|INTERRES
   131   64  189 1    
   132   65   66 2    
   133   67   68 2    
   134   67   69 am   BACKBONE|DICT|INTERRES
   135   69   70 1    
   136   69  190 1    
   137   70   71 1    
   138   70   72 1    
   139   70  191 1    
   140   71  192 1    
   141   71  193 1    
   142   71  194 1    
   143   72   73 2    
   144   72   74 am   BACKBONE|DICT|INTERRES
   145   74   75 1    
   146   74  195 1    
   147   75   76 1    
   148   75   77 1    
   149   75  196 1    
   150   76  197 1    
   151   76  198 1    
   152   76  199 1    
   153   77   78 2    
   154   77   79 am   BACKBONE|DICT|INTERRES
   155   79   80 1    
   156   79  200 1    
   157   80   81 1    
   158   80   82 1    
   159   80  201 1    
   160   81  202 1    
   161   81  203 1    
   162   81  204 1    
   163   82   83 2    
   164   82   84 am   BACKBONE|DICT|INTERRES
   165   84   85 1    
   166   84  205 1    
   167   85   86 1    
   168   85   87 1    
   169   85  206 1    
   170   86  207 1    
   171   86  208 1    
   172   86  209 1    
   173   87   88 2    
   174   87   89 am   BACKBONE|DICT|INTERRES
   175   89   90 1    
   176   89  210 1    
   177   90   91 1    
   178   90   92 1    
   179   90  211 1    
   180   91  212 1    
   181   91  213 1    
   182   91  214 1    
   183   92   93 2    
   184   92   94 am   BACKBONE|DICT|INTERRES
   185   94   95 1    
   186   94  215 1    
   187   95   96 1    
   188   95   97 1    
   189   95  216 1    
   190   96  217 1    
   191   96  218 1    
   192   96  219 1    
   193   97   98 2    
   194   97   99 am   BACKBONE|DICT|INTERRES
   195   99  100 1    
   196   99  220 1    
   197  100  101 1    
   198  100  102 1    
   199  100  221 1    
   200  101  222 1    
   201  101  223 1    
   202  101  224 1    
   203  102  103 2    
   204  102  104 am   BACKBONE|DICT|INTERRES
   205  104  105 1    
   206  104  225 1    
   207  105  106 1    
   208  105  107 1    
   209  105  226 1    
   210  106  227 1    
   211  106  228 1    
   212  106  229 1    
   213  107  108 2    
   214  107  109 am   BACKBONE|DICT|INTERRES
   215  109  110 1    
   216  109  230 1    
   217  110  111 1    
   218  110  112 1    
   219  110  231 1    
   220  111  232 1    
   221  111  233 1    
   222  111  234 1    
   223  112  113 2    
   224  112  114 am   BACKBONE|DICT|INTERRES
   225  114  115 1    
   226  114  235 1    
   227  115  116 1    
   228  115  117 1    
   229  115  236 1    
   230  116  237 1    
   231  116  238 1    
   232  116  239 1    
   233  117  118 2    
   234  117  119 am   BACKBONE|DICT|INTERRES
   235  119  120 1    
   236  119  240 1    
   237  120  121 1    
   238  120  124 1    
   239  120  241 1    
   240  121  122 am   BACKBONE|DICT|INTERRES
   241  121  123 2    
   242  122  242 1    
   243  122  243 1    
   244  124  125 1    
   245  124  244 1    
   246  124  245 1    
   247  125  126 1    
   248  126  246 1    
   249  126  247 1    
@<TRIPOS>SUBSTRUCTURE
     1 UNK         1 GROUP             0       ****    0 ROOT    
