@<TRIPOS>MOLECULE
3R540
247   249    1
SMALL
USER_CHARGES


@<TRIPOS>ATOM
      1 CA          1.9502   -9.1477  -52.7484 C.3       0 UNK        -0.1800 
      2 C           2.0131  -10.3718  -51.8467 C.2       0 UNK         0.5000 
      3 O           2.7276  -10.3582  -50.8443 O.2       0 UNK        -0.5000 
      4 N           1.2540  -11.4243  -52.1861 N.am      1 UNK        -0.5000 
      5 CA          1.2017  -12.7057  -51.4626 C.3       1 UNK         0.1400 
      6 C6          0.4107  -13.7808  -52.2564 C.3       23 UNK        -0.0398 
      7 S7          1.2017  -15.4260  -52.1990 S.3       23 UNK        -0.2404 
      8 C8         -0.1627  -16.5069  -51.6657 C.3       23 UNK        -0.0205 
      9 C9         -0.2867  -16.5627  -50.1512 C.ar      23 UNK        -0.0193 
     10 C10        -1.1778  -15.7208  -49.4797 C.ar      23 UNK        -0.1150 
     11 C11        -1.2835  -15.7660  -48.0869 C.ar      23 UNK        -0.0193 
     12 C12        -0.5134  -16.6910  -47.3727 C.ar      23 UNK        -0.1150 
     13 C13         0.3678  -17.5536  -48.0303 C.ar      23 UNK        -0.0193 
     14 C14         0.4870  -17.4710  -49.4213 C.ar      23 UNK        -0.1150 
     15 C15         1.2360  -18.5093  -47.2168 C.3       23 UNK        -0.0205 
     16 S16         1.3129  -20.2084  -47.8749 S.3       23 UNK        -0.2404 
     17 C17        -0.3755  -20.8250  -47.5788 C.3       23 UNK        -0.0398 
     18 CA         -0.3836  -22.3149  -47.1658 C.3       11 UNK         0.1400 
     19 N           0.1481  -22.5388  -45.8187 N.am      11 UNK        -0.5000 
     20 C           0.4144  -23.7494  -45.3074 C.2       10 UNK         0.5000 
     21 O           0.2936  -24.8011  -45.9356 O.2       10 UNK        -0.5000 
     22 CA          0.8296  -23.7980  -43.8288 C.3       10 UNK         0.1400 
     23 CB          2.3192  -23.4624  -43.6588 C.3       10 UNK        -0.1800 
     24 N           0.0172  -22.8955  -43.0136 N.am      10 UNK        -0.5000 
     25 C          -1.2713  -23.1093  -42.7118 C.2       9 UNK         0.5000 
     26 O          -1.9000  -24.1053  -43.0688 O.2       9 UNK        -0.5000 
     27 CA         -1.9893  -22.0101  -41.9070 C.3       9 UNK         0.1400 
     28 CB         -1.7393  -22.1908  -40.4025 C.3       9 UNK        -0.1800 
     29 N          -1.5940  -20.6588  -42.3050 N.am      9 UNK        -0.5000 
     30 C          -1.8396  -20.1240  -43.5085 C.2       8 UNK         0.5000 
     31 O          -2.4359  -20.7093  -44.4116 O.2       8 UNK        -0.5000 
     32 CA         -1.2851  -18.7139  -43.7690 C.3       8 UNK         0.1400 
     33 CB         -2.2694  -17.6657  -43.2339 C.3       8 UNK        -0.1800 
     34 N           0.0560  -18.4740  -43.2188 N.am      8 UNK        -0.5000 
     35 C           1.1388  -19.2360  -43.4520 C.2       7 UNK         0.5000 
     36 O           1.0953  -20.2758  -44.1114 O.2       7 UNK        -0.5000 
     37 CA          2.4903  -18.7732  -42.8717 C.3       7 UNK         0.1400 
     38 CB          3.6422  -19.0353  -43.8584 C.3       7 UNK        -0.1800 
     39 N           2.4764  -17.3485  -42.5465 N.am      7 UNK        -0.5000 
     40 C           2.5475  -16.8198  -41.3169 C.2       6 UNK         0.5000 
     41 O           2.6598  -17.4908  -40.2906 O.2       6 UNK        -0.5000 
     42 CA          2.4637  -15.2799  -41.2054 C.3       6 UNK         0.1400 
     43 CB          3.8678  -14.6769  -41.0480 C.3       6 UNK        -0.1800 
     44 N           1.8036  -14.6441  -42.3487 N.am      6 UNK        -0.5000 
     45 C           0.5259  -14.8423  -42.7003 C.2       5 UNK         0.5000 
     46 O          -0.2661  -15.4823  -42.0098 O.2       5 UNK        -0.5000 
     47 CA          0.0669  -14.2957  -44.0692 C.3       5 UNK         0.1400 
     48 CB         -0.8171  -13.0550  -43.8801 C.3       5 UNK        -0.1800 
     49 N           1.1502  -13.9888  -45.0134 N.am      5 UNK        -0.5000 
     50 C           2.0676  -14.8607  -45.4654 C.2       4 UNK         0.5000 
     51 O           2.1016  -16.0387  -45.1077 O.2       4 UNK        -0.5000 
     52 CA          3.1465  -14.3431  -46.4393 C.3       4 UNK         0.1400 
     53 CB          3.2981  -15.2696  -47.6563 C.3       4 UNK        -0.1800 
     54 N           2.8879  -12.9814  -46.9078 N.am      4 UNK        -0.5000 
     55 C           3.3102  -11.8623  -46.3010 C.2       3 UNK         0.5000 
     56 O           3.9753  -11.8647  -45.2649 O.2       3 UNK        -0.5000 
     57 CA          2.9126  -10.5122  -46.9368 C.3       3 UNK         0.1400 
     58 CB          4.0843   -9.9359  -47.7454 C.3       3 UNK        -0.1800 
     59 N           1.7332  -10.5985  -47.8009 N.am      3 UNK        -0.5000 
     60 C           0.4943  -10.8749  -47.3666 C.2       2 UNK         0.5000 
     61 O           0.2099  -10.9850  -46.1749 O.2       2 UNK        -0.5000 
     62 CA         -0.6026  -11.1163  -48.4263 C.3       2 UNK         0.1400 
     63 CB         -1.4845   -9.8684  -48.5784 C.3       2 UNK        -0.1800 
     64 N          -0.1004  -11.5054  -49.7473 N.am      2 UNK        -0.5000 
     65 C           0.6820  -12.5630  -50.0137 C.2       1 UNK         0.5000 
     66 O           1.0459  -13.3625  -49.1544 O.2       1 UNK        -0.5000 
     67 C          -1.7882  -22.9301  -47.3332 C.2       11 UNK         0.5000 
     68 O          -2.0399  -23.5757  -48.3495 O.2       11 UNK        -0.5000 
     69 N          -2.6592  -22.7618  -46.3264 N.am      12 UNK        -0.5000 
     70 CA         -3.9971  -23.3535  -46.2691 C.3       12 UNK         0.1400 
     71 CB         -4.7625  -22.8173  -45.0505 C.3       12 UNK        -0.1800 
     72 C          -3.9618  -24.8908  -46.2636 C.2       12 UNK         0.5000 
     73 O          -4.6869  -25.5098  -47.0438 O.2       12 UNK        -0.5000 
     74 N          -3.0858  -25.4712  -45.4282 N.am      13 UNK        -0.5000 
     75 CA         -2.8405  -26.9137  -45.3394 C.3       13 UNK         0.1400 
     76 CB         -1.8705  -27.2043  -44.1849 C.3       13 UNK        -0.1800 
     77 C          -2.3187  -27.5237  -46.6539 C.2       13 UNK         0.5000 
     78 O          -2.6999  -28.6428  -46.9969 O.2       13 UNK        -0.5000 
     79 N          -1.5181  -26.7554  -47.4037 N.am      14 UNK        -0.5000 
     80 CA         -1.0347  -27.0722  -48.7492 C.3       14 UNK         0.1400 
     81 CB          0.2731  -26.2978  -48.9952 C.3       14 UNK        -0.1800 
     82 C          -2.0927  -26.8026  -49.8462 C.2       14 UNK         0.5000 
     83 O          -1.7466  -26.3064  -50.9192 O.2       14 UNK        -0.5000 
     84 N          -3.3652  -27.1191  -49.5596 N.am      15 UNK        -0.5000 
     85 CA         -4.5474  -26.9765  -50.4193 C.3       15 UNK         0.1400 
     86 CB         -4.4958  -28.0047  -51.5684 C.3       15 UNK        -0.1800 
     87 C          -4.7638  -25.5338  -50.9227 C.2       15 UNK         0.5000 
     88 O          -5.0738  -25.3273  -52.0978 O.2       15 UNK        -0.5000 
     89 N          -4.5362  -24.5550  -50.0336 N.am      16 UNK        -0.5000 
     90 CA         -4.5375  -23.1094  -50.3007 C.3       16 UNK         0.1400 
     91 CB         -5.9690  -22.6112  -50.5859 C.3       16 UNK        -0.1800 
     92 C          -3.5229  -22.6918  -51.3888 C.2       16 UNK         0.5000 
     93 O          -3.7607  -21.7255  -52.1118 O.2       16 UNK        -0.5000 
     94 N          -2.4239  -23.4489  -51.5158 N.am      17 UNK        -0.5000 
     95 CA         -1.3949  -23.3542  -52.5568 C.3       17 UNK         0.1400 
     96 CB         -0.6384  -22.0130  -52.4623 C.3       17 UNK        -0.1800 
     97 C          -1.9289  -23.6381  -53.9811 C.2       17 UNK         0.5000 
     98 O          -1.2882  -23.2419  -54.9555 O.2       17 UNK        -0.5000 
     99 N          -3.0785  -24.3271  -54.0709 N.am      18 UNK        -0.5000 
    100 CA        -3.8277  -24.6988  -55.2733 C.3       18 UNK         0.1400 
    101 CB        -3.0679  -25.7969  -56.0460 C.3       18 UNK        -0.1800 
    102 C         -4.1939  -23.4835  -56.1622 C.2       18 UNK         0.5000 
    103 O         -3.6411  -23.3451  -57.2535 O.2       18 UNK        -0.5000 
    104 N         -5.0966  -22.5858  -55.7409 N.am      19 UNK        -0.5000 
    105 CA        -5.8899  -22.5772  -54.5083 C.3       19 UNK         0.1400 
    106 CB        -7.1613  -23.4298  -54.6960 C.3       19 UNK        -0.1800 
    107 C         -6.2083  -21.1186  -54.1109 C.2       19 UNK         0.5000 
    108 O         -7.3214  -20.8274  -53.6702 O.2       19 UNK        -0.5000 
    109 N         -5.2445  -20.2143  -54.3338 N.am      20 UNK        -0.5000 
    110 CA        -5.4164  -18.7637  -54.2291 C.3       20 UNK         0.1400 
    111 CB        -4.7129  -18.1165  -55.4343 C.3       20 UNK        -0.1800 
    112 C         -4.8878  -18.1470  -52.9184 C.2       20 UNK         0.5000 
    113 O         -5.1572  -16.9688  -52.6758 O.2       20 UNK        -0.5000 
    114 N         -4.1251  -18.8992  -52.1135 N.am      21 UNK        -0.5000 
    115 CA        -3.5159  -18.3993  -50.8784 C.3       21 UNK         0.1400 
    116 CB        -2.3449  -19.3037  -50.4774 C.3       21 UNK        -0.1800 
    117 C         -4.5169  -18.2996  -49.7157 C.2       21 UNK         0.5000 
    118 O         -5.5464  -18.9782  -49.7187 O.2       21 UNK        -0.5000 
    119 N         -4.1645  -17.4784  -48.7192 N.am      22 UNK        -0.5000 
    120 CA        -4.9372  -17.2953  -47.4814 C.3       22 UNK         0.1400 
    121 C         -4.7007  -18.3926  -46.3995 C.2       22 UNK         0.5000 
    122 N         -3.7167  -19.2701  -46.5562 N.am      22 UNK        -0.7600 
    123 O         -5.4229  -18.4453  -45.4081 O.2       22 UNK        -0.5000 
    124 C124       -4.7764  -15.8532  -46.9299 C.3       23 UNK        -0.0398 
    125 S125       -3.2052  -15.4961  -46.0627 S.3       23 UNK        -0.2404 
    126 C126       -2.1585  -14.7542  -47.3563 C.3       23 UNK        -0.0205 
    127 H127        1.6049   -8.2827  -52.1822 H         1 UNK         0.0600 
    128 H128        1.2726   -9.2971  -53.5894 H         1 UNK         0.0600 
    129 H129        2.9405   -8.9237  -53.1449 H         1 UNK         0.0600 
    130 H130        0.6832  -11.3650  -53.0175 H         1 UNK         0.3000 
    131 H131        2.2406  -13.0328  -51.3796 H         1 UNK         0.0600 
    132 H132       -0.6303  -13.8389  -51.9341 H         1 UNK         0.0800 
    133 H133        0.3656  -13.5147  -53.3133 H         1 UNK         0.0800 
    134 H134        0.0243  -17.5117  -52.0476 H         1 UNK         0.0800 
    135 H135       -1.1000  -16.1855  -52.1219 H         1 UNK         0.0800 
    136 H136       -1.7595  -15.0029  -50.0401 H         1 UNK         0.1150 
    137 H137       -0.5738  -16.7145  -46.2944 H         1 UNK         0.1150 
    138 H138        1.1842  -18.1150  -49.9383 H         1 UNK         0.1150 
    139 H139        2.2488  -18.1102  -47.1830 H         1 UNK         0.0800 
    140 H140        0.8939  -18.5463  -46.1847 H         1 UNK         0.0800 
    141 H141       -0.9232  -20.6901  -48.5101 H         1 UNK         0.0800 
    142 H142       -0.8727  -20.2114  -46.8265 H         1 UNK         0.0800 
    143 H143        0.2669  -22.8530  -47.8591 H         1 UNK         0.0600 
    144 H144        0.3204  -21.7179  -45.2456 H         1 UNK         0.3000 
    145 H145        0.6722  -24.8174  -43.4699 H         1 UNK         0.0600 
    146 H146        2.6200  -23.5207  -42.6127 H         1 UNK         0.0600 
    147 H147        2.9397  -24.1659  -44.2152 H         1 UNK         0.0600 
    148 H148        2.5571  -22.4625  -44.0214 H         1 UNK         0.0600 
    149 H149        0.4353  -22.0093  -42.7676 H         1 UNK         0.3000 
    150 H150       -3.0611  -22.1133  -42.0885 H         1 UNK         0.0600 
    151 H151       -2.0430  -23.1856  -40.0736 H         1 UNK         0.0600 
    152 H152       -2.3099  -21.4686  -39.8184 H         1 UNK         0.0600 
    153 H153       -0.6850  -22.0692  -40.1508 H         1 UNK         0.0600 
    154 H154       -1.0882  -20.1086  -41.6267 H         1 UNK         0.3000 
    155 H155       -1.2195  -18.5914  -44.8512 H         1 UNK         0.0600 
    156 H156       -3.2838  -17.8627  -43.5834 H         1 UNK         0.0600 
    157 H157       -2.0078  -16.6676  -43.5779 H         1 UNK         0.0600 
    158 H158       -2.2931  -17.6513  -42.1438 H         1 UNK         0.0600 
    159 H159        0.1679  -17.6354  -42.6636 H         1 UNK         0.3000 
    160 H160        2.6683  -19.3706  -41.9759 H         1 UNK         0.0600 
    161 H161        3.4868  -18.5124  -44.8031 H         1 UNK         0.0600 
    162 H162        3.7379  -20.0983  -44.0829 H         1 UNK         0.0600 
    163 H163        4.5961  -18.7058  -43.4464 H         1 UNK         0.0600 
    164 H164        2.3655  -16.7293  -43.3462 H         1 UNK         0.3000 
    165 H165        1.8852  -15.0462  -40.3093 H         1 UNK         0.0600 
    166 H166        3.8198  -13.5989  -40.8931 H         1 UNK         0.0600 
    167 H167        4.3830  -15.1050  -40.1870 H         1 UNK         0.0600 
    168 H168        4.4860  -14.8637  -41.9270 H         1 UNK         0.0600 
    169 H169        2.3888  -14.1034  -42.9682 H         1 UNK         0.3000 
    170 H170       -0.5416  -15.0754  -44.5279 H         1 UNK         0.0600 
    171 H171       -1.2871  -12.7584  -44.8172 H         1 UNK         0.0600 
    172 H172       -1.6215  -13.2494  -43.1694 H         1 UNK         0.0600 
    173 H173       -0.2436  -12.2059  -43.5065 H         1 UNK         0.0600 
    174 H174        1.1845  -13.0391  -45.3589 H         1 UNK         0.3000 
    175 H175        4.0943  -14.3595  -45.8979 H         1 UNK         0.0600 
    176 H176        2.3498  -15.4153  -48.1736 H         1 UNK         0.0600 
    177 H177        4.0128  -14.8684  -48.3749 H         1 UNK         0.0600 
    178 H178        3.6631  -16.2510  -47.3542 H         1 UNK         0.0600 
    179 H179        2.3032  -12.9107  -47.7365 H         1 UNK         0.3000 
    180 H180        2.6858   -9.8199  -46.1234 H         1 UNK         0.0600 
    181 H181        4.3620  -10.5918  -48.5715 H         1 UNK         0.0600 
    182 H182        4.9669   -9.8064  -47.1177 H         1 UNK         0.0600 
    183 H183        3.8352   -8.9597  -48.1620 H         1 UNK         0.0600 
    184 H184        1.8999  -10.5328  -48.7984 H         1 UNK         0.3000 
    185 H185       -1.2273  -11.9329  -48.0618 H         1 UNK         0.0600 
    186 H186       -2.3228  -10.0560  -49.2496 H         1 UNK         0.0600 
    187 H187       -1.9022   -9.5648  -47.6174 H         1 UNK         0.0600 
    188 H188       -0.9192   -9.0231  -48.9727 H         1 UNK         0.0600 
    189 H189       -0.3266  -10.8857  -50.5112 H         1 UNK         0.3000 
    190 H190       -2.3920  -22.1844  -45.5333 H         1 UNK         0.3000 
    191 H191       -4.5406  -23.0382  -47.1603 H         1 UNK         0.0600 
    192 H192       -4.8963  -21.7373  -45.1126 H         1 UNK         0.0600 
    193 H193       -5.7565  -23.2616  -44.9868 H         1 UNK         0.0600 
    194 H194       -4.2438  -23.0380  -44.1178 H         1 UNK         0.0600 
    195 H195       -2.5535  -24.8858  -44.7916 H         1 UNK         0.3000 
    196 H196       -3.7935  -27.3949  -45.1109 H         1 UNK         0.0600 
    197 H197       -1.6805  -28.2744  -44.0927 H         1 UNK         0.0600 
    198 H198       -2.2782  -26.8644  -43.2328 H         1 UNK         0.0600 
    199 H199       -0.9095  -26.7112  -44.3329 H         1 UNK         0.0600 
    200 H200       -1.2365  -25.8550  -47.0326 H         1 UNK         0.3000 
    201 H201       -0.8004  -28.1375  -48.7927 H         1 UNK         0.0600 
    202 H202        1.0106  -26.5139  -48.2221 H         1 UNK         0.0600 
    203 H203        0.1049  -25.2204  -49.0034 H         1 UNK         0.0600 
    204 H204        0.7194  -26.5697  -49.9524 H         1 UNK         0.0600 
    205 H205       -3.5399  -27.5143  -48.6438 H         1 UNK         0.3000 
    206 H206       -5.4113  -27.2144  -49.7973 H         1 UNK         0.0600 
    207 H207       -4.3665  -29.0172  -51.1862 H         1 UNK         0.0600 
    208 H208       -5.4205  -27.9930  -52.1467 H         1 UNK         0.0600 
    209 H209       -3.6762  -27.7991  -52.2580 H         1 UNK         0.0600 
    210 H210       -4.2628  -24.8296  -49.0968 H         1 UNK         0.3000 
    211 H211       -4.2062  -22.6129  -49.3905 H         1 UNK         0.0600 
    212 H212       -6.3863  -23.0572  -51.4879 H         1 UNK         0.0600 
    213 H213       -5.9917  -21.5287  -50.7168 H         1 UNK         0.0600 
    214 H214       -6.6369  -22.8481  -49.7580 H         1 UNK         0.0600 
    215 H215       -2.3205  -24.2397  -50.8894 H         1 UNK         0.3000 
    216 H216       -0.6805  -24.1491  -52.3393 H         1 UNK         0.0600 
    217 H217        0.2621  -22.0299  -53.0769 H         1 UNK         0.0600 
    218 H218       -1.2505  -21.1807  -52.8097 H         1 UNK         0.0600 
    219 H219       -0.3288  -21.8022  -51.4384 H         1 UNK         0.0600 
    220 H220       -3.5306  -24.5948  -53.2027 H         1 UNK         0.3000 
    221 H221       -4.7596  -25.1463  -54.9304 H         1 UNK         0.0600 
    222 H222       -2.1021  -25.4463  -56.4113 H         1 UNK         0.0600 
    223 H223       -2.8897  -26.6680  -55.4153 H         1 UNK         0.0600 
    224 H224       -3.6423  -26.1339  -56.9096 H         1 UNK         0.0600 
    225 H225       -5.2852  -21.8012  -56.3486 H         1 UNK         0.3000 
    226 H226       -5.3169  -23.0061  -53.6909 H         1 UNK         0.0600 
    227 H227       -6.9293  -24.4567  -54.9741 H         1 UNK         0.0600 
    228 H228       -7.7397  -23.4749  -53.7724 H         1 UNK         0.0600 
    229 H229       -7.8081  -23.0154  -55.4700 H         1 UNK         0.0600 
    230 H230       -4.3376  -20.5421  -54.6344 H         1 UNK         0.3000 
    231 H231       -6.4771  -18.5118  -54.2919 H         1 UNK         0.0600 
    232 H232       -3.6411  -18.3191  -55.4307 H         1 UNK         0.0600 
    233 H233       -4.8421  -17.0333  -55.4315 H         1 UNK         0.0600 
    234 H234       -5.1215  -18.4865  -56.3748 H         1 UNK         0.0600 
    235 H235       -4.0085  -19.8910  -52.3089 H         1 UNK         0.3000 
    236 H236       -3.1205  -17.4005  -51.0733 H         1 UNK         0.0600 
    237 H237       -1.6134  -19.3912  -51.2795 H         1 UNK         0.0600 
    238 H238       -1.8298  -18.8941  -49.6112 H         1 UNK         0.0600 
    239 H239       -2.6774  -20.3017  -50.2004 H         1 UNK         0.0600 
    240 H240       -3.2884  -16.9777  -48.7672 H         1 UNK         0.3000 
    241 H241       -5.9913  -17.3933  -47.7483 H         1 UNK         0.0600 
    242 H242       -3.1332  -19.2267  -47.3716 H         1 UNK         0.3800 
    243 H243       -3.5280  -19.9410  -45.8203 H         1 UNK         0.3800 
    244 H244       -5.5778  -15.6584  -46.2155 H         1 UNK         0.0800 
    245 H245       -4.9277  -15.1260  -47.7284 H         1 UNK         0.0800 
    246 H246       -1.4927  -14.0340  -46.8810 H         1 UNK         0.0800 
    247 H247       -2.7748  -14.1840  -48.0526 H         1 UNK         0.0800 
@<TRIPOS>BOND
     1    1    2 1    
     2    1  127 1    
     3    1  128 1    
     4    1  129 1    
     5    2    3 2    
     6    2    4 am   BACKBONE|DICT|INTERRES
     7    4    5 1    
     8    4  130 1    
     9    5    6 1    
    10    5   65 1    
    11    5  131 1    
    12    6    7 1    
    13    6  132 1    
    14    6  133 1    
    15    7    8 1    
    16    8    9 1    
    17    8  134 1    
    18    8  135 1    
    19    9   10 ar   
    20    9   14 ar   
    21   10   11 ar   
    22   10  136 1    
    23   11   12 ar   
    24   11  126 1    
    25   12   13 ar   
    26   12  137 1    
    27   13   14 ar   
    28   13   15 1    
    29   14  138 1    
    30   15   16 1    
    31   15  139 1    
    32   15  140 1    
    33   16   17 1    
    34   17   18 1    
    35   17  141 1    
    36   17  142 1    
    37   18   19 1    
    38   18   67 1    
    39   18  143 1    
    40   19   20 am   BACKBONE|DICT|INTERRES
    41   19  144 1    
    42   20   21 2    
    43   20   22 1    
    44   22   23 1    
    45   22   24 1    
    46   22  145 1    
    47   23  146 1    
    48   23  147 1    
    49   23  148 1    
    50   24   25 am   BACKBONE|DICT|INTERRES
    51   24  149 1    
    52   25   26 2    
    53   25   27 1    
    54   27   28 1    
    55   27   29 1    
    56   27  150 1    
    57   28  151 1    
    58   28  152 1    
    59   28  153 1    
    60   29   30 am   BACKBONE|DICT|INTERRES
    61   29  154 1    
    62   30   31 2    
    63   30   32 1    
    64   32   33 1    
    65   32   34 1    
    66   32  155 1    
    67   33  156 1    
    68   33  157 1    
    69   33  158 1    
    70   34   35 am   BACKBONE|DICT|INTERRES
    71   34  159 1    
    72   35   36 2    
    73   35   37 1    
    74   37   38 1    
    75   37   39 1    
    76   37  160 1    
    77   38  161 1    
    78   38  162 1    
    79   38  163 1    
    80   39   40 am   BACKBONE|DICT|INTERRES
    81   39  164 1    
    82   40   41 2    
    83   40   42 1    
    84   42   43 1    
    85   42   44 1    
    86   42  165 1    
    87   43  166 1    
    88   43  167 1    
    89   43  168 1    
    90   44   45 am   BACKBONE|DICT|INTERRES
    91   44  169 1    
    92   45   46 2    
    93   45   47 1    
    94   47   48 1    
    95   47   49 1    
    96   47  170 1    
    97   48  171 1    
    98   48  172 1    
    99   48  173 1    
   100   49   50 am   BACKBONE|DICT|INTERRES
   101   49  174 1    
   102   50   51 2    
   103   50   52 1    
   104   52   53 1    
   105   52   54 1    
   106   52  175 1    
   107   53  176 1    
   108   53  177 1    
   109   53  178 1    
   110   54   55 am   BACKBONE|DICT|INTERRES
   111   54  179 1    
   112   55   56 2    
   113   55   57 1    
   114   57   58 1    
   115   57   59 1    
   116   57  180 1    
   117   58  181 1    
   118   58  182 1    
   119   58  183 1    
   120   59   60 am   BACKBONE|DICT|INTERRES
   121   59  184 1    
   122   60   61 2    
   123   60   62 1    
   124   62   63 1    
   125   62   64 1    
   126   62  185 1    
   127   63  186 1    
   128   63  187 1    
   129   63  188 1    
   130   64   65 am   BACKBONE|DICT|INTERRES
   131   64  189 1    
   132   65   66 2    
   133   67   68 2    
   134   67   69 am   BACKBONE|DICT|INTERRES
   135   69   70 1    
   136   69  190 1    
   137   70   71 1    
   138   70   72 1    
   139   70  191 1    
   140   71  192 1    
   141   71  193 1    
   142   71  194 1    
   143   72   73 2    
   144   72   74 am   BACKBONE|DICT|INTERRES
   145   74   75 1    
   146   74  195 1    
   147   75   76 1    
   148   75   77 1    
   149   75  196 1    
   150   76  197 1    
   151   76  198 1    
   152   76  199 1    
   153   77   78 2    
   154   77   79 am   BACKBONE|DICT|INTERRES
   155   79   80 1    
   156   79  200 1    
   157   80   81 1    
   158   80   82 1    
   159   80  201 1    
   160   81  202 1    
   161   81  203 1    
   162   81  204 1    
   163   82   83 2    
   164   82   84 am   BACKBONE|DICT|INTERRES
   165   84   85 1    
   166   84  205 1    
   167   85   86 1    
   168   85   87 1    
   169   85  206 1    
   170   86  207 1    
   171   86  208 1    
   172   86  209 1    
   173   87   88 2    
   174   87   89 am   BACKBONE|DICT|INTERRES
   175   89   90 1    
   176   89  210 1    
   177   90   91 1    
   178   90   92 1    
   179   90  211 1    
   180   91  212 1    
   181   91  213 1    
   182   91  214 1    
   183   92   93 2    
   184   92   94 am   BACKBONE|DICT|INTERRES
   185   94   95 1    
   186   94  215 1    
   187   95   96 1    
   188   95   97 1    
   189   95  216 1    
   190   96  217 1    
   191   96  218 1    
   192   96  219 1    
   193   97   98 2    
   194   97   99 am   BACKBONE|DICT|INTERRES
   195   99  100 1    
   196   99  220 1    
   197  100  101 1    
   198  100  102 1    
   199  100  221 1    
   200  101  222 1    
   201  101  223 1    
   202  101  224 1    
   203  102  103 2    
   204  102  104 am   BACKBONE|DICT|INTERRES
   205  104  105 1    
   206  104  225 1    
   207  105  106 1    
   208  105  107 1    
   209  105  226 1    
   210  106  227 1    
   211  106  228 1    
   212  106  229 1    
   213  107  108 2    
   214  107  109 am   BACKBONE|DICT|INTERRES
   215  109  110 1    
   216  109  230 1    
   217  110  111 1    
   218  110  112 1    
   219  110  231 1    
   220  111  232 1    
   221  111  233 1    
   222  111  234 1    
   223  112  113 2    
   224  112  114 am   BACKBONE|DICT|INTERRES
   225  114  115 1    
   226  114  235 1    
   227  115  116 1    
   228  115  117 1    
   229  115  236 1    
   230  116  237 1    
   231  116  238 1    
   232  116  239 1    
   233  117  118 2    
   234  117  119 am   BACKBONE|DICT|INTERRES
   235  119  120 1    
   236  119  240 1    
   237  120  121 1    
   238  120  124 1    
   239  120  241 1    
   240  121  122 am   BACKBONE|DICT|INTERRES
   241  121  123 2    
   242  122  242 1    
   243  122  243 1    
   244  124  125 1    
   245  124  244 1    
   246  124  245 1    
   247  125  126 1    
   248  126  246 1    
   249  126  247 1    
@<TRIPOS>SUBSTRUCTURE
     1 UNK         1 GROUP             0       ****    0 ROOT    
