@<TRIPOS>MOLECULE
3R540
247   249    1
SMALL
USER_CHARGES


@<TRIPOS>ATOM
      1 CA          2.0557  -12.0178  -51.0767 C.3       0 UNK        -0.1800 
      2 C           1.6932  -13.4748  -50.8245 C.2       0 UNK         0.5000 
      3 O           2.3584  -14.3706  -51.3448 O.2       0 UNK        -0.5000 
      4 N           0.6372  -13.7142  -50.0382 N.am      1 UNK        -0.5000 
      5 CA          0.1942  -15.0457  -49.6228 C.3       1 UNK         0.1400 
      6 C6         -1.2695  -15.0145  -49.1176 C.3       23 UNK        -0.0398 
      7 S7         -1.9883  -16.6821  -48.9225 S.3       23 UNK        -0.2404 
      8 C8         -3.5595  -16.5073  -49.8354 C.3       23 UNK        -0.0205 
      9 C9         -4.4562  -17.7477  -49.8741 C.ar      23 UNK        -0.0193 
     10 C10        -5.6604  -17.6626  -50.5792 C.ar      23 UNK        -0.1150 
     11 C11        -6.5192  -18.7604  -50.6884 C.ar      23 UNK        -0.0193 
     12 C12        -6.1781  -19.9553  -50.0463 C.ar      23 UNK        -0.1150 
     13 C13        -4.9796  -20.0614  -49.3373 C.ar      23 UNK        -0.0193 
     14 C14        -4.1244  -18.9599  -49.2542 C.ar      23 UNK        -0.1150 
     15 C15        -4.5814  -21.3775  -48.6954 C.3       23 UNK        -0.0205 
     16 S16        -5.0056  -21.4410  -46.9297 S.3       23 UNK        -0.2404 
     17 C17        -3.8761  -22.7629  -46.3757 C.3       23 UNK        -0.0398 
     18 CA         -2.6857  -22.1837  -45.5626 C.3       11 UNK         0.1400 
     19 N          -3.0827  -21.5948  -44.2740 N.am      11 UNK        -0.5000 
     20 C          -3.5711  -22.2420  -43.2048 C.2       10 UNK         0.5000 
     21 O          -3.8966  -23.4295  -43.2113 O.2       10 UNK        -0.5000 
     22 CA         -3.6643  -21.4502  -41.8846 C.3       10 UNK         0.1400 
     23 CB         -2.4659  -21.7871  -40.9839 C.3       10 UNK        -0.1800 
     24 N          -3.7077  -20.0007  -42.0745 N.am      10 UNK        -0.5000 
     25 C          -4.7936  -19.3205  -42.4645 C.2       9 UNK         0.5000 
     26 O          -5.8947  -19.8377  -42.6564 O.2       9 UNK        -0.5000 
     27 CA         -4.6105  -17.8091  -42.6978 C.3       9 UNK         0.1400 
     28 CB         -4.7359  -17.0342  -41.3773 C.3       9 UNK        -0.1800 
     29 N          -3.3322  -17.4839  -43.3329 N.am      9 UNK        -0.5000 
     30 C          -2.9803  -17.8656  -44.5693 C.2       8 UNK         0.5000 
     31 O          -3.7055  -18.5134  -45.3208 O.2       8 UNK        -0.5000 
     32 CA         -1.5636  -17.4930  -45.0273 C.3       8 UNK         0.1400 
     33 CB         -1.5014  -16.0101  -45.4209 C.3       8 UNK        -0.1800 
     34 N          -0.5621  -17.7691  -43.9986 N.am      8 UNK        -0.5000 
     35 C          -0.2190  -18.9840  -43.5510 C.2       7 UNK         0.5000 
     36 O          -0.6429  -20.0368  -44.0233 O.2       7 UNK        -0.5000 
     37 CA          0.7427  -19.0398  -42.3527 C.3       7 UNK         0.1400 
     38 CB          2.2033  -19.0768  -42.8228 C.3       7 UNK        -0.1800 
     39 N           0.5459  -17.9228  -41.4309 N.am      7 UNK        -0.5000 
     40 C          -0.5288  -17.7772  -40.6429 C.2       6 UNK         0.5000 
     41 O          -1.4580  -18.5840  -40.5962 O.2       6 UNK        -0.5000 
     42 CA         -0.5898  -16.4881  -39.8039 C.3       6 UNK         0.1400 
     43 CB          0.2594  -16.6262  -38.5316 C.3       6 UNK        -0.1800 
     44 N          -0.1468  -15.3156  -40.5613 N.am      6 UNK        -0.5000 
     45 C          -0.8203  -14.7950  -41.5965 C.2       5 UNK         0.5000 
     46 O          -1.9070  -15.2239  -41.9847 O.2       5 UNK        -0.5000 
     47 CA         -0.1474  -13.6306  -42.3504 C.3       5 UNK         0.1400 
     48 CB         -0.4873  -12.2901  -41.6824 C.3       5 UNK        -0.1800 
     49 N           1.3100  -13.7599  -42.4670 N.am      5 UNK        -0.5000 
     50 C           1.9400  -14.7668  -43.0862 C.2       4 UNK         0.5000 
     51 O           1.3585  -15.7305  -43.5897 O.2       4 UNK        -0.5000 
     52 CA          3.4733  -14.7192  -43.1048 C.3       4 UNK         0.1400 
     53 CB          4.0364  -15.0821  -41.7163 C.3       4 UNK        -0.1800 
     54 N           3.9455  -15.6727  -44.1039 N.am      4 UNK        -0.5000 
     55 C           5.1871  -15.7675  -44.5928 C.2       3 UNK         0.5000 
     56 O           6.1002  -14.9999  -44.2863 O.2       3 UNK        -0.5000 
     57 CA          5.4716  -16.9223  -45.5730 C.3       3 UNK         0.1400 
     58 CB          6.1507  -18.0861  -44.8329 C.3       3 UNK        -0.1800 
     59 N           4.2612  -17.4303  -46.2216 N.am      3 UNK        -0.5000 
     60 C           3.7541  -16.9647  -47.3703 C.2       2 UNK         0.5000 
     61 O           4.2885  -16.0748  -48.0359 O.2       2 UNK        -0.5000 
     62 CA          2.4615  -17.6480  -47.8778 C.3       2 UNK         0.1400 
     63 CB          1.5610  -18.1703  -46.7377 C.3       2 UNK        -0.1800 
     64 N           1.6599  -16.8236  -48.7884 N.am      2 UNK        -0.5000 
     65 C           1.1500  -15.6065  -48.5482 C.2       1 UNK         0.5000 
     66 O           1.3644  -14.9443  -47.5299 O.2       1 UNK        -0.5000 
     67 C          -1.5161  -23.1834  -45.3824 C.2       11 UNK         0.5000 
     68 O          -1.4520  -24.2044  -46.0678 O.2       11 UNK        -0.5000 
     69 N          -0.6165  -22.8683  -44.4403 N.am      12 UNK        -0.5000 
     70 CA          0.4604  -23.7413  -43.9763 C.3       12 UNK         0.1400 
     71 CB          0.7997  -23.3806  -42.5218 C.3       12 UNK        -0.1800 
     72 C           1.7200  -23.6600  -44.8524 C.2       12 UNK         0.5000 
     73 O           2.4004  -24.6724  -45.0204 O.2       12 UNK        -0.5000 
     74 N           2.0082  -22.4653  -45.3854 N.am      13 UNK        -0.5000 
     75 CA          3.1756  -22.1898  -46.2317 C.3       13 UNK         0.1400 
     76 CB          4.1453  -21.2573  -45.4838 C.3       13 UNK        -0.1800 
     77 C           2.7691  -21.6249  -47.6050 C.2       13 UNK         0.5000 
     78 O           3.6252  -21.1278  -48.3373 O.2       13 UNK        -0.5000 
     79 N           1.4742  -21.7087  -47.9367 N.am      14 UNK        -0.5000 
     80 CA          0.9420  -21.4246  -49.2669 C.3       14 UNK         0.1400 
     81 CB         -0.5723  -21.1970  -49.1448 C.3       14 UNK        -0.1800 
     82 C           1.2752  -22.5939  -50.2163 C.2       14 UNK         0.5000 
     83 O           1.2706  -23.7468  -49.7762 O.2       14 UNK        -0.5000 
     84 N           1.5683  -22.2796  -51.4842 N.am      15 UNK        -0.5000 
     85 CA          2.0259  -23.2017  -52.5294 C.3       15 UNK         0.1400 
     86 CB          2.3277  -22.3928  -53.8022 C.3       15 UNK        -0.1800 
     87 C           1.0277  -24.3431  -52.8102 C.2       15 UNK         0.5000 
     88 O           0.0468  -24.1416  -53.5261 O.2       15 UNK        -0.5000 
     89 N           1.2835  -25.5115  -52.2041 N.am      16 UNK        -0.5000 
     90 CA          0.4115  -26.6931  -52.1747 C.3       16 UNK         0.1400 
     91 CB          0.2770  -27.3215  -53.5782 C.3       16 UNK        -0.1800 
     92 C          -0.9500  -26.4061  -51.5010 C.2       16 UNK         0.5000 
     93 O          -1.9736  -26.9509  -51.9174 O.2       16 UNK        -0.5000 
     94 N          -0.9214  -25.5481  -50.4688 N.am      17 UNK        -0.5000 
     95 CA         -2.0573  -25.0589  -49.6841 C.3       17 UNK         0.1400 
     96 CB         -2.7238  -26.2035  -48.8922 C.3       17 UNK        -0.1800 
     97 C          -3.0555  -24.2280  -50.5192 C.2       17 UNK         0.5000 
     98 O          -4.2663  -24.3535  -50.3336 O.2       17 UNK        -0.5000 
     99 N          -2.5322  -23.3771  -51.4101 N.am      18 UNK        -0.5000 
    100 CA        -3.2861  -22.4309  -52.2277 C.3       18 UNK         0.1400 
    101 CB        -3.8567  -23.1470  -53.4629 C.3       18 UNK        -0.1800 
    102 C         -2.3576  -21.2799  -52.6404 C.2       18 UNK         0.5000 
    103 O         -1.1460  -21.4774  -52.7311 O.2       18 UNK        -0.5000 
    104 N         -2.9293  -20.0994  -52.8851 N.am      19 UNK        -0.5000 
    105 CA        -2.2394  -18.8897  -53.3244 C.3       19 UNK         0.1400 
    106 CB        -1.2935  -18.3716  -52.2206 C.3       19 UNK        -0.1800 
    107 C         -3.2942  -17.8364  -53.6917 C.2       19 UNK         0.5000 
    108 O         -4.4725  -18.0198  -53.3769 O.2       19 UNK        -0.5000 
    109 N         -2.8558  -16.7488  -54.3409 N.am      20 UNK        -0.5000 
    110 CA        -3.6539  -15.5766  -54.7208 C.3       20 UNK         0.1400 
    111 CB        -3.9431  -14.7170  -53.4685 C.3       20 UNK        -0.1800 
    112 C         -4.9166  -15.9660  -55.5228 C.2       20 UNK         0.5000 
    113 O         -4.7885  -16.5812  -56.5833 O.2       20 UNK        -0.5000 
    114 N         -6.1049  -15.6495  -54.9897 N.am      21 UNK        -0.5000 
    115 CA        -7.4151  -15.9818  -55.5559 C.3       21 UNK         0.1400 
    116 CB        -8.5039  -15.3049  -54.7089 C.3       21 UNK        -0.1800 
    117 C         -7.6930  -17.4951  -55.6748 C.2       21 UNK         0.5000 
    118 O         -8.5068  -17.8895  -56.5114 O.2       21 UNK        -0.5000 
    119 N         -7.0121  -18.3096  -54.8592 N.am      22 UNK        -0.5000 
    120 CA        -7.0359  -19.7774  -54.9299 C.3       22 UNK         0.1400 
    121 C         -5.9988  -20.3611  -55.9365 C.2       22 UNK         0.5000 
    122 N         -5.1541  -19.5647  -56.5832 N.am      22 UNK        -0.7600 
    123 O         -5.9724  -21.5688  -56.1539 O.2       22 UNK        -0.5000 
    124 C124       -6.8831  -20.4180  -53.5254 C.3       23 UNK        -0.0398 
    125 S125       -8.3123  -20.1054  -52.4316 S.3       23 UNK        -0.2404 
    126 C126       -7.8088  -18.6175  -51.4951 C.3       23 UNK        -0.0205 
    127 H127        1.3762  -11.3359  -50.5648 H         1 UNK         0.0600 
    128 H128        2.0152  -11.8002  -52.1440 H         1 UNK         0.0600 
    129 H129        3.0676  -11.8171  -50.7248 H         1 UNK         0.0600 
    130 H130        0.1542  -12.9371  -49.6108 H         1 UNK         0.3000 
    131 H131        0.2278  -15.6935  -50.5021 H         1 UNK         0.0600 
    132 H132       -1.8830  -14.4528  -49.8234 H         1 UNK         0.0800 
    133 H133       -1.3470  -14.4824  -48.1678 H         1 UNK         0.0800 
    134 H134       -3.3267  -16.2203  -50.8612 H         1 UNK         0.0800 
    135 H135       -4.1247  -15.6838  -49.3969 H         1 UNK         0.0800 
    136 H136       -5.9195  -16.7352  -51.0703 H         1 UNK         0.1150 
    137 H137       -6.8365  -20.8099  -50.1091 H         1 UNK         0.1150 
    138 H138       -3.2026  -19.0651  -48.7021 H         1 UNK         0.1150 
    139 H139       -5.0799  -22.2044  -49.2002 H         1 UNK         0.0800 
    140 H140       -3.5100  -21.5274  -48.8292 H         1 UNK         0.0800 
    141 H141       -3.5279  -23.3107  -47.2525 H         1 UNK         0.0800 
    142 H142       -4.4409  -23.4849  -45.7855 H         1 UNK         0.0800 
    143 H143       -2.2612  -21.3629  -46.1434 H         1 UNK         0.0600 
    144 H144       -2.8351  -20.6210  -44.1594 H         1 UNK         0.3000 
    145 H145       -4.5756  -21.7659  -41.3724 H         1 UNK         0.0600 
    146 H146       -2.5507  -21.2947  -40.0149 H         1 UNK         0.0600 
    147 H147       -2.4016  -22.8601  -40.7990 H         1 UNK         0.0600 
    148 H148       -1.5247  -21.4726  -41.4359 H         1 UNK         0.0600 
    149 H149       -2.8593  -19.4859  -41.8645 H         1 UNK         0.3000 
    150 H150       -5.4087  -17.4773  -43.3649 H         1 UNK         0.0600 
    151 H151       -5.6884  -17.2441  -40.8894 H         1 UNK         0.0600 
    152 H152       -4.6865  -15.9583  -41.5462 H         1 UNK         0.0600 
    153 H153       -3.9421  -17.2985  -40.6779 H         1 UNK         0.0600 
    154 H154       -2.6918  -16.9059  -42.7979 H         1 UNK         0.3000 
    155 H155       -1.3301  -18.0942  -45.9077 H         1 UNK         0.0600 
    156 H156       -1.6810  -15.3561  -44.5705 H         1 UNK         0.0600 
    157 H157       -2.2573  -15.7721  -46.1686 H         1 UNK         0.0600 
    158 H158       -0.5297  -15.7522  -45.8384 H         1 UNK         0.0600 
    159 H159       -0.0759  -16.9632  -43.6163 H         1 UNK         0.3000 
    160 H160        0.5403  -19.9642  -41.8079 H         1 UNK         0.0600 
    161 H161        2.4581  -18.2108  -43.4331 H         1 UNK         0.0600 
    162 H162        2.3874  -19.9704  -43.4180 H         1 UNK         0.0600 
    163 H163        2.8910  -19.1062  -41.9775 H         1 UNK         0.0600 
    164 H164        1.2364  -17.1879  -41.4513 H         1 UNK         0.3000 
    165 H165       -1.6290  -16.3327  -39.5060 H         1 UNK         0.0600 
    166 H166        0.1628  -15.7455  -37.8964 H         1 UNK         0.0600 
    167 H167       -0.0592  -17.4872  -37.9422 H         1 UNK         0.0600 
    168 H168        1.3170  -16.7594  -38.7625 H         1 UNK         0.0600 
    169 H169        0.7367  -14.9035  -40.3010 H         1 UNK         0.3000 
    170 H170       -0.5563  -13.6159  -43.3624 H         1 UNK         0.0600 
    171 H171       -1.5671  -12.1570  -41.6013 H         1 UNK         0.0600 
    172 H172       -0.0718  -12.2238  -40.6761 H         1 UNK         0.0600 
    173 H173       -0.1012  -11.4512  -42.2617 H         1 UNK         0.0600 
    174 H174        1.8588  -13.0127  -42.0665 H         1 UNK         0.3000 
    175 H175        3.7893  -13.7137  -43.3893 H         1 UNK         0.0600 
    176 H176        3.7527  -16.0931  -41.4209 H         1 UNK         0.0600 
    177 H177        5.1246  -15.0242  -41.6986 H         1 UNK         0.0600 
    178 H178        3.6699  -14.3995  -40.9488 H         1 UNK         0.0600 
    179 H179        3.2180  -16.2837  -44.4515 H         1 UNK         0.3000 
    180 H180        6.1662  -16.5517  -46.3300 H         1 UNK         0.0600 
    181 H181        5.5059  -18.5045  -44.0588 H         1 UNK         0.0600 
    182 H182        7.0721  -17.7580  -44.3501 H         1 UNK         0.0600 
    183 H183        6.4152  -18.8895  -45.5206 H         1 UNK         0.0600 
    184 H184        3.7802  -18.1788  -45.7488 H         1 UNK         0.3000 
    185 H185        2.7879  -18.5068  -48.4648 H         1 UNK         0.0600 
    186 H186        2.0417  -18.9573  -46.1608 H         1 UNK         0.0600 
    187 H187        1.2928  -17.3700  -46.0483 H         1 UNK         0.0600 
    188 H188        0.6393  -18.5956  -47.1341 H         1 UNK         0.0600 
    189 H189        1.4592  -17.2482  -49.6819 H         1 UNK         0.3000 
    190 H190       -0.7075  -21.9619  -43.9909 H         1 UNK         0.3000 
    191 H191        0.1087  -24.7753  -43.9942 H         1 UNK         0.0600 
    192 H192       -0.0627  -23.5228  -41.8708 H         1 UNK         0.0600 
    193 H193        1.1263  -22.3445  -42.4275 H         1 UNK         0.0600 
    194 H194        1.6009  -24.0138  -42.1383 H         1 UNK         0.0600 
    195 H195        1.3878  -21.6907  -45.1964 H         1 UNK         0.3000 
    196 H196        3.7131  -23.1151  -46.4475 H         1 UNK         0.0600 
    197 H197        5.0629  -21.1070  -46.0538 H         1 UNK         0.0600 
    198 H198        4.4316  -21.6792  -44.5203 H         1 UNK         0.0600 
    199 H199        3.7108  -20.2772  -45.3030 H         1 UNK         0.0600 
    200 H200        0.8643  -22.2099  -47.3095 H         1 UNK         0.3000 
    201 H201        1.4016  -20.5098  -49.6472 H         1 UNK         0.0600 
    202 H202       -0.7939  -20.3879  -48.4482 H         1 UNK         0.0600 
    203 H203       -1.0883  -22.0897  -48.7935 H         1 UNK         0.0600 
    204 H204       -1.0042  -20.9160  -50.1035 H         1 UNK         0.0600 
    205 H205        1.4591  -21.3201  -51.7781 H         1 UNK         0.3000 
    206 H206        2.9645  -23.6444  -52.1902 H         1 UNK         0.0600 
    207 H207        3.1142  -21.6586  -53.6270 H         1 UNK         0.0600 
    208 H208        2.6657  -23.0448  -54.6087 H         1 UNK         0.0600 
    209 H209        1.4447  -21.8601  -54.1584 H         1 UNK         0.0600 
    210 H210        2.0951  -25.5617  -51.6034 H         1 UNK         0.3000 
    211 H211        0.9119  -27.4236  -51.5376 H         1 UNK         0.0600 
    212 H212       -0.2856  -26.6820  -54.2588 H         1 UNK         0.0600 
    213 H213       -0.2426  -28.2790  -53.5281 H         1 UNK         0.0600 
    214 H214        1.2547  -27.5071  -54.0226 H         1 UNK         0.0600 
    215 H215       -0.0269  -25.1271  -50.2306 H         1 UNK         0.3000 
    216 H216       -1.6351  -24.3724  -48.9501 H         1 UNK         0.0600 
    217 H217       -3.4695  -25.8136  -48.1984 H         1 UNK         0.0600 
    218 H218       -1.9904  -26.7508  -48.3001 H         1 UNK         0.0600 
    219 H219       -3.2277  -26.9144  -49.5473 H         1 UNK         0.0600 
    220 H220       -1.5305  -23.3368  -51.5549 H         1 UNK         0.3000 
    221 H221       -4.1053  -22.0149  -51.6377 H         1 UNK         0.0600 
    222 H222       -3.0661  -23.6122  -54.0533 H         1 UNK         0.0600 
    223 H223       -4.5654  -23.9251  -53.1793 H         1 UNK         0.0600 
    224 H224       -4.3840  -22.4483  -54.1119 H         1 UNK         0.0600 
    225 H225       -3.9281  -19.9694  -52.7855 H         1 UNK         0.3000 
    226 H226       -1.6652  -19.1171  -54.2246 H         1 UNK         0.0600 
    227 H227       -0.4137  -19.0063  -52.1201 H         1 UNK         0.0600 
    228 H228       -0.9347  -17.3630  -52.4281 H         1 UNK         0.0600 
    229 H229       -1.7951  -18.3535  -51.2551 H         1 UNK         0.0600 
    230 H230       -1.8802  -16.7062  -54.5986 H         1 UNK         0.3000 
    231 H231       -3.0361  -14.9826  -55.3957 H         1 UNK         0.0600 
    232 H232       -4.5622  -15.2437  -52.7416 H         1 UNK         0.0600 
    233 H233       -4.4518  -13.7894  -53.7342 H         1 UNK         0.0600 
    234 H234       -3.0163  -14.4380  -52.9670 H         1 UNK         0.0600 
    235 H235       -6.1121  -15.1684  -54.1025 H         1 UNK         0.3000 
    236 H236       -7.4550  -15.5644  -56.5640 H         1 UNK         0.0600 
    237 H237       -9.4963  -15.5031  -55.1162 H         1 UNK         0.0600 
    238 H238       -8.4940  -15.6656  -53.6795 H         1 UNK         0.0600 
    239 H239       -8.3735  -14.2228  -54.6883 H         1 UNK         0.0600 
    240 H240       -6.3125  -17.9181  -54.2370 H         1 UNK         0.3000 
    241 H241       -8.0087  -20.0879  -55.3156 H         1 UNK         0.0600 
    242 H242       -4.5066  -19.9700  -57.2398 H         1 UNK         0.3800 
    243 H243       -5.1686  -18.5591  -56.4555 H         1 UNK         0.3800 
    244 H244       -6.7988  -21.5027  -53.6099 H         1 UNK         0.0800 
    245 H245       -5.9646  -20.0892  -53.0431 H         1 UNK         0.0800 
    246 H246       -7.7239  -17.7863  -52.1960 H         1 UNK         0.0800 
    247 H247       -8.6135  -18.3550  -50.8077 H         1 UNK         0.0800 
@<TRIPOS>BOND
     1    1    2 1    
     2    1  127 1    
     3    1  128 1    
     4    1  129 1    
     5    2    3 2    
     6    2    4 am   BACKBONE|DICT|INTERRES
     7    4    5 1    
     8    4  130 1    
     9    5    6 1    
    10    5   65 1    
    11    5  131 1    
    12    6    7 1    
    13    6  132 1    
    14    6  133 1    
    15    7    8 1    
    16    8    9 1    
    17    8  134 1    
    18    8  135 1    
    19    9   10 ar   
    20    9   14 ar   
    21   10   11 ar   
    22   10  136 1    
    23   11   12 ar   
    24   11  126 1    
    25   12   13 ar   
    26   12  137 1    
    27   13   14 ar   
    28   13   15 1    
    29   14  138 1    
    30   15   16 1    
    31   15  139 1    
    32   15  140 1    
    33   16   17 1    
    34   17   18 1    
    35   17  141 1    
    36   17  142 1    
    37   18   19 1    
    38   18   67 1    
    39   18  143 1    
    40   19   20 am   BACKBONE|DICT|INTERRES
    41   19  144 1    
    42   20   21 2    
    43   20   22 1    
    44   22   23 1    
    45   22   24 1    
    46   22  145 1    
    47   23  146 1    
    48   23  147 1    
    49   23  148 1    
    50   24   25 am   BACKBONE|DICT|INTERRES
    51   24  149 1    
    52   25   26 2    
    53   25   27 1    
    54   27   28 1    
    55   27   29 1    
    56   27  150 1    
    57   28  151 1    
    58   28  152 1    
    59   28  153 1    
    60   29   30 am   BACKBONE|DICT|INTERRES
    61   29  154 1    
    62   30   31 2    
    63   30   32 1    
    64   32   33 1    
    65   32   34 1    
    66   32  155 1    
    67   33  156 1    
    68   33  157 1    
    69   33  158 1    
    70   34   35 am   BACKBONE|DICT|INTERRES
    71   34  159 1    
    72   35   36 2    
    73   35   37 1    
    74   37   38 1    
    75   37   39 1    
    76   37  160 1    
    77   38  161 1    
    78   38  162 1    
    79   38  163 1    
    80   39   40 am   BACKBONE|DICT|INTERRES
    81   39  164 1    
    82   40   41 2    
    83   40   42 1    
    84   42   43 1    
    85   42   44 1    
    86   42  165 1    
    87   43  166 1    
    88   43  167 1    
    89   43  168 1    
    90   44   45 am   BACKBONE|DICT|INTERRES
    91   44  169 1    
    92   45   46 2    
    93   45   47 1    
    94   47   48 1    
    95   47   49 1    
    96   47  170 1    
    97   48  171 1    
    98   48  172 1    
    99   48  173 1    
   100   49   50 am   BACKBONE|DICT|INTERRES
   101   49  174 1    
   102   50   51 2    
   103   50   52 1    
   104   52   53 1    
   105   52   54 1    
   106   52  175 1    
   107   53  176 1    
   108   53  177 1    
   109   53  178 1    
   110   54   55 am   BACKBONE|DICT|INTERRES
   111   54  179 1    
   112   55   56 2    
   113   55   57 1    
   114   57   58 1    
   115   57   59 1    
   116   57  180 1    
   117   58  181 1    
   118   58  182 1    
   119   58  183 1    
   120   59   60 am   BACKBONE|DICT|INTERRES
   121   59  184 1    
   122   60   61 2    
   123   60   62 1    
   124   62   63 1    
   125   62   64 1    
   126   62  185 1    
   127   63  186 1    
   128   63  187 1    
   129   63  188 1    
   130   64   65 am   BACKBONE|DICT|INTERRES
   131   64  189 1    
   132   65   66 2    
   133   67   68 2    
   134   67   69 am   BACKBONE|DICT|INTERRES
   135   69   70 1    
   136   69  190 1    
   137   70   71 1    
   138   70   72 1    
   139   70  191 1    
   140   71  192 1    
   141   71  193 1    
   142   71  194 1    
   143   72   73 2    
   144   72   74 am   BACKBONE|DICT|INTERRES
   145   74   75 1    
   146   74  195 1    
   147   75   76 1    
   148   75   77 1    
   149   75  196 1    
   150   76  197 1    
   151   76  198 1    
   152   76  199 1    
   153   77   78 2    
   154   77   79 am   BACKBONE|DICT|INTERRES
   155   79   80 1    
   156   79  200 1    
   157   80   81 1    
   158   80   82 1    
   159   80  201 1    
   160   81  202 1    
   161   81  203 1    
   162   81  204 1    
   163   82   83 2    
   164   82   84 am   BACKBONE|DICT|INTERRES
   165   84   85 1    
   166   84  205 1    
   167   85   86 1    
   168   85   87 1    
   169   85  206 1    
   170   86  207 1    
   171   86  208 1    
   172   86  209 1    
   173   87   88 2    
   174   87   89 am   BACKBONE|DICT|INTERRES
   175   89   90 1    
   176   89  210 1    
   177   90   91 1    
   178   90   92 1    
   179   90  211 1    
   180   91  212 1    
   181   91  213 1    
   182   91  214 1    
   183   92   93 2    
   184   92   94 am   BACKBONE|DICT|INTERRES
   185   94   95 1    
   186   94  215 1    
   187   95   96 1    
   188   95   97 1    
   189   95  216 1    
   190   96  217 1    
   191   96  218 1    
   192   96  219 1    
   193   97   98 2    
   194   97   99 am   BACKBONE|DICT|INTERRES
   195   99  100 1    
   196   99  220 1    
   197  100  101 1    
   198  100  102 1    
   199  100  221 1    
   200  101  222 1    
   201  101  223 1    
   202  101  224 1    
   203  102  103 2    
   204  102  104 am   BACKBONE|DICT|INTERRES
   205  104  105 1    
   206  104  225 1    
   207  105  106 1    
   208  105  107 1    
   209  105  226 1    
   210  106  227 1    
   211  106  228 1    
   212  106  229 1    
   213  107  108 2    
   214  107  109 am   BACKBONE|DICT|INTERRES
   215  109  110 1    
   216  109  230 1    
   217  110  111 1    
   218  110  112 1    
   219  110  231 1    
   220  111  232 1    
   221  111  233 1    
   222  111  234 1    
   223  112  113 2    
   224  112  114 am   BACKBONE|DICT|INTERRES
   225  114  115 1    
   226  114  235 1    
   227  115  116 1    
   228  115  117 1    
   229  115  236 1    
   230  116  237 1    
   231  116  238 1    
   232  116  239 1    
   233  117  118 2    
   234  117  119 am   BACKBONE|DICT|INTERRES
   235  119  120 1    
   236  119  240 1    
   237  120  121 1    
   238  120  124 1    
   239  120  241 1    
   240  121  122 am   BACKBONE|DICT|INTERRES
   241  121  123 2    
   242  122  242 1    
   243  122  243 1    
   244  124  125 1    
   245  124  244 1    
   246  124  245 1    
   247  125  126 1    
   248  126  246 1    
   249  126  247 1    
@<TRIPOS>SUBSTRUCTURE
     1 UNK         1 GROUP             0       ****    0 ROOT    
