@<TRIPOS>MOLECULE
3R540
247   249    1
SMALL
USER_CHARGES


@<TRIPOS>ATOM
      1 CA          3.6508  -12.7679  -43.8886 C.3       0 UNK        -0.1800 
      2 C           2.5848  -13.0739  -44.9290 C.2       0 UNK         0.5000 
      3 O           1.4124  -12.7678  -44.7136 O.2       0 UNK        -0.5000 
      4 N           2.9828  -13.6604  -46.0654 N.am      1 UNK        -0.5000 
      5 CA          2.0907  -14.1003  -47.1488 C.3       1 UNK         0.1400 
      6 C6          2.8320  -14.9342  -48.2219 C.3       23 UNK        -0.0398 
      7 S7          3.6518  -16.3962  -47.5033 S.3       23 UNK        -0.2404 
      8 C8          2.5090  -17.7338  -47.9659 C.3       23 UNK        -0.0205 
      9 C9          2.9177  -18.3649  -49.2840 C.ar      23 UNK        -0.0193 
     10 C10         2.3637  -17.9295  -50.4898 C.ar      23 UNK        -0.1150 
     11 C11         2.7503  -18.5130  -51.7051 C.ar      23 UNK        -0.0193 
     12 C12         3.7088  -19.5321  -51.6901 C.ar      23 UNK        -0.1150 
     13 C13         4.2523  -19.9930  -50.4863 C.ar      23 UNK        -0.0193 
     14 C14         3.8564  -19.3962  -49.2895 C.ar      23 UNK        -0.1150 
     15 C15         5.2604  -21.1363  -50.4530 C.3       23 UNK        -0.0205 
     16 S16         4.8031  -22.5695  -51.4857 S.3       23 UNK        -0.2404 
     17 C17         3.0836  -22.9283  -50.9872 C.3       23 UNK        -0.0398 
     18 CA          2.9914  -23.9952  -49.8724 C.3       11 UNK         0.1400 
     19 N           3.2854  -23.4322  -48.5476 N.am      11 UNK        -0.5000 
     20 C           3.6479  -24.1520  -47.4790 C.2       10 UNK         0.5000 
     21 O           3.7789  -25.3764  -47.4969 O.2       10 UNK        -0.5000 
     22 CA          3.9086  -23.3878  -46.1668 C.3       10 UNK         0.1400 
     23 CB          5.0461  -22.3571  -46.3107 C.3       10 UNK        -0.1800 
     24 N           2.7071  -22.7896  -45.5736 N.am      10 UNK        -0.5000 
     25 C           1.9480  -21.7864  -46.0379 C.2       9 UNK         0.5000 
     26 O           2.1457  -21.2207  -47.1140 O.2       9 UNK        -0.5000 
     27 CA          0.7544  -21.3428  -45.1629 C.3       9 UNK         0.1400 
     28 CB          0.4135  -22.3099  -44.0054 C.3       9 UNK        -0.1800 
     29 N           0.9034  -19.9812  -44.6468 N.am      9 UNK        -0.5000 
     30 C           1.8869  -19.4966  -43.8738 C.2       8 UNK         0.5000 
     31 O           2.8789  -20.1400  -43.5290 O.2       8 UNK        -0.5000 
     32 CA          1.7065  -18.0576  -43.3491 C.3       8 UNK         0.1400 
     33 CB          2.1645  -17.0216  -44.3808 C.3       8 UNK        -0.1800 
     34 N           0.3298  -17.7599  -42.9564 N.am      8 UNK        -0.5000 
     35 C          -0.2920  -18.2991  -41.8983 C.2       7 UNK         0.5000 
     36 O           0.2370  -19.0922  -41.1188 O.2       7 UNK        -0.5000 
     37 CA         -1.7544  -17.8812  -41.6765 C.3       7 UNK         0.1400 
     38 CB         -1.8309  -16.5258  -40.9571 C.3       7 UNK        -0.1800 
     39 N          -2.4863  -17.8078  -42.9401 N.am      7 UNK        -0.5000 
     40 C          -2.9981  -18.8737  -43.5713 C.2       6 UNK         0.5000 
     41 O          -2.9444  -20.0203  -43.1294 O.2       6 UNK        -0.5000 
     42 CA         -3.6856  -18.6184  -44.9264 C.3       6 UNK         0.1400 
     43 CB         -5.1702  -18.2871  -44.7115 C.3       6 UNK        -0.1800 
     44 N          -3.0605  -17.5420  -45.6970 N.am      6 UNK        -0.5000 
     45 C          -1.8164  -17.5841  -46.1952 C.2       5 UNK         0.5000 
     46 O          -1.0693  -18.5542  -46.0877 O.2       5 UNK        -0.5000 
     47 CA         -1.2960  -16.3082  -46.8818 C.3       5 UNK         0.1400 
     48 CB         -1.6122  -16.3294  -48.3847 C.3       5 UNK        -0.1800 
     49 N          -1.8031  -15.0690  -46.2822 N.am      5 UNK        -0.5000 
     50 C          -1.6174  -14.7135  -45.0037 C.2       4 UNK         0.5000 
     51 O          -0.9560  -15.3786  -44.2034 O.2       4 UNK        -0.5000 
     52 CA         -2.3076  -13.4228  -44.5457 C.3       4 UNK         0.1400 
     53 CB         -2.7391  -13.4914  -43.0671 C.3       4 UNK        -0.1800 
     54 N          -1.4126  -12.2916  -44.7566 N.am      4 UNK        -0.5000 
     55 C          -1.8098  -11.0162  -44.8507 C.2       3 UNK         0.5000 
     56 O          -2.9895  -10.6626  -44.8247 O.2       3 UNK        -0.5000 
     57 CA         -0.7102   -9.9545  -45.0057 C.3       3 UNK         0.1400 
     58 CB          0.0244   -9.7260  -43.6744 C.3       3 UNK        -0.1800 
     59 N           0.2521  -10.3393  -46.0350 N.am      3 UNK        -0.5000 
     60 C           0.1647   -9.9873  -47.3254 C.2       2 UNK         0.5000 
     61 O          -0.7291   -9.2716  -47.7792 O.2       2 UNK        -0.5000 
     62 CA          1.2625  -10.5078  -48.2753 C.3       2 UNK         0.1400 
     63 CB          2.3464   -9.4381  -48.4795 C.3       2 UNK        -0.1800 
     64 N           1.8961  -11.7380  -47.8009 N.am      2 UNK        -0.5000 
     65 C           1.3117  -12.9438  -47.8092 C.2       1 UNK         0.5000 
     66 O           0.1969  -13.1575  -48.2842 O.2       1 UNK        -0.5000 
     67 C           1.6157  -24.6924  -49.9115 C.2       11 UNK         0.5000 
     68 O           1.4342  -25.6221  -50.6988 O.2       11 UNK        -0.5000 
     69 N           0.6803  -24.2454  -49.0679 N.am      12 UNK        -0.5000 
     70 CA         -0.6378  -24.8356  -48.8856 C.3       12 UNK         0.1400 
     71 CB         -1.6651  -24.0930  -49.7570 C.3       12 UNK        -0.1800 
     72 C          -0.9906  -24.7114  -47.4032 C.2       12 UNK         0.5000 
     73 O          -0.7626  -23.6503  -46.8204 O.2       12 UNK        -0.5000 
     74 N          -1.5741  -25.7641  -46.8198 N.am      13 UNK        -0.5000 
     75 CA         -1.9968  -25.8245  -45.4160 C.3       13 UNK         0.1400 
     76 CB         -2.0405  -27.2996  -44.9777 C.3       13 UNK        -0.1800 
     77 C          -3.3390  -25.0945  -45.1923 C.2       13 UNK         0.5000 
     78 O          -4.2998  -25.6940  -44.7077 O.2       13 UNK        -0.5000 
     79 N          -3.3860  -23.8210  -45.6102 N.am      14 UNK        -0.5000 
     80 CA         -4.5449  -22.9195  -45.6336 C.3       14 UNK         0.1400 
     81 CB         -5.0421  -22.6209  -44.2052 C.3       14 UNK        -0.1800 
     82 C          -5.6855  -23.3944  -46.5618 C.2       14 UNK         0.5000 
     83 O          -6.8201  -22.9376  -46.4118 O.2       14 UNK        -0.5000 
     84 N          -5.3681  -24.2797  -47.5196 N.am      15 UNK        -0.5000 
     85 CA         -6.2967  -24.8663  -48.4866 C.3       15 UNK         0.1400 
     86 CB         -5.5647  -25.9312  -49.3166 C.3       15 UNK        -0.1800 
     87 C          -6.9179  -23.7857  -49.3860 C.2       15 UNK         0.5000 
     88 O          -6.1906  -23.1242  -50.1325 O.2       15 UNK        -0.5000 
     89 N          -8.2343  -23.5839  -49.2307 N.am      16 UNK        -0.5000 
     90 CA         -9.0374  -22.5155  -49.8358 C.3       16 UNK         0.1400 
     91 CB         -9.1703  -22.7376  -51.3571 C.3       16 UNK        -0.1800 
     92 C          -8.5192  -21.1081  -49.4632 C.2       16 UNK         0.5000 
     93 O          -8.4498  -20.2285  -50.3197 O.2       16 UNK        -0.5000 
     94 N          -8.1044  -20.9425  -48.1966 N.am      17 UNK        -0.5000 
     95 CA         -7.4357  -19.7610  -47.6328 C.3       17 UNK         0.1400 
     96 CB         -8.3719  -18.5348  -47.6263 C.3       17 UNK        -0.1800 
     97 C          -6.0692  -19.4807  -48.2974 C.2       17 UNK         0.5000 
     98 O          -5.6713  -18.3248  -48.4418 O.2       17 UNK        -0.5000 
     99 N          -5.3891  -20.5661  -48.6939 N.am      18 UNK        -0.5000 
    100 CA        -4.1244  -20.6236  -49.4289 C.3       18 UNK         0.1400 
    101 CB        -2.9698  -19.9655  -48.6503 C.3       18 UNK        -0.1800 
    102 C         -4.2307  -20.1326  -50.8862 C.2       18 UNK         0.5000 
    103 O         -3.2052  -19.8190  -51.4962 O.2       18 UNK        -0.5000 
    104 N         -5.4428  -20.1467  -51.4653 N.am      19 UNK        -0.5000 
    105 CA        -5.6730  -19.9429  -52.9021 C.3       19 UNK         0.1400 
    106 CB        -7.1730  -19.7890  -53.1846 C.3       19 UNK        -0.1800 
    107 C         -5.0678  -21.0680  -53.7644 C.2       19 UNK         0.5000 
    108 O         -4.7599  -20.8382  -54.9339 O.2       19 UNK        -0.5000 
    109 N         -4.8641  -22.2468  -53.1563 N.am      20 UNK        -0.5000 
    110 CA        -4.1128  -23.3663  -53.7217 C.3       20 UNK         0.1400 
    111 CB        -4.2896  -24.5862  -52.8061 C.3       20 UNK        -0.1800 
    112 C         -2.6132  -23.0562  -53.9223 C.2       20 UNK         0.5000 
    113 O         -1.9945  -23.6523  -54.8046 O.2       20 UNK        -0.5000 
    114 N         -2.0602  -22.1362  -53.1168 N.am      21 UNK        -0.5000 
    115 CA        -0.6990  -21.6265  -53.2594 C.3       21 UNK         0.1400 
    116 CB        -0.1054  -21.3009  -51.8770 C.3       21 UNK        -0.1800 
    117 C         -0.6914  -20.3986  -54.1831 C.2       21 UNK         0.5000 
    118 O         -0.0838  -20.4501  -55.2530 O.2       21 UNK        -0.5000 
    119 N         -1.3700  -19.3258  -53.7586 N.am      22 UNK        -0.5000 
    120 CA        -1.4470  -18.0381  -54.4724 C.3       22 UNK         0.1400 
    121 C         -2.5453  -17.0681  -53.9474 C.2       22 UNK         0.5000 
    122 N         -3.2079  -17.3248  -52.8268 N.am      22 UNK        -0.7600 
    123 O         -2.8173  -16.0544  -54.5853 O.2       22 UNK        -0.5000 
    124 C124       -0.0727  -17.3148  -54.5991 C.3       23 UNK        -0.0398 
    125 S125        0.7232  -16.9803  -52.9873 S.3       23 UNK        -0.2404 
    126 C126        2.1627  -18.1027  -53.0564 C.3       23 UNK        -0.0205 
    127 H127        3.4277  -13.2952  -42.9611 H         1 UNK         0.0600 
    128 H128        3.6726  -11.6988  -43.6779 H         1 UNK         0.0600 
    129 H129        4.6430  -13.0712  -44.2233 H         1 UNK         0.0600 
    130 H130        3.9576  -13.8980  -46.1845 H         1 UNK         0.3000 
    131 H131        1.3444  -14.7426  -46.6823 H         1 UNK         0.0600 
    132 H132        3.5938  -14.3292  -48.7165 H         1 UNK         0.0800 
    133 H133        2.1453  -15.2546  -49.0071 H         1 UNK         0.0800 
    134 H134        2.5188  -18.4917  -47.1808 H         1 UNK         0.0800 
    135 H135        1.4834  -17.3686  -48.0162 H         1 UNK         0.0800 
    136 H136        1.6319  -17.1365  -50.4660 H         1 UNK         0.1150 
    137 H137        4.0158  -19.9885  -52.6208 H         1 UNK         0.1150 
    138 H138        4.2748  -19.7327  -48.3521 H         1 UNK         0.1150 
    139 H139        6.2272  -20.7581  -50.7871 H         1 UNK         0.0800 
    140 H140        5.4068  -21.4895  -49.4314 H         1 UNK         0.0800 
    141 H141        2.5817  -23.2692  -51.8951 H         1 UNK         0.0800 
    142 H142        2.5622  -22.0190  -50.6898 H         1 UNK         0.0800 
    143 H143        3.7310  -24.7711  -50.0832 H         1 UNK         0.0600 
    144 H144        3.1218  -22.4395  -48.4141 H         1 UNK         0.3000 
    145 H145        4.2486  -24.1305  -45.4433 H         1 UNK         0.0600 
    146 H146        5.2982  -21.9171  -45.3458 H         1 UNK         0.0600 
    147 H147        5.9500  -22.8264  -46.7009 H         1 UNK         0.0600 
    148 H148        4.7851  -21.5437  -46.9855 H         1 UNK         0.0600 
    149 H149        2.4348  -23.1867  -44.6859 H         1 UNK         0.3000 
    150 H150       -0.1090  -21.3106  -45.8285 H         1 UNK         0.0600 
    151 H151        0.2579  -23.3263  -44.3671 H         1 UNK         0.0600 
    152 H152       -0.5089  -22.0047  -43.5103 H         1 UNK         0.0600 
    153 H153        1.1968  -22.3411  -43.2476 H         1 UNK         0.0600 
    154 H154        0.1683  -19.3443  -44.9443 H         1 UNK         0.3000 
    155 H155        2.3376  -17.9484  -42.4645 H         1 UNK         0.0600 
    156 H156        2.1063  -16.0104  -43.9780 H         1 UNK         0.0600 
    157 H157        1.5506  -17.0564  -45.2801 H         1 UNK         0.0600 
    158 H158        3.2000  -17.1979  -44.6726 H         1 UNK         0.0600 
    159 H159       -0.1644  -17.0671  -43.5098 H         1 UNK         0.3000 
    160 H160       -2.2271  -18.6280  -41.0346 H         1 UNK         0.0600 
    161 H161       -1.3306  -15.7392  -41.5219 H         1 UNK         0.0600 
    162 H162       -1.3514  -16.5789  -39.9790 H         1 UNK         0.0600 
    163 H163       -2.8649  -16.2200  -40.7966 H         1 UNK         0.0600 
    164 H164       -2.5168  -16.9066  -43.3947 H         1 UNK         0.3000 
    165 H165       -3.6193  -19.5362  -45.5132 H         1 UNK         0.0600 
    166 H166       -5.6776  -18.1001  -45.6565 H         1 UNK         0.0600 
    167 H167       -5.6869  -19.1131  -44.2210 H         1 UNK         0.0600 
    168 H168       -5.2986  -17.4022  -44.0869 H         1 UNK         0.0600 
    169 H169       -3.6097  -16.7083  -45.8437 H         1 UNK         0.3000 
    170 H170       -0.2138  -16.3117  -46.7650 H         1 UNK         0.0600 
    171 H171       -1.2090  -17.2268  -48.8564 H         1 UNK         0.0600 
    172 H172       -2.6868  -16.3142  -48.5713 H         1 UNK         0.0600 
    173 H173       -1.1703  -15.4736  -48.8947 H         1 UNK         0.0600 
    174 H174       -2.3246  -14.4549  -46.8914 H         1 UNK         0.3000 
    175 H175       -3.2038  -13.2921  -45.1561 H         1 UNK         0.0600 
    176 H176       -1.8773  -13.5183  -42.3994 H         1 UNK         0.0600 
    177 H177       -3.3458  -12.6293  -42.7902 H         1 UNK         0.0600 
    178 H178       -3.3377  -14.3822  -42.8728 H         1 UNK         0.0600 
    179 H179       -0.4172  -12.5100  -44.7775 H         1 UNK         0.3000 
    180 H180       -1.1890   -9.0125  -45.2818 H         1 UNK         0.0600 
    181 H181        0.5297  -10.6269  -43.3253 H         1 UNK         0.0600 
    182 H182       -0.6729   -9.4192  -42.8938 H         1 UNK         0.0600 
    183 H183        0.7727   -8.9392  -43.7691 H         1 UNK         0.0600 
    184 H184        0.9737  -10.9899  -45.7511 H         1 UNK         0.3000 
    185 H185        0.7953  -10.7091  -49.2418 H         1 UNK         0.0600 
    186 H186        1.9142   -8.5120  -48.8612 H         1 UNK         0.0600 
    187 H187        2.8591   -9.2008  -47.5465 H         1 UNK         0.0600 
    188 H188        3.0947   -9.7669  -49.2008 H         1 UNK         0.0600 
    189 H189        2.8133  -11.6500  -47.3878 H         1 UNK         0.3000 
    190 H190        0.9078  -23.5056  -48.4158 H         1 UNK         0.3000 
    191 H191       -0.6231  -25.8933  -49.1575 H         1 UNK         0.0600 
    192 H192       -1.6768  -23.0236  -49.5421 H         1 UNK         0.0600 
    193 H193       -1.4453  -24.2192  -50.8174 H         1 UNK         0.0600 
    194 H194       -2.6713  -24.4725  -49.5851 H         1 UNK         0.0600 
    195 H195       -1.7532  -26.5919  -47.3701 H         1 UNK         0.3000 
    196 H196       -1.2508  -25.3200  -44.7986 H         1 UNK         0.0600 
    197 H197       -1.0677  -27.7760  -45.1013 H         1 UNK         0.0600 
    198 H198       -2.7695  -27.8706  -45.5540 H         1 UNK         0.0600 
    199 H199       -2.3106  -27.3877  -43.9245 H         1 UNK         0.0600 
    200 H200       -2.5262  -23.4466  -46.0026 H         1 UNK         0.3000 
    201 H201       -4.1844  -21.9817  -46.0578 H         1 UNK         0.0600 
    202 H202       -5.7561  -21.7965  -44.2033 H         1 UNK         0.0600 
    203 H203       -4.2182  -22.3374  -43.5511 H         1 UNK         0.0600 
    204 H204       -5.5386  -23.4837  -43.7603 H         1 UNK         0.0600 
    205 H205       -4.4112  -24.5910  -47.5730 H         1 UNK         0.3000 
    206 H206       -7.0901  -25.3642  -47.9253 H         1 UNK         0.0600 
    207 H207       -5.1629  -26.7205  -48.6810 H         1 UNK         0.0600 
    208 H208       -4.7393  -25.5058  -49.8851 H         1 UNK         0.0600 
    209 H209       -6.2424  -26.4018  -50.0300 H         1 UNK         0.0600 
    210 H210       -8.7263  -24.1646  -48.5657 H         1 UNK         0.3000 
    211 H211      -10.0363  -22.5908  -49.4040 H         1 UNK         0.0600 
    212 H212       -9.6210  -23.7064  -51.5720 H         1 UNK         0.0600 
    213 H213       -9.8062  -21.9780  -51.8134 H         1 UNK         0.0600 
    214 H214       -8.2035  -22.7047  -51.8590 H         1 UNK         0.0600 
    215 H215       -8.1372  -21.7458  -47.5772 H         1 UNK         0.3000 
    216 H216       -7.2166  -20.0088  -46.5932 H         1 UNK         0.0600 
    217 H217       -7.9279  -17.7083  -47.0704 H         1 UNK         0.0600 
    218 H218       -8.5780  -18.1741  -48.6343 H         1 UNK         0.0600 
    219 H219       -9.3247  -18.7688  -47.1516 H         1 UNK         0.0600 
    220 H220       -5.8578  -21.4570  -48.6002 H         1 UNK         0.3000 
    221 H221       -3.8852  -21.6849  -49.5061 H         1 UNK         0.0600 
    222 H222       -2.0124  -20.1314  -49.1455 H         1 UNK         0.0600 
    223 H223       -3.1074  -18.8889  -48.5644 H         1 UNK         0.0600 
    224 H224       -2.8828  -20.3788  -47.6463 H         1 UNK         0.0600 
    225 H225       -6.2522  -20.3943  -50.9101 H         1 UNK         0.3000 
    226 H226       -5.1897  -19.0125  -53.1974 H         1 UNK         0.0600 
    227 H227       -7.5992  -18.9644  -52.6132 H         1 UNK         0.0600 
    228 H228       -7.3509  -19.5777  -54.2397 H         1 UNK         0.0600 
    229 H229       -7.7256  -20.6937  -52.9363 H         1 UNK         0.0600 
    230 H230       -5.1939  -22.3603  -52.2062 H         1 UNK         0.3000 
    231 H231       -4.5386  -23.6018  -54.6991 H         1 UNK         0.0600 
    232 H232       -3.7715  -25.4579  -53.2080 H         1 UNK         0.0600 
    233 H233       -5.3414  -24.8523  -52.6980 H         1 UNK         0.0600 
    234 H234       -3.8896  -24.3949  -51.8107 H         1 UNK         0.0600 
    235 H235       -2.6522  -21.6441  -52.4616 H         1 UNK         0.3000 
    236 H236       -0.0627  -22.3897  -53.7129 H         1 UNK         0.0600 
    237 H237        0.0005  -22.2016  -51.2745 H         1 UNK         0.0600 
    238 H238        0.8865  -20.8603  -51.9778 H         1 UNK         0.0600 
    239 H239       -0.7149  -20.5946  -51.3148 H         1 UNK         0.0600 
    240 H240       -1.8716  -19.3827  -52.8804 H         1 UNK         0.3000 
    241 H241       -1.7733  -18.2818  -55.4851 H         1 UNK         0.0600 
    242 H242       -3.9016  -16.6611  -52.5229 H         1 UNK         0.3800 
    243 H243       -3.0562  -18.1641  -52.2787 H         1 UNK         0.3800 
    244 H244       -0.1853  -16.3654  -55.1253 H         1 UNK         0.0800 
    245 H245        0.6011  -17.8981  -55.2264 H         1 UNK         0.0800 
    246 H246        1.8743  -19.0111  -53.5860 H         1 UNK         0.0800 
    247 H247        2.9434  -17.6302  -53.6537 H         1 UNK         0.0800 
@<TRIPOS>BOND
     1    1    2 1    
     2    1  127 1    
     3    1  128 1    
     4    1  129 1    
     5    2    3 2    
     6    2    4 am   BACKBONE|DICT|INTERRES
     7    4    5 1    
     8    4  130 1    
     9    5    6 1    
    10    5   65 1    
    11    5  131 1    
    12    6    7 1    
    13    6  132 1    
    14    6  133 1    
    15    7    8 1    
    16    8    9 1    
    17    8  134 1    
    18    8  135 1    
    19    9   10 ar   
    20    9   14 ar   
    21   10   11 ar   
    22   10  136 1    
    23   11   12 ar   
    24   11  126 1    
    25   12   13 ar   
    26   12  137 1    
    27   13   14 ar   
    28   13   15 1    
    29   14  138 1    
    30   15   16 1    
    31   15  139 1    
    32   15  140 1    
    33   16   17 1    
    34   17   18 1    
    35   17  141 1    
    36   17  142 1    
    37   18   19 1    
    38   18   67 1    
    39   18  143 1    
    40   19   20 am   BACKBONE|DICT|INTERRES
    41   19  144 1    
    42   20   21 2    
    43   20   22 1    
    44   22   23 1    
    45   22   24 1    
    46   22  145 1    
    47   23  146 1    
    48   23  147 1    
    49   23  148 1    
    50   24   25 am   BACKBONE|DICT|INTERRES
    51   24  149 1    
    52   25   26 2    
    53   25   27 1    
    54   27   28 1    
    55   27   29 1    
    56   27  150 1    
    57   28  151 1    
    58   28  152 1    
    59   28  153 1    
    60   29   30 am   BACKBONE|DICT|INTERRES
    61   29  154 1    
    62   30   31 2    
    63   30   32 1    
    64   32   33 1    
    65   32   34 1    
    66   32  155 1    
    67   33  156 1    
    68   33  157 1    
    69   33  158 1    
    70   34   35 am   BACKBONE|DICT|INTERRES
    71   34  159 1    
    72   35   36 2    
    73   35   37 1    
    74   37   38 1    
    75   37   39 1    
    76   37  160 1    
    77   38  161 1    
    78   38  162 1    
    79   38  163 1    
    80   39   40 am   BACKBONE|DICT|INTERRES
    81   39  164 1    
    82   40   41 2    
    83   40   42 1    
    84   42   43 1    
    85   42   44 1    
    86   42  165 1    
    87   43  166 1    
    88   43  167 1    
    89   43  168 1    
    90   44   45 am   BACKBONE|DICT|INTERRES
    91   44  169 1    
    92   45   46 2    
    93   45   47 1    
    94   47   48 1    
    95   47   49 1    
    96   47  170 1    
    97   48  171 1    
    98   48  172 1    
    99   48  173 1    
   100   49   50 am   BACKBONE|DICT|INTERRES
   101   49  174 1    
   102   50   51 2    
   103   50   52 1    
   104   52   53 1    
   105   52   54 1    
   106   52  175 1    
   107   53  176 1    
   108   53  177 1    
   109   53  178 1    
   110   54   55 am   BACKBONE|DICT|INTERRES
   111   54  179 1    
   112   55   56 2    
   113   55   57 1    
   114   57   58 1    
   115   57   59 1    
   116   57  180 1    
   117   58  181 1    
   118   58  182 1    
   119   58  183 1    
   120   59   60 am   BACKBONE|DICT|INTERRES
   121   59  184 1    
   122   60   61 2    
   123   60   62 1    
   124   62   63 1    
   125   62   64 1    
   126   62  185 1    
   127   63  186 1    
   128   63  187 1    
   129   63  188 1    
   130   64   65 am   BACKBONE|DICT|INTERRES
   131   64  189 1    
   132   65   66 2    
   133   67   68 2    
   134   67   69 am   BACKBONE|DICT|INTERRES
   135   69   70 1    
   136   69  190 1    
   137   70   71 1    
   138   70   72 1    
   139   70  191 1    
   140   71  192 1    
   141   71  193 1    
   142   71  194 1    
   143   72   73 2    
   144   72   74 am   BACKBONE|DICT|INTERRES
   145   74   75 1    
   146   74  195 1    
   147   75   76 1    
   148   75   77 1    
   149   75  196 1    
   150   76  197 1    
   151   76  198 1    
   152   76  199 1    
   153   77   78 2    
   154   77   79 am   BACKBONE|DICT|INTERRES
   155   79   80 1    
   156   79  200 1    
   157   80   81 1    
   158   80   82 1    
   159   80  201 1    
   160   81  202 1    
   161   81  203 1    
   162   81  204 1    
   163   82   83 2    
   164   82   84 am   BACKBONE|DICT|INTERRES
   165   84   85 1    
   166   84  205 1    
   167   85   86 1    
   168   85   87 1    
   169   85  206 1    
   170   86  207 1    
   171   86  208 1    
   172   86  209 1    
   173   87   88 2    
   174   87   89 am   BACKBONE|DICT|INTERRES
   175   89   90 1    
   176   89  210 1    
   177   90   91 1    
   178   90   92 1    
   179   90  211 1    
   180   91  212 1    
   181   91  213 1    
   182   91  214 1    
   183   92   93 2    
   184   92   94 am   BACKBONE|DICT|INTERRES
   185   94   95 1    
   186   94  215 1    
   187   95   96 1    
   188   95   97 1    
   189   95  216 1    
   190   96  217 1    
   191   96  218 1    
   192   96  219 1    
   193   97   98 2    
   194   97   99 am   BACKBONE|DICT|INTERRES
   195   99  100 1    
   196   99  220 1    
   197  100  101 1    
   198  100  102 1    
   199  100  221 1    
   200  101  222 1    
   201  101  223 1    
   202  101  224 1    
   203  102  103 2    
   204  102  104 am   BACKBONE|DICT|INTERRES
   205  104  105 1    
   206  104  225 1    
   207  105  106 1    
   208  105  107 1    
   209  105  226 1    
   210  106  227 1    
   211  106  228 1    
   212  106  229 1    
   213  107  108 2    
   214  107  109 am   BACKBONE|DICT|INTERRES
   215  109  110 1    
   216  109  230 1    
   217  110  111 1    
   218  110  112 1    
   219  110  231 1    
   220  111  232 1    
   221  111  233 1    
   222  111  234 1    
   223  112  113 2    
   224  112  114 am   BACKBONE|DICT|INTERRES
   225  114  115 1    
   226  114  235 1    
   227  115  116 1    
   228  115  117 1    
   229  115  236 1    
   230  116  237 1    
   231  116  238 1    
   232  116  239 1    
   233  117  118 2    
   234  117  119 am   BACKBONE|DICT|INTERRES
   235  119  120 1    
   236  119  240 1    
   237  120  121 1    
   238  120  124 1    
   239  120  241 1    
   240  121  122 am   BACKBONE|DICT|INTERRES
   241  121  123 2    
   242  122  242 1    
   243  122  243 1    
   244  124  125 1    
   245  124  244 1    
   246  124  245 1    
   247  125  126 1    
   248  126  246 1    
   249  126  247 1    
@<TRIPOS>SUBSTRUCTURE
     1 UNK         1 GROUP             0       ****    0 ROOT    
