@<TRIPOS>MOLECULE
3R540
247   249    1
SMALL
USER_CHARGES


@<TRIPOS>ATOM
      1 CA         -5.5283  -16.1417  -50.6938 C.3       0 UNK        -0.1800 
      2 C          -4.5549  -14.9722  -50.6629 C.2       0 UNK         0.5000 
      3 O          -4.8780  -13.8998  -51.1736 O.2       0 UNK        -0.5000 
      4 N          -3.3760  -15.1721  -50.0590 N.am      1 UNK        -0.5000 
      5 CA         -2.3400  -14.1523  -49.8767 C.3       1 UNK         0.1400 
      6 C6         -0.9632  -14.7387  -49.4720 C.3       23 UNK        -0.0398 
      7 S7         -0.8891  -15.5656  -47.8451 S.3       23 UNK        -0.2404 
      8 C8          0.9026  -15.5613  -47.5122 C.3       23 UNK        -0.0205 
      9 C9          1.6387  -16.6017  -48.3410 C.ar      23 UNK        -0.0193 
     10 C10         2.1033  -16.2889  -49.6215 C.ar      23 UNK        -0.1150 
     11 C11         2.7710  -17.2489  -50.3878 C.ar      23 UNK        -0.0193 
     12 C12         2.9929  -18.5215  -49.8554 C.ar      23 UNK        -0.1150 
     13 C13         2.5445  -18.8417  -48.5716 C.ar      23 UNK        -0.0193 
     14 C14         1.8691  -17.8776  -47.8205 C.ar      23 UNK        -0.1150 
     15 C15         2.8108  -20.2217  -47.9930 C.3       23 UNK        -0.0205 
     16 S16         1.7320  -21.4886  -48.7176 S.3       23 UNK        -0.2404 
     17 C17         0.1133  -21.1563  -47.9416 C.3       23 UNK        -0.0398 
     18 CA         -0.4316  -22.4300  -47.2503 C.3       11 UNK         0.1400 
     19 N           0.0974  -22.5863  -45.8931 N.am      11 UNK        -0.5000 
     20 C           0.0755  -23.7384  -45.2113 C.2       10 UNK         0.5000 
     21 O          -0.3721  -24.7908  -45.6658 O.2       10 UNK        -0.5000 
     22 CA          0.5993  -23.6938  -43.7673 C.3       10 UNK         0.1400 
     23 CB          2.1340  -23.7607  -43.7367 C.3       10 UNK        -0.1800 
     24 N           0.1423  -22.4962  -43.0620 N.am      10 UNK        -0.5000 
     25 C          -1.1124  -22.3074  -42.6314 C.2       9 UNK         0.5000 
     26 O          -2.0139  -23.1318  -42.7810 O.2       9 UNK        -0.5000 
     27 CA         -1.4205  -20.9589  -41.9511 C.3       9 UNK         0.1400 
     28 CB         -1.0031  -20.9900  -40.4735 C.3       9 UNK        -0.1800 
     29 N          -0.7773  -19.8215  -42.6112 N.am      9 UNK        -0.5000 
     30 C          -1.0545  -19.4205  -43.8597 C.2       8 UNK         0.5000 
     31 O          -1.8978  -19.9538  -44.5747 O.2       8 UNK        -0.5000 
     32 CA         -0.2107  -18.2720  -44.4378 C.3       8 UNK         0.1400 
     33 CB         -0.8375  -16.9204  -44.0689 C.3       8 UNK        -0.1800 
     34 N           1.2003  -18.2932  -44.0336 N.am      8 UNK        -0.5000 
     35 C           2.0283  -19.3484  -44.1258 C.2       7 UNK         0.5000 
     36 O           1.6822  -20.4338  -44.5936 O.2       7 UNK        -0.5000 
     37 CA          3.4771  -19.1938  -43.6163 C.3       7 UNK         0.1400 
     38 CB          4.4780  -19.3553  -44.7707 C.3       7 UNK        -0.1800 
     39 N           3.7420  -17.9209  -42.9486 N.am      7 UNK        -0.5000 
     40 C           3.2790  -17.5506  -41.7471 C.2       6 UNK         0.5000 
     41 O           2.6053  -18.2808  -41.0200 O.2       6 UNK        -0.5000 
     42 CA          3.5894  -16.1040  -41.3078 C.3       6 UNK         0.1400 
     43 CB          4.7643  -16.0835  -40.3183 C.3       6 UNK        -0.1800 
     44 N           3.8891  -15.1984  -42.4257 N.am      6 UNK        -0.5000 
     45 C           3.0218  -14.8634  -43.3899 C.2       5 UNK         0.5000 
     46 O           1.8649  -15.2882  -43.4477 O.2       5 UNK        -0.5000 
     47 CA          3.5491  -13.9534  -44.5047 C.3       5 UNK         0.1400 
     48 CB          4.2721  -14.7762  -45.5858 C.3       5 UNK        -0.1800 
     49 N           2.4110  -13.2634  -45.0950 N.am      5 UNK        -0.5000 
     50 C           2.4262  -12.0403  -45.6335 C.2       4 UNK         0.5000 
     51 O           3.4487  -11.3654  -45.7602 O.2       4 UNK        -0.5000 
     52 CA          1.0772  -11.4643  -46.1114 C.3       4 UNK         0.1400 
     53 CB          1.0398  -11.3500  -47.6443 C.3       4 UNK        -0.1800 
     54 N          -0.0880  -12.2361  -45.6662 N.am      4 UNK        -0.5000 
     55 C          -0.6128  -12.1880  -44.4316 C.2       3 UNK         0.5000 
     56 O          -0.1274  -11.5216  -43.5169 O.2       3 UNK        -0.5000 
     57 CA         -1.9047  -12.9956  -44.1980 C.3       3 UNK         0.1400 
     58 CB         -2.8062  -12.3836  -43.1082 C.3       3 UNK        -0.1800 
     59 N          -2.6494  -13.1244  -45.4502 N.am      3 UNK        -0.5000 
     60 C          -3.4646  -14.1341  -45.7779 C.2       2 UNK         0.5000 
     61 O          -3.7406  -15.0600  -45.0157 O.2       2 UNK        -0.5000 
     62 CA         -4.0609  -14.1227  -47.2002 C.3       2 UNK         0.1400 
     63 CB         -5.5967  -14.0727  -47.1441 C.3       2 UNK        -0.1800 
     64 N          -3.5827  -12.9729  -47.9814 N.am      2 UNK        -0.5000 
     65 C          -2.7552  -12.9094  -49.0409 C.2       1 UNK         0.5000 
     66 O          -2.3267  -11.8158  -49.4046 O.2       1 UNK        -0.5000 
     67 C          -1.9742  -22.5306  -47.3002 C.2       11 UNK         0.5000 
     68 O          -2.5108  -23.0026  -48.3042 O.2       11 UNK        -0.5000 
     69 N          -2.6627  -22.1369  -46.2182 N.am      12 UNK        -0.5000 
     70 CA         -4.0937  -22.3692  -46.0200 C.3       12 UNK         0.1400 
     71 CB         -4.6216  -21.5090  -44.8628 C.3       12 UNK        -0.1800 
     72 C          -4.4060  -23.8561  -45.7778 C.2       12 UNK         0.5000 
     73 O          -5.3547  -24.3756  -46.3645 O.2       12 UNK        -0.5000 
     74 N          -3.5886  -24.5246  -44.9492 N.am      13 UNK        -0.5000 
     75 CA         -3.6988  -25.9559  -44.6482 C.3       13 UNK         0.1400 
     76 CB         -2.7310  -26.3274  -43.5151 C.3       13 UNK        -0.1800 
     77 C          -3.4780  -26.8613  -45.8759 C.2       13 UNK         0.5000 
     78 O          -4.0840  -27.9308  -45.9547 O.2       13 UNK        -0.5000 
     79 N          -2.6703  -26.3995  -46.8405 N.am      14 UNK        -0.5000 
     80 CA         -2.4357  -27.0142  -48.1510 C.3       14 UNK         0.1400 
     81 CB         -1.1291  -26.4428  -48.7293 C.3       14 UNK        -0.1800 
     82 C          -3.6348  -26.8437  -49.1159 C.2       14 UNK         0.5000 
     83 O          -3.4651  -26.3772  -50.2452 O.2       14 UNK        -0.5000 
     84 N          -4.8371  -27.1984  -48.6354 N.am      15 UNK        -0.5000 
     85 CA         -6.1454  -27.1501  -49.3049 C.3       15 UNK         0.1400 
     86 CB         -6.2017  -28.2128  -50.4217 C.3       15 UNK        -0.1800 
     87 C          -6.5473  -25.7480  -49.8171 C.2       15 UNK         0.5000 
     88 O          -7.3564  -25.6431  -50.7397 O.2       15 UNK        -0.5000 
     89 N          -5.9356  -24.7018  -49.2428 N.am      16 UNK        -0.5000 
     90 CA         -5.9613  -23.2874  -49.6314 C.3       16 UNK         0.1400 
     91 CB         -7.3722  -22.6938  -49.4579 C.3       16 UNK        -0.1800 
     92 C          -5.3779  -22.9780  -51.0271 C.2       16 UNK         0.5000 
     93 O          -5.3255  -21.8071  -51.4017 O.2       16 UNK        -0.5000 
     94 N          -4.9267  -23.9984  -51.7683 N.am      17 UNK        -0.5000 
     95 CA         -4.4393  -23.8893  -53.1412 C.3       17 UNK         0.1400 
     96 CB         -4.3041  -25.2962  -53.7424 C.3       17 UNK        -0.1800 
     97 C          -3.1109  -23.1262  -53.2280 C.2       17 UNK         0.5000 
     98 O          -2.9422  -22.2912  -54.1168 O.2       17 UNK        -0.5000 
     99 N          -2.2103  -23.3982  -52.2748 N.am      18 UNK        -0.5000 
    100 CA        -0.9181  -22.7260  -52.1581 C.3       18 UNK         0.1400 
    101 CB        -0.0352  -23.5007  -51.1723 C.3       18 UNK        -0.1800 
    102 C         -1.0604  -21.2492  -51.7445 C.2       18 UNK         0.5000 
    103 O         -0.2825  -20.4169  -52.2078 O.2       18 UNK        -0.5000 
    104 N         -2.0724  -20.9446  -50.9171 N.am      19 UNK        -0.5000 
    105 CA        -2.4326  -19.5780  -50.5415 C.3       19 UNK         0.1400 
    106 CB        -3.3638  -19.5871  -49.3181 C.3       19 UNK        -0.1800 
    107 C         -3.0697  -18.8218  -51.7172 C.2       19 UNK         0.5000 
    108 O         -2.6714  -17.6905  -51.9871 O.2       19 UNK        -0.5000 
    109 N         -4.0210  -19.4668  -52.4099 N.am      20 UNK        -0.5000 
    110 CA        -4.7231  -18.9324  -53.5796 C.3       20 UNK         0.1400 
    111 CB        -5.8170  -19.9153  -54.0215 C.3       20 UNK        -0.1800 
    112 C         -3.7865  -18.5973  -54.7530 C.2       20 UNK         0.5000 
    113 O         -3.9695  -17.5622  -55.3950 O.2       20 UNK        -0.5000 
    114 N         -2.7636  -19.4366  -54.9702 N.am      21 UNK        -0.5000 
    115 CA        -1.6936  -19.2269  -55.9511 C.3       21 UNK         0.1400 
    116 CB        -0.7865  -20.4666  -55.9748 C.3       21 UNK        -0.1800 
    117 C         -0.8569  -17.9518  -55.7075 C.2       21 UNK         0.5000 
    118 O         -0.2750  -17.4231  -56.6557 O.2       21 UNK        -0.5000 
    119 N         -0.8334  -17.4755  -54.4581 N.am      22 UNK        -0.5000 
    120 CA        -0.2053  -16.2211  -54.0237 C.3       22 UNK         0.1400 
    121 C         -1.2275  -15.0581  -53.8421 C.2       22 UNK         0.5000 
    122 N         -2.4913  -15.1999  -54.2257 N.am      22 UNK        -0.7600 
    123 O         -0.8625  -13.9880  -53.3629 O.2       22 UNK        -0.5000 
    124 C124        0.6443  -16.4452  -52.7478 C.3       23 UNK        -0.0398 
    125 S125        2.0878  -17.5186  -53.0558 S.3       23 UNK        -0.2404 
    126 C126        3.2517  -16.9173  -51.7920 C.3       23 UNK        -0.0205 
    127 H127       -5.0896  -17.0496  -50.2823 H         1 UNK         0.0600 
    128 H128       -5.8350  -16.3450  -51.7190 H         1 UNK         0.0600 
    129 H129       -6.4191  -15.9022  -50.1135 H         1 UNK         0.0600 
    130 H130       -3.1537  -16.0852  -49.6923 H         1 UNK         0.3000 
    131 H131       -2.1833  -13.7551  -50.8824 H         1 UNK         0.0600 
    132 H132       -0.2072  -13.9529  -49.5072 H         1 UNK         0.0800 
    133 H133       -0.6595  -15.4687  -50.2215 H         1 UNK         0.0800 
    134 H134        1.0638  -15.7602  -46.4523 H         1 UNK         0.0800 
    135 H135        1.3213  -14.5728  -47.6960 H         1 UNK         0.0800 
    136 H136        1.9368  -15.3008  -50.0257 H         1 UNK         0.1150 
    137 H137        3.5080  -19.2675  -50.4442 H         1 UNK         0.1150 
    138 H138        1.5295  -18.1192  -46.8269 H         1 UNK         0.1150 
    139 H139        3.8500  -20.4944  -48.1818 H         1 UNK         0.0800 
    140 H140        2.6889  -20.2239  -46.9132 H         1 UNK         0.0800 
    141 H141       -0.5456  -20.8194  -48.7382 H         1 UNK         0.0800 
    142 H142        0.1801  -20.3250  -47.2384 H         1 UNK         0.0800 
    143 H143       -0.0852  -23.2940  -47.8216 H         1 UNK         0.0600 
    144 H144        0.5196  -21.7712  -45.4580 H         1 UNK         0.3000 
    145 H145        0.2138  -24.5707  -43.2428 H         1 UNK         0.0600 
    146 H146        2.5078  -23.7679  -42.7128 H         1 UNK         0.0600 
    147 H147        2.4918  -24.6708  -44.2197 H         1 UNK         0.0600 
    148 H148        2.5901  -22.9163  -44.2543 H         1 UNK         0.0600 
    149 H149        0.8022  -21.7338  -42.9925 H         1 UNK         0.3000 
    150 H150       -2.5009  -20.8060  -41.9963 H         1 UNK         0.0600 
    151 H151       -1.4774  -21.8219  -39.9511 H         1 UNK         0.0600 
    152 H152       -1.2993  -20.0745  -39.9611 H         1 UNK         0.0600 
    153 H153        0.0760  -21.1032  -40.3612 H         1 UNK         0.0600 
    154 H154       -0.0544  -19.3384  -42.0972 H         1 UNK         0.3000 
    155 H155       -0.2500  -18.3720  -45.5229 H         1 UNK         0.0600 
    156 H156       -0.7288  -16.7008  -43.0063 H         1 UNK         0.0600 
    157 H157       -1.9030  -16.9077  -44.3008 H         1 UNK         0.0600 
    158 H158       -0.3822  -16.1054  -44.6288 H         1 UNK         0.0600 
    159 H159        1.5625  -17.4260  -43.6553 H         1 UNK         0.3000 
    160 H160        3.6521  -19.9971  -42.8979 H         1 UNK         0.0600 
    161 H161        4.3186  -18.6092  -45.5505 H         1 UNK         0.0600 
    162 H162        4.3888  -20.3404  -45.2300 H         1 UNK         0.0600 
    163 H163        5.5056  -19.2604  -44.4195 H         1 UNK         0.0600 
    164 H164        4.2881  -17.2498  -43.4673 H         1 UNK         0.3000 
    165 H165        2.7029  -15.7233  -40.7964 H         1 UNK         0.0600 
    166 H166        4.9411  -15.0781  -39.9359 H         1 UNK         0.0600 
    167 H167        4.5632  -16.7250  -39.4591 H         1 UNK         0.0600 
    168 H168        5.6870  -16.4351  -40.7816 H         1 UNK         0.0600 
    169 H169        4.8239  -14.8163  -42.4524 H         1 UNK         0.3000 
    170 H170        4.2372  -13.2273  -44.0666 H         1 UNK         0.0600 
    171 H171        5.1450  -15.2844  -45.1748 H         1 UNK         0.0600 
    172 H172        3.6211  -15.5378  -46.0170 H         1 UNK         0.0600 
    173 H173        4.6219  -14.1392  -46.3983 H         1 UNK         0.0600 
    174 H174        1.5256  -13.7301  -44.9502 H         1 UNK         0.3000 
    175 H175        0.9984  -10.4554  -45.7005 H         1 UNK         0.0600 
    176 H176        1.1265  -12.3212  -48.1289 H         1 UNK         0.0600 
    177 H177        0.1119  -10.8885  -47.9831 H         1 UNK         0.0600 
    178 H178        1.8594  -10.7299  -48.0096 H         1 UNK         0.0600 
    179 H179       -0.5131  -12.8436  -46.3503 H         1 UNK         0.3000 
    180 H180       -1.5886  -13.9870  -43.8678 H         1 UNK         0.0600 
    181 H181       -3.6963  -12.9910  -42.9434 H         1 UNK         0.0600 
    182 H182       -3.1318  -11.3784  -43.3777 H         1 UNK         0.0600 
    183 H183       -2.2824  -12.3178  -42.1539 H         1 UNK         0.0600 
    184 H184       -2.4896  -12.3944  -46.1293 H         1 UNK         0.3000 
    185 H185       -3.7654  -15.0715  -47.6378 H         1 UNK         0.0600 
    186 H186       -6.0300  -14.0841  -48.1439 H         1 UNK         0.0600 
    187 H187       -5.9989  -14.9333  -46.6079 H         1 UNK         0.0600 
    188 H188       -5.9516  -13.1744  -46.6377 H         1 UNK         0.0600 
    189 H189       -3.8748  -12.0848  -47.6012 H         1 UNK         0.3000 
    190 H190       -2.1795  -21.6489  -45.4704 H         1 UNK         0.3000 
    191 H191       -4.6170  -22.0543  -46.9229 H         1 UNK         0.0600 
    192 H192       -5.6838  -21.6899  -44.6942 H         1 UNK         0.0600 
    193 H193       -4.5059  -20.4470  -45.0791 H         1 UNK         0.0600 
    194 H194       -4.0999  -21.7206  -43.9294 H         1 UNK         0.0600 
    195 H195       -2.8598  -24.0162  -44.4608 H         1 UNK         0.3000 
    196 H196       -4.7152  -26.1370  -44.2928 H         1 UNK         0.0600 
    197 H197       -1.6929  -26.1530  -43.7959 H         1 UNK         0.0600 
    198 H198       -2.9371  -25.7488  -42.6146 H         1 UNK         0.0600 
    199 H199       -2.8256  -27.3814  -43.2513 H         1 UNK         0.0600 
    200 H200       -2.1752  -25.5349  -46.6585 H         1 UNK         0.3000 
    201 H201       -2.2940  -28.0870  -48.0067 H         1 UNK         0.0600 
    202 H202       -1.2078  -25.3700  -48.9028 H         1 UNK         0.0600 
    203 H203       -0.8785  -26.9137  -49.6806 H         1 UNK         0.0600 
    204 H204       -0.2908  -26.6105  -48.0529 H         1 UNK         0.0600 
    205 H205       -4.8493  -27.5502  -47.6820 H         1 UNK         0.3000 
    206 H206       -6.8849  -27.4191  -48.5496 H         1 UNK         0.0600 
    207 H207       -5.9290  -29.1978  -50.0427 H         1 UNK         0.0600 
    208 H208       -7.2065  -28.2955  -50.8377 H         1 UNK         0.0600 
    209 H209       -5.5260  -27.9706  -51.2428 H         1 UNK         0.0600 
    210 H210       -5.3390  -24.9034  -48.4488 H         1 UNK         0.3000 
    211 H211       -5.3021  -22.7792  -48.9303 H         1 UNK         0.0600 
    212 H212       -7.3650  -21.6146  -49.6162 H         1 UNK         0.0600 
    213 H213       -7.7513  -22.8704  -48.4513 H         1 UNK         0.0600 
    214 H214       -8.0827  -23.1212  -50.1658 H         1 UNK         0.0600 
    215 H215       -4.9375  -24.9247  -51.3627 H         1 UNK         0.3000 
    216 H216       -5.1815  -23.3384  -53.7224 H         1 UNK         0.0600 
    217 H217       -3.5974  -25.9088  -53.1807 H         1 UNK         0.0600 
    218 H218       -3.9527  -25.2485  -54.7739 H         1 UNK         0.0600 
    219 H219       -5.2632  -25.8146  -53.7486 H         1 UNK         0.0600 
    220 H220       -2.4389  -24.0909  -51.5747 H         1 UNK         0.3000 
    221 H221       -0.4344  -22.7513  -53.1371 H         1 UNK         0.0600 
    222 H222        0.0681  -24.5453  -51.4664 H         1 UNK         0.0600 
    223 H223       -0.4463  -23.4742  -50.1644 H         1 UNK         0.0600 
    224 H224        0.9674  -23.0742  -51.1342 H         1 UNK         0.0600 
    225 H225       -2.6702  -21.6884  -50.5857 H         1 UNK         0.3000 
    226 H226       -1.5200  -19.0456  -50.2628 H         1 UNK         0.0600 
    227 H227       -4.2784  -20.1505  -49.5044 H         1 UNK         0.0600 
    228 H228       -2.8738  -20.0223  -48.4491 H         1 UNK         0.0600 
    229 H229       -3.6529  -18.5733  -49.0405 H         1 UNK         0.0600 
    230 H230       -4.3258  -20.3828  -52.0891 H         1 UNK         0.3000 
    231 H231       -5.2073  -18.0036  -53.2754 H         1 UNK         0.0600 
    232 H232       -5.3990  -20.8830  -54.2994 H         1 UNK         0.0600 
    233 H233       -6.3628  -19.5320  -54.8845 H         1 UNK         0.0600 
    234 H234       -6.5432  -20.0802  -53.2254 H         1 UNK         0.0600 
    235 H235       -2.7193  -20.2956  -54.4308 H         1 UNK         0.3000 
    236 H236       -2.1613  -19.1261  -56.9324 H         1 UNK         0.0600 
    237 H237       -1.3482  -21.3621  -56.2408 H         1 UNK         0.0600 
    238 H238        0.0124  -20.3545  -56.7089 H         1 UNK         0.0600 
    239 H239       -0.3197  -20.6390  -55.0044 H         1 UNK         0.0600 
    240 H240       -1.3672  -17.9552  -53.7441 H         1 UNK         0.3000 
    241 H241        0.4723  -15.8712  -54.8042 H         1 UNK         0.0600 
    242 H242       -3.1300  -14.4320  -54.0985 H         1 UNK         0.3800 
    243 H243       -2.8260  -16.0663  -54.6302 H         1 UNK         0.3800 
    244 H244        0.0403  -16.8964  -51.9593 H         1 UNK         0.0800 
    245 H245        1.0081  -15.4935  -52.3580 H         1 UNK         0.0800 
    246 H246        3.4008  -15.8427  -51.9074 H         1 UNK         0.0800 
    247 H247        4.2255  -17.3787  -51.9619 H         1 UNK         0.0800 
@<TRIPOS>BOND
     1    1    2 1    
     2    1  127 1    
     3    1  128 1    
     4    1  129 1    
     5    2    3 2    
     6    2    4 am   BACKBONE|DICT|INTERRES
     7    4    5 1    
     8    4  130 1    
     9    5    6 1    
    10    5   65 1    
    11    5  131 1    
    12    6    7 1    
    13    6  132 1    
    14    6  133 1    
    15    7    8 1    
    16    8    9 1    
    17    8  134 1    
    18    8  135 1    
    19    9   10 ar   
    20    9   14 ar   
    21   10   11 ar   
    22   10  136 1    
    23   11   12 ar   
    24   11  126 1    
    25   12   13 ar   
    26   12  137 1    
    27   13   14 ar   
    28   13   15 1    
    29   14  138 1    
    30   15   16 1    
    31   15  139 1    
    32   15  140 1    
    33   16   17 1    
    34   17   18 1    
    35   17  141 1    
    36   17  142 1    
    37   18   19 1    
    38   18   67 1    
    39   18  143 1    
    40   19   20 am   BACKBONE|DICT|INTERRES
    41   19  144 1    
    42   20   21 2    
    43   20   22 1    
    44   22   23 1    
    45   22   24 1    
    46   22  145 1    
    47   23  146 1    
    48   23  147 1    
    49   23  148 1    
    50   24   25 am   BACKBONE|DICT|INTERRES
    51   24  149 1    
    52   25   26 2    
    53   25   27 1    
    54   27   28 1    
    55   27   29 1    
    56   27  150 1    
    57   28  151 1    
    58   28  152 1    
    59   28  153 1    
    60   29   30 am   BACKBONE|DICT|INTERRES
    61   29  154 1    
    62   30   31 2    
    63   30   32 1    
    64   32   33 1    
    65   32   34 1    
    66   32  155 1    
    67   33  156 1    
    68   33  157 1    
    69   33  158 1    
    70   34   35 am   BACKBONE|DICT|INTERRES
    71   34  159 1    
    72   35   36 2    
    73   35   37 1    
    74   37   38 1    
    75   37   39 1    
    76   37  160 1    
    77   38  161 1    
    78   38  162 1    
    79   38  163 1    
    80   39   40 am   BACKBONE|DICT|INTERRES
    81   39  164 1    
    82   40   41 2    
    83   40   42 1    
    84   42   43 1    
    85   42   44 1    
    86   42  165 1    
    87   43  166 1    
    88   43  167 1    
    89   43  168 1    
    90   44   45 am   BACKBONE|DICT|INTERRES
    91   44  169 1    
    92   45   46 2    
    93   45   47 1    
    94   47   48 1    
    95   47   49 1    
    96   47  170 1    
    97   48  171 1    
    98   48  172 1    
    99   48  173 1    
   100   49   50 am   BACKBONE|DICT|INTERRES
   101   49  174 1    
   102   50   51 2    
   103   50   52 1    
   104   52   53 1    
   105   52   54 1    
   106   52  175 1    
   107   53  176 1    
   108   53  177 1    
   109   53  178 1    
   110   54   55 am   BACKBONE|DICT|INTERRES
   111   54  179 1    
   112   55   56 2    
   113   55   57 1    
   114   57   58 1    
   115   57   59 1    
   116   57  180 1    
   117   58  181 1    
   118   58  182 1    
   119   58  183 1    
   120   59   60 am   BACKBONE|DICT|INTERRES
   121   59  184 1    
   122   60   61 2    
   123   60   62 1    
   124   62   63 1    
   125   62   64 1    
   126   62  185 1    
   127   63  186 1    
   128   63  187 1    
   129   63  188 1    
   130   64   65 am   BACKBONE|DICT|INTERRES
   131   64  189 1    
   132   65   66 2    
   133   67   68 2    
   134   67   69 am   BACKBONE|DICT|INTERRES
   135   69   70 1    
   136   69  190 1    
   137   70   71 1    
   138   70   72 1    
   139   70  191 1    
   140   71  192 1    
   141   71  193 1    
   142   71  194 1    
   143   72   73 2    
   144   72   74 am   BACKBONE|DICT|INTERRES
   145   74   75 1    
   146   74  195 1    
   147   75   76 1    
   148   75   77 1    
   149   75  196 1    
   150   76  197 1    
   151   76  198 1    
   152   76  199 1    
   153   77   78 2    
   154   77   79 am   BACKBONE|DICT|INTERRES
   155   79   80 1    
   156   79  200 1    
   157   80   81 1    
   158   80   82 1    
   159   80  201 1    
   160   81  202 1    
   161   81  203 1    
   162   81  204 1    
   163   82   83 2    
   164   82   84 am   BACKBONE|DICT|INTERRES
   165   84   85 1    
   166   84  205 1    
   167   85   86 1    
   168   85   87 1    
   169   85  206 1    
   170   86  207 1    
   171   86  208 1    
   172   86  209 1    
   173   87   88 2    
   174   87   89 am   BACKBONE|DICT|INTERRES
   175   89   90 1    
   176   89  210 1    
   177   90   91 1    
   178   90   92 1    
   179   90  211 1    
   180   91  212 1    
   181   91  213 1    
   182   91  214 1    
   183   92   93 2    
   184   92   94 am   BACKBONE|DICT|INTERRES
   185   94   95 1    
   186   94  215 1    
   187   95   96 1    
   188   95   97 1    
   189   95  216 1    
   190   96  217 1    
   191   96  218 1    
   192   96  219 1    
   193   97   98 2    
   194   97   99 am   BACKBONE|DICT|INTERRES
   195   99  100 1    
   196   99  220 1    
   197  100  101 1    
   198  100  102 1    
   199  100  221 1    
   200  101  222 1    
   201  101  223 1    
   202  101  224 1    
   203  102  103 2    
   204  102  104 am   BACKBONE|DICT|INTERRES
   205  104  105 1    
   206  104  225 1    
   207  105  106 1    
   208  105  107 1    
   209  105  226 1    
   210  106  227 1    
   211  106  228 1    
   212  106  229 1    
   213  107  108 2    
   214  107  109 am   BACKBONE|DICT|INTERRES
   215  109  110 1    
   216  109  230 1    
   217  110  111 1    
   218  110  112 1    
   219  110  231 1    
   220  111  232 1    
   221  111  233 1    
   222  111  234 1    
   223  112  113 2    
   224  112  114 am   BACKBONE|DICT|INTERRES
   225  114  115 1    
   226  114  235 1    
   227  115  116 1    
   228  115  117 1    
   229  115  236 1    
   230  116  237 1    
   231  116  238 1    
   232  116  239 1    
   233  117  118 2    
   234  117  119 am   BACKBONE|DICT|INTERRES
   235  119  120 1    
   236  119  240 1    
   237  120  121 1    
   238  120  124 1    
   239  120  241 1    
   240  121  122 am   BACKBONE|DICT|INTERRES
   241  121  123 2    
   242  122  242 1    
   243  122  243 1    
   244  124  125 1    
   245  124  244 1    
   246  124  245 1    
   247  125  126 1    
   248  126  246 1    
   249  126  247 1    
@<TRIPOS>SUBSTRUCTURE
     1 UNK         1 GROUP             0       ****    0 ROOT    
