@<TRIPOS>MOLECULE
3R540
247   249    1
SMALL
USER_CHARGES


@<TRIPOS>ATOM
      1 CA          1.1806  -10.2343  -47.3408 C.3       0 UNK        -0.1800 
      2 C           0.3972  -11.4283  -47.8655 C.2       0 UNK         0.5000 
      3 O          -0.8044  -11.3107  -48.1068 O.2       0 UNK        -0.5000 
      4 N           1.0689  -12.5768  -48.0261 N.am      1 UNK        -0.5000 
      5 CA          0.5269  -13.8557  -48.5029 C.3       1 UNK         0.1400 
      6 C6          0.1827  -13.8523  -50.0156 C.3       23 UNK        -0.0398 
      7 S7          1.6753  -13.7446  -51.0613 S.3       23 UNK        -0.2404 
      8 C8          2.4146  -15.4051  -50.8732 C.3       23 UNK        -0.0205 
      9 C9          1.4423  -16.5175  -51.2348 C.ar      23 UNK        -0.0193 
     10 C10         1.1801  -16.8049  -52.5763 C.ar      23 UNK        -0.1150 
     11 C11         0.2610  -17.7983  -52.9196 C.ar      23 UNK        -0.0193 
     12 C12        -0.3974  -18.5087  -51.9110 C.ar      23 UNK        -0.1150 
     13 C13        -0.1362  -18.2367  -50.5654 C.ar      23 UNK        -0.0193 
     14 C14         0.7905  -17.2449  -50.2325 C.ar      23 UNK        -0.1150 
     15 C15        -0.8589  -19.0132  -49.4768 C.3       23 UNK        -0.0205 
     16 S16         0.0060  -20.5682  -49.1192 S.3       23 UNK        -0.2404 
     17 C17        -1.1555  -21.3548  -47.9568 C.3       23 UNK        -0.0398 
     18 CA         -0.5028  -22.5778  -47.2733 C.3       11 UNK         0.1400 
     19 N           0.5419  -22.2047  -46.3168 N.am      11 UNK        -0.5000 
     20 C           1.4376  -23.0629  -45.8102 C.2       10 UNK         0.5000 
     21 O           1.5162  -24.2442  -46.1472 O.2       10 UNK        -0.5000 
     22 CA          2.3670  -22.5287  -44.7047 C.3       10 UNK         0.1400 
     23 CB          3.5566  -21.7643  -45.3043 C.3       10 UNK        -0.1800 
     24 N           1.6623  -21.6822  -43.7394 N.am      10 UNK        -0.5000 
     25 C           0.6780  -22.1158  -42.9385 C.2       9 UNK         0.5000 
     26 O           0.3006  -23.2864  -42.8972 O.2       9 UNK        -0.5000 
     27 CA         -0.0340  -21.0672  -42.0658 C.3       9 UNK         0.1400 
     28 CB          0.7609  -20.8065  -40.7782 C.3       9 UNK        -0.1800 
     29 N          -0.2787  -19.8071  -42.7703 N.am      9 UNK        -0.5000 
     30 C          -1.0756  -19.6774  -43.8423 C.2       8 UNK         0.5000 
     31 O          -1.7221  -20.6046  -44.3279 O.2       8 UNK        -0.5000 
     32 CA         -1.1096  -18.2998  -44.5297 C.3       8 UNK         0.1400 
     33 CB         -2.0105  -17.3184  -43.7664 C.3       8 UNK        -0.1800 
     34 N           0.2247  -17.7255  -44.6837 N.am      8 UNK        -0.5000 
     35 C           1.2149  -18.2851  -45.3920 C.2       7 UNK         0.5000 
     36 O           1.0854  -19.3192  -46.0461 O.2       7 UNK        -0.5000 
     37 CA          2.5971  -17.6188  -45.2974 C.3       7 UNK         0.1400 
     38 CB          2.7242  -16.4442  -46.2758 C.3       7 UNK        -0.1800 
     39 N           2.8895  -17.1647  -43.9375 N.am      7 UNK        -0.5000 
     40 C           3.1806  -17.9883  -42.9216 C.2       6 UNK         0.5000 
     41 O           3.2445  -19.2128  -43.0324 O.2       6 UNK        -0.5000 
     42 CA          3.4142  -17.3358  -41.5468 C.3       6 UNK         0.1400 
     43 CB          4.8353  -16.7600  -41.4529 C.3       6 UNK        -0.1800 
     44 N           2.4421  -16.2846  -41.2416 N.am      6 UNK        -0.5000 
     45 C           1.1386  -16.5063  -41.0240 C.2       5 UNK         0.5000 
     46 O           0.6185  -17.6199  -41.0655 O.2       5 UNK        -0.5000 
     47 CA          0.2565  -15.2739  -40.7495 C.3       5 UNK         0.1400 
     48 CB          0.3204  -14.8855  -39.2648 C.3       5 UNK        -0.1800 
     49 N           0.5711  -14.1016  -41.5728 N.am      5 UNK        -0.5000 
     50 C           0.5924  -14.0889  -42.9115 C.2       4 UNK         0.5000 
     51 O           0.4648  -15.0961  -43.6066 O.2       4 UNK        -0.5000 
     52 CA          0.7840  -12.7279  -43.5902 C.3       4 UNK         0.1400 
     53 CB          2.0097  -12.7385  -44.5168 C.3       4 UNK        -0.1800 
     54 N          -0.4118  -12.4266  -44.3724 N.am      4 UNK        -0.5000 
     55 C          -1.4140  -11.6413  -43.9532 C.2       3 UNK         0.5000 
     56 O          -1.4067  -11.0606  -42.8668 O.2       3 UNK        -0.5000 
     57 CA         -2.6252  -11.4469  -44.8884 C.3       3 UNK         0.1400 
     58 CB         -2.6475  -10.0153  -45.4482 C.3       3 UNK        -0.1800 
     59 N          -2.6437  -12.3895  -46.0074 N.am      3 UNK        -0.5000 
     60 C          -3.2180  -13.6008  -45.9728 C.2       2 UNK         0.5000 
     61 O          -3.8360  -14.0345  -45.0003 O.2       2 UNK        -0.5000 
     62 CA         -3.0692  -14.4871  -47.2286 C.3       2 UNK         0.1400 
     63 CB         -4.3173  -14.3862  -48.1187 C.3       2 UNK        -0.1800 
     64 N          -1.8847  -14.1683  -48.0299 N.am      2 UNK        -0.5000 
     65 C          -0.6267  -14.3396  -47.6017 C.2       1 UNK         0.5000 
     66 O          -0.3545  -14.8222  -46.5062 O.2       1 UNK        -0.5000 
     67 C          -1.5551  -23.5057  -46.6351 C.2       11 UNK         0.5000 
     68 O          -1.9421  -24.4862  -47.2683 O.2       11 UNK        -0.5000 
     69 N          -1.9708  -23.2327  -45.3892 N.am      12 UNK        -0.5000 
     70 CA         -2.8862  -24.0799  -44.6156 C.3       12 UNK         0.1400 
     71 CB         -3.2526  -23.3922  -43.2931 C.3       12 UNK        -0.1800 
     72 C          -2.3279  -25.4939  -44.3657 C.2       12 UNK         0.5000 
     73 O          -3.0605  -26.4714  -44.5211 O.2       12 UNK        -0.5000 
     74 N          -1.0264  -25.5836  -44.0570 N.am      13 UNK        -0.5000 
     75 CA         -0.2786  -26.8373  -43.9212 C.3       13 UNK         0.1400 
     76 CB          1.1144  -26.5370  -43.3480 C.3       13 UNK        -0.1800 
     77 C          -0.1669  -27.6353  -45.2380 C.2       13 UNK         0.5000 
     78 O          -0.0305  -28.8579  -45.1937 O.2       13 UNK        -0.5000 
     79 N          -0.2732  -26.9430  -46.3800 N.am      14 UNK        -0.5000 
     80 CA         -0.3347  -27.5104  -47.7285 C.3       14 UNK         0.1400 
     81 CB          0.3947  -26.5637  -48.6988 C.3       14 UNK        -0.1800 
     82 C          -1.7844  -27.8025  -48.1829 C.2       14 UNK         0.5000 
     83 O          -2.0258  -27.9307  -49.3836 O.2       14 UNK        -0.5000 
     84 N          -2.7161  -27.9129  -47.2229 N.am      15 UNK        -0.5000 
     85 CA         -4.1458  -28.2089  -47.3752 C.3       15 UNK         0.1400 
     86 CB         -4.3813  -29.5475  -48.1081 C.3       15 UNK        -0.1800 
     87 C          -4.9697  -27.0379  -47.9516 C.2       15 UNK         0.5000 
     88 O          -6.0212  -27.2716  -48.5501 O.2       15 UNK        -0.5000 
     89 N          -4.4978  -25.8084  -47.7001 N.am      16 UNK        -0.5000 
     90 CA         -5.0661  -24.5021  -48.0451 C.3       16 UNK         0.1400 
     91 CB         -6.5318  -24.3629  -47.5883 C.3       16 UNK        -0.1800 
     92 C          -4.8904  -24.1268  -49.5266 C.2       16 UNK         0.5000 
     93 O          -4.9750  -24.9756  -50.4162 O.2       16 UNK        -0.5000 
     94 N          -4.6783  -22.8285  -49.7566 N.am      17 UNK        -0.5000 
     95 CA         -4.5842  -22.1882  -51.0609 C.3       17 UNK         0.1400 
     96 CB         -3.1908  -22.4111  -51.6769 C.3       17 UNK        -0.1800 
     97 C          -4.8516  -20.6937  -50.8550 C.2       17 UNK         0.5000 
     98 O          -4.4351  -20.1412  -49.8331 O.2       17 UNK        -0.5000 
     99 N          -5.5234  -20.0669  -51.8250 N.am      18 UNK        -0.5000 
    100 CA        -5.7040  -18.6180  -51.8855 C.3       18 UNK         0.1400 
    101 CB        -7.0057  -18.3033  -52.6390 C.3       18 UNK        -0.1800 
    102 C         -4.5056  -17.9803  -52.6035 C.2       18 UNK         0.5000 
    103 O         -3.9175  -18.6148  -53.4840 O.2       18 UNK        -0.5000 
    104 N         -4.2017  -16.7216  -52.2631 N.am      19 UNK        -0.5000 
    105 CA        -3.0858  -15.9494  -52.8219 C.3       19 UNK         0.1400 
    106 CB        -2.9609  -14.6209  -52.0612 C.3       19 UNK        -0.1800 
    107 C         -3.1830  -15.7042  -54.3418 C.2       19 UNK         0.5000 
    108 O         -2.1536  -15.5736  -55.0033 O.2       19 UNK        -0.5000 
    109 N         -4.4139  -15.6650  -54.8675 N.am      20 UNK        -0.5000 
    110 CA        -4.7017  -15.5203  -56.2945 C.3       20 UNK         0.1400 
    111 CB        -6.0660  -14.8290  -56.4477 C.3       20 UNK        -0.1800 
    112 C         -4.6979  -16.8623  -57.0549 C.2       20 UNK         0.5000 
    113 O         -4.6049  -16.8478  -58.2831 O.2       20 UNK        -0.5000 
    114 N         -4.8306  -17.9860  -56.3359 N.am      21 UNK        -0.5000 
    115 CA        -4.9616  -19.3256  -56.9114 C.3       21 UNK         0.1400 
    116 CB        -6.0494  -20.1011  -56.1496 C.3       21 UNK        -0.1800 
    117 C         -3.6295  -20.0871  -56.8706 C.2       21 UNK         0.5000 
    118 O         -3.1980  -20.6163  -57.8951 O.2       21 UNK        -0.5000 
    119 N         -3.0069  -20.1269  -55.6857 N.am      22 UNK        -0.5000 
    120 CA        -1.7415  -20.8171  -55.3877 C.3       22 UNK         0.1400 
    121 C         -1.7781  -22.3747  -55.4779 C.2       22 UNK         0.5000 
    122 N         -2.9447  -23.0066  -55.5244 N.am      22 UNK        -0.7600 
    123 O         -0.7380  -23.0273  -55.4713 O.2       22 UNK        -0.5000 
    124 C124       -0.5277  -20.1728  -56.1275 C.3       23 UNK        -0.0398 
    125 S125        0.7438  -19.6060  -54.9534 S.3       23 UNK        -0.2404 
    126 C126       -0.0567  -18.0779  -54.3769 C.3       23 UNK        -0.0205 
    127 H127        2.2455  -10.4525  -47.2582 H         1 UNK         0.0600 
    128 H128        0.8129   -9.9505  -46.3547 H         1 UNK         0.0600 
    129 H129        1.0592   -9.3827  -48.0100 H         1 UNK         0.0600 
    130 H130        2.0525  -12.5951  -47.7977 H         1 UNK         0.3000 
    131 H131        1.3195  -14.5863  -48.3440 H         1 UNK         0.0600 
    132 H132       -0.3750  -14.7442  -50.3013 H         1 UNK         0.0800 
    133 H133       -0.4623  -13.0086  -50.2647 H         1 UNK         0.0800 
    134 H134        2.7859  -15.5336  -49.8559 H         1 UNK         0.0800 
    135 H135        3.2918  -15.4707  -51.5185 H         1 UNK         0.0800 
    136 H136        1.6792  -16.2407  -53.3518 H         1 UNK         0.1150 
    137 H137       -1.1166  -19.2720  -52.1744 H         1 UNK         0.1150 
    138 H138        0.9919  -17.0328  -49.1924 H         1 UNK         0.1150 
    139 H139       -0.9286  -18.4185  -48.5643 H         1 UNK         0.0800 
    140 H140       -1.8815  -19.2259  -49.7914 H         1 UNK         0.0800 
    141 H141       -2.0405  -21.6470  -48.5251 H         1 UNK         0.0800 
    142 H142       -1.4852  -20.6257  -47.2145 H         1 UNK         0.0800 
    143 H143       -0.0228  -23.1694  -48.0565 H         1 UNK         0.0600 
    144 H144        0.5849  -21.2271  -46.0425 H         1 UNK         0.3000 
    145 H145        2.7614  -23.3899  -44.1614 H         1 UNK         0.0600 
    146 H146        4.2452  -21.4335  -44.5267 H         1 UNK         0.0600 
    147 H147        4.1198  -22.3983  -45.9901 H         1 UNK         0.0600 
    148 H148        3.2343  -20.8856  -45.8621 H         1 UNK         0.0600 
    149 H149        1.9529  -20.7123  -43.6820 H         1 UNK         0.3000 
    150 H150       -1.0040  -21.4785  -41.7811 H         1 UNK         0.0600 
    151 H151        0.9594  -21.7373  -40.2453 H         1 UNK         0.0600 
    152 H152        0.2079  -20.1571  -40.0996 H         1 UNK         0.0600 
    153 H153        1.7216  -20.3346  -40.9857 H         1 UNK         0.0600 
    154 H154        0.1858  -18.9845  -42.3969 H         1 UNK         0.3000 
    155 H155       -1.5269  -18.4356  -45.5295 H         1 UNK         0.0600 
    156 H156       -1.6352  -17.1264  -42.7612 H         1 UNK         0.0600 
    157 H157       -3.0241  -17.7095  -43.6722 H         1 UNK         0.0600 
    158 H158       -2.0759  -16.3614  -44.2855 H         1 UNK         0.0600 
    159 H159        0.3922  -16.8324  -44.2236 H         1 UNK         0.3000 
    160 H160        3.3428  -18.3657  -45.5777 H         1 UNK         0.0600 
    161 H161        3.7352  -16.0368  -46.2746 H         1 UNK         0.0600 
    162 H162        2.0392  -15.6393  -46.0178 H         1 UNK         0.0600 
    163 H163        2.4994  -16.7584  -47.2953 H         1 UNK         0.0600 
    164 H164        2.7808  -16.1787  -43.7515 H         1 UNK         0.3000 
    165 H165        3.3153  -18.1171  -40.7899 H         1 UNK         0.0600 
    166 H166        5.0389  -16.3746  -40.4536 H         1 UNK         0.0600 
    167 H167        5.5815  -17.5277  -41.6622 H         1 UNK         0.0600 
    168 H168        4.9908  -15.9481  -42.1644 H         1 UNK         0.0600 
    169 H169        2.7849  -15.3363  -41.1999 H         1 UNK         0.3000 
    170 H170       -0.7725  -15.5583  -40.9782 H         1 UNK         0.0600 
    171 H171        0.0723  -15.7353  -38.6273 H         1 UNK         0.0600 
    172 H172        1.3156  -14.5413  -38.9806 H         1 UNK         0.0600 
    173 H173       -0.3891  -14.0908  -39.0335 H         1 UNK         0.0600 
    174 H174        0.6863  -13.2289  -41.0779 H         1 UNK         0.3000 
    175 H175        0.9509  -11.9645  -42.8274 H         1 UNK         0.0600 
    176 H176        1.8823  -13.4316  -45.3472 H         1 UNK         0.0600 
    177 H177        2.1926  -11.7485  -44.9334 H         1 UNK         0.0600 
    178 H178        2.9090  -13.0337  -43.9750 H         1 UNK         0.0600 
    179 H179       -0.5357  -12.9766  -45.2132 H         1 UNK         0.3000 
    180 H180       -3.5257  -11.5819  -44.2857 H         1 UNK         0.0600 
    181 H181       -1.7547   -9.7954  -46.0337 H         1 UNK         0.0600 
    182 H182       -2.6992   -9.2811  -44.6433 H         1 UNK         0.0600 
    183 H183       -3.5155   -9.8555  -46.0881 H         1 UNK         0.0600 
    184 H184       -2.1419  -12.1043  -46.8433 H         1 UNK         0.3000 
    185 H185       -2.9770  -15.5205  -46.8870 H         1 UNK         0.0600 
    186 H186       -4.4395  -13.3828  -48.5286 H         1 UNK         0.0600 
    187 H187       -4.2655  -15.0876  -48.9514 H         1 UNK         0.0600 
    188 H188       -5.2201  -14.6225  -47.5539 H         1 UNK         0.0600 
    189 H189       -2.0471  -13.6943  -48.9057 H         1 UNK         0.3000 
    190 H190       -1.6595  -22.3740  -44.9410 H         1 UNK         0.3000 
    191 H191       -3.8042  -24.1890  -45.1951 H         1 UNK         0.0600 
    192 H192       -2.3813  -23.2550  -42.6542 H         1 UNK         0.0600 
    193 H193       -3.9773  -23.9854  -42.7341 H         1 UNK         0.0600 
    194 H194       -3.6994  -22.4133  -43.4672 H         1 UNK         0.0600 
    195 H195       -0.5067  -24.7258  -43.8883 H         1 UNK         0.3000 
    196 H196       -0.8119  -27.4652  -43.2048 H         1 UNK         0.0600 
    197 H197        1.6841  -27.4555  -43.2015 H         1 UNK         0.0600 
    198 H198        1.0436  -26.0403  -42.3801 H         1 UNK         0.0600 
    199 H199        1.6926  -25.8940  -44.0116 H         1 UNK         0.0600 
    200 H200       -0.3880  -25.9393  -46.3219 H         1 UNK         0.3000 
    201 H201        0.1966  -28.4640  -47.7392 H         1 UNK         0.0600 
    202 H202        1.4042  -26.3434  -48.3512 H         1 UNK         0.0600 
    203 H203       -0.1323  -25.6171  -48.8143 H         1 UNK         0.0600 
    204 H204        0.4845  -27.0102  -49.6897 H         1 UNK         0.0600 
    205 H205       -2.4238  -27.7370  -46.2699 H         1 UNK         0.3000 
    206 H206       -4.5155  -28.3404  -46.3573 H         1 UNK         0.0600 
    207 H207       -3.7810  -30.3471  -47.6743 H         1 UNK         0.0600 
    208 H208       -5.4258  -29.8526  -48.0350 H         1 UNK         0.0600 
    209 H209       -4.1386  -29.4798  -49.1686 H         1 UNK         0.0600 
    210 H210       -3.5733  -25.7505  -47.2875 H         1 UNK         0.3000 
    211 H211       -4.4904  -23.7817  -47.4642 H         1 UNK         0.0600 
    212 H212       -7.2061  -24.9845  -48.1777 H         1 UNK         0.0600 
    213 H213       -6.8733  -23.3325  -47.6934 H         1 UNK         0.0600 
    214 H214       -6.6477  -24.6377  -46.5399 H         1 UNK         0.0600 
    215 H215       -4.6528  -22.1722  -48.9860 H         1 UNK         0.3000 
    216 H216       -5.3498  -22.6017  -51.7210 H         1 UNK         0.0600 
    217 H217       -3.1062  -21.9020  -52.6372 H         1 UNK         0.0600 
    218 H218       -2.9970  -23.4692  -51.8530 H         1 UNK         0.0600 
    219 H219       -2.3987  -22.0278  -51.0325 H         1 UNK         0.0600 
    220 H220       -5.8004  -20.5848  -52.6455 H         1 UNK         0.3000 
    221 H221       -5.7772  -18.2084  -50.8756 H         1 UNK         0.0600 
    222 H222       -6.9783  -18.6581  -53.6693 H         1 UNK         0.0600 
    223 H223       -7.8635  -18.7653  -52.1500 H         1 UNK         0.0600 
    224 H224       -7.1915  -17.2289  -52.6682 H         1 UNK         0.0600 
    225 H225       -4.7495  -16.2624  -51.5502 H         1 UNK         0.3000 
    226 H226       -2.1746  -16.5188  -52.6460 H         1 UNK         0.0600 
    227 H227       -2.8025  -14.7917  -50.9970 H         1 UNK         0.0600 
    228 H228       -2.1118  -14.0409  -52.4261 H         1 UNK         0.0600 
    229 H229       -3.8541  -14.0055  -52.1751 H         1 UNK         0.0600 
    230 H230       -5.2057  -15.7620  -54.2493 H         1 UNK         0.3000 
    231 H231       -3.9455  -14.8796  -56.7533 H         1 UNK         0.0600 
    232 H232       -6.0693  -13.8517  -55.9646 H         1 UNK         0.0600 
    233 H233       -6.8703  -15.4228  -56.0113 H         1 UNK         0.0600 
    234 H234       -6.3088  -14.6702  -57.4993 H         1 UNK         0.0600 
    235 H235       -4.8049  -17.9242  -55.3273 H         1 UNK         0.3000 
    236 H236       -5.2770  -19.2586  -57.9549 H         1 UNK         0.0600 
    237 H237       -6.1926  -21.0935  -56.5789 H         1 UNK         0.0600 
    238 H238       -5.7963  -20.2327  -55.0975 H         1 UNK         0.0600 
    239 H239       -7.0082  -19.5850  -56.2013 H         1 UNK         0.0600 
    240 H240       -3.4224  -19.6357  -54.8968 H         1 UNK         0.3000 
    241 H241       -1.6230  -20.6462  -54.3174 H         1 UNK         0.0600 
    242 H242       -3.8088  -22.4912  -55.5332 H         1 UNK         0.3800 
    243 H243       -2.9594  -24.0131  -55.5728 H         1 UNK         0.3800 
    244 H244       -0.0676  -20.8611  -56.8383 H         1 UNK         0.0800 
    245 H245       -0.8334  -19.3139  -56.7270 H         1 UNK         0.0800 
    246 H246       -1.1397  -18.1515  -54.4852 H         1 UNK         0.0800 
    247 H247        0.2538  -17.2466  -55.0118 H         1 UNK         0.0800 
@<TRIPOS>BOND
     1    1    2 1    
     2    1  127 1    
     3    1  128 1    
     4    1  129 1    
     5    2    3 2    
     6    2    4 am   BACKBONE|DICT|INTERRES
     7    4    5 1    
     8    4  130 1    
     9    5    6 1    
    10    5   65 1    
    11    5  131 1    
    12    6    7 1    
    13    6  132 1    
    14    6  133 1    
    15    7    8 1    
    16    8    9 1    
    17    8  134 1    
    18    8  135 1    
    19    9   10 ar   
    20    9   14 ar   
    21   10   11 ar   
    22   10  136 1    
    23   11   12 ar   
    24   11  126 1    
    25   12   13 ar   
    26   12  137 1    
    27   13   14 ar   
    28   13   15 1    
    29   14  138 1    
    30   15   16 1    
    31   15  139 1    
    32   15  140 1    
    33   16   17 1    
    34   17   18 1    
    35   17  141 1    
    36   17  142 1    
    37   18   19 1    
    38   18   67 1    
    39   18  143 1    
    40   19   20 am   BACKBONE|DICT|INTERRES
    41   19  144 1    
    42   20   21 2    
    43   20   22 1    
    44   22   23 1    
    45   22   24 1    
    46   22  145 1    
    47   23  146 1    
    48   23  147 1    
    49   23  148 1    
    50   24   25 am   BACKBONE|DICT|INTERRES
    51   24  149 1    
    52   25   26 2    
    53   25   27 1    
    54   27   28 1    
    55   27   29 1    
    56   27  150 1    
    57   28  151 1    
    58   28  152 1    
    59   28  153 1    
    60   29   30 am   BACKBONE|DICT|INTERRES
    61   29  154 1    
    62   30   31 2    
    63   30   32 1    
    64   32   33 1    
    65   32   34 1    
    66   32  155 1    
    67   33  156 1    
    68   33  157 1    
    69   33  158 1    
    70   34   35 am   BACKBONE|DICT|INTERRES
    71   34  159 1    
    72   35   36 2    
    73   35   37 1    
    74   37   38 1    
    75   37   39 1    
    76   37  160 1    
    77   38  161 1    
    78   38  162 1    
    79   38  163 1    
    80   39   40 am   BACKBONE|DICT|INTERRES
    81   39  164 1    
    82   40   41 2    
    83   40   42 1    
    84   42   43 1    
    85   42   44 1    
    86   42  165 1    
    87   43  166 1    
    88   43  167 1    
    89   43  168 1    
    90   44   45 am   BACKBONE|DICT|INTERRES
    91   44  169 1    
    92   45   46 2    
    93   45   47 1    
    94   47   48 1    
    95   47   49 1    
    96   47  170 1    
    97   48  171 1    
    98   48  172 1    
    99   48  173 1    
   100   49   50 am   BACKBONE|DICT|INTERRES
   101   49  174 1    
   102   50   51 2    
   103   50   52 1    
   104   52   53 1    
   105   52   54 1    
   106   52  175 1    
   107   53  176 1    
   108   53  177 1    
   109   53  178 1    
   110   54   55 am   BACKBONE|DICT|INTERRES
   111   54  179 1    
   112   55   56 2    
   113   55   57 1    
   114   57   58 1    
   115   57   59 1    
   116   57  180 1    
   117   58  181 1    
   118   58  182 1    
   119   58  183 1    
   120   59   60 am   BACKBONE|DICT|INTERRES
   121   59  184 1    
   122   60   61 2    
   123   60   62 1    
   124   62   63 1    
   125   62   64 1    
   126   62  185 1    
   127   63  186 1    
   128   63  187 1    
   129   63  188 1    
   130   64   65 am   BACKBONE|DICT|INTERRES
   131   64  189 1    
   132   65   66 2    
   133   67   68 2    
   134   67   69 am   BACKBONE|DICT|INTERRES
   135   69   70 1    
   136   69  190 1    
   137   70   71 1    
   138   70   72 1    
   139   70  191 1    
   140   71  192 1    
   141   71  193 1    
   142   71  194 1    
   143   72   73 2    
   144   72   74 am   BACKBONE|DICT|INTERRES
   145   74   75 1    
   146   74  195 1    
   147   75   76 1    
   148   75   77 1    
   149   75  196 1    
   150   76  197 1    
   151   76  198 1    
   152   76  199 1    
   153   77   78 2    
   154   77   79 am   BACKBONE|DICT|INTERRES
   155   79   80 1    
   156   79  200 1    
   157   80   81 1    
   158   80   82 1    
   159   80  201 1    
   160   81  202 1    
   161   81  203 1    
   162   81  204 1    
   163   82   83 2    
   164   82   84 am   BACKBONE|DICT|INTERRES
   165   84   85 1    
   166   84  205 1    
   167   85   86 1    
   168   85   87 1    
   169   85  206 1    
   170   86  207 1    
   171   86  208 1    
   172   86  209 1    
   173   87   88 2    
   174   87   89 am   BACKBONE|DICT|INTERRES
   175   89   90 1    
   176   89  210 1    
   177   90   91 1    
   178   90   92 1    
   179   90  211 1    
   180   91  212 1    
   181   91  213 1    
   182   91  214 1    
   183   92   93 2    
   184   92   94 am   BACKBONE|DICT|INTERRES
   185   94   95 1    
   186   94  215 1    
   187   95   96 1    
   188   95   97 1    
   189   95  216 1    
   190   96  217 1    
   191   96  218 1    
   192   96  219 1    
   193   97   98 2    
   194   97   99 am   BACKBONE|DICT|INTERRES
   195   99  100 1    
   196   99  220 1    
   197  100  101 1    
   198  100  102 1    
   199  100  221 1    
   200  101  222 1    
   201  101  223 1    
   202  101  224 1    
   203  102  103 2    
   204  102  104 am   BACKBONE|DICT|INTERRES
   205  104  105 1    
   206  104  225 1    
   207  105  106 1    
   208  105  107 1    
   209  105  226 1    
   210  106  227 1    
   211  106  228 1    
   212  106  229 1    
   213  107  108 2    
   214  107  109 am   BACKBONE|DICT|INTERRES
   215  109  110 1    
   216  109  230 1    
   217  110  111 1    
   218  110  112 1    
   219  110  231 1    
   220  111  232 1    
   221  111  233 1    
   222  111  234 1    
   223  112  113 2    
   224  112  114 am   BACKBONE|DICT|INTERRES
   225  114  115 1    
   226  114  235 1    
   227  115  116 1    
   228  115  117 1    
   229  115  236 1    
   230  116  237 1    
   231  116  238 1    
   232  116  239 1    
   233  117  118 2    
   234  117  119 am   BACKBONE|DICT|INTERRES
   235  119  120 1    
   236  119  240 1    
   237  120  121 1    
   238  120  124 1    
   239  120  241 1    
   240  121  122 am   BACKBONE|DICT|INTERRES
   241  121  123 2    
   242  122  242 1    
   243  122  243 1    
   244  124  125 1    
   245  124  244 1    
   246  124  245 1    
   247  125  126 1    
   248  126  246 1    
   249  126  247 1    
@<TRIPOS>SUBSTRUCTURE
     1 UNK         1 GROUP             0       ****    0 ROOT    
