@<TRIPOS>MOLECULE
3R540
247   249    1
SMALL
USER_CHARGES


@<TRIPOS>ATOM
      1 CA          6.0460  -11.3031  -51.9042 C.3       0 UNK        -0.1800 
      2 C           5.1134  -11.9641  -50.8985 C.2       0 UNK         0.5000 
      3 O           4.7840  -11.3571  -49.8788 O.2       0 UNK        -0.5000 
      4 N           4.6964  -13.2052  -51.1775 N.am      1 UNK        -0.5000 
      5 CA          3.7405  -13.9692  -50.3688 C.3       1 UNK         0.1400 
      6 C6          3.8810  -15.4943  -50.6221 C.3       23 UNK        -0.0398 
      7 S7          3.5494  -16.4868  -49.1231 S.3       23 UNK        -0.2404 
      8 C8          4.0161  -18.1595  -49.6921 C.3       23 UNK        -0.0205 
      9 C9          2.8207  -19.0416  -50.0431 C.ar      23 UNK        -0.0193 
     10 C10         1.7624  -18.5517  -50.8124 C.ar      23 UNK        -0.1150 
     11 C11         0.6573  -19.3538  -51.1053 C.ar      23 UNK        -0.0193 
     12 C12         0.6330  -20.6763  -50.6574 C.ar      23 UNK        -0.1150 
     13 C13         1.6945  -21.2000  -49.9127 C.ar      23 UNK        -0.0193 
     14 C14         2.7846  -20.3710  -49.6091 C.ar      23 UNK        -0.1150 
     15 C15         1.6227  -22.6699  -49.4936 C.3       23 UNK        -0.0205 
     16 S16         2.7749  -23.1938  -48.1767 S.3       23 UNK        -0.2404 
     17 C17         2.0868  -22.3331  -46.7248 C.3       23 UNK        -0.0398 
     18 CA          1.2642  -23.2740  -45.8111 C.3       11 UNK         0.1400 
     19 N           1.3049  -22.8275  -44.4193 N.am      11 UNK        -0.5000 
     20 C           0.9810  -23.5567  -43.3448 C.2       10 UNK         0.5000 
     21 O           0.6443  -24.7392  -43.4111 O.2       10 UNK        -0.5000 
     22 CA          0.9797  -22.8217  -41.9852 C.3       10 UNK         0.1400 
     23 CB          1.3935  -23.7342  -40.8129 C.3       10 UNK        -0.1800 
     24 N           1.7510  -21.5706  -41.9959 N.am      10 UNK        -0.5000 
     25 C           3.0763  -21.4224  -42.1533 C.2       9 UNK         0.5000 
     26 O           3.8660  -22.3646  -42.2225 O.2       9 UNK        -0.5000 
     27 CA          3.6187  -19.9855  -42.3080 C.3       9 UNK         0.1400 
     28 CB          4.1435  -19.7710  -43.7377 C.3       9 UNK        -0.1800 
     29 N           2.6304  -18.9449  -42.0182 N.am      9 UNK        -0.5000 
     30 C           2.2262  -18.5805  -40.7946 C.2       8 UNK         0.5000 
     31 O           2.6839  -19.0536  -39.7539 O.2       8 UNK        -0.5000 
     32 CA          1.0901  -17.5404  -40.7253 C.3       8 UNK         0.1400 
     33 CB          1.6539  -16.1130  -40.7875 C.3       8 UNK        -0.1800 
     34 N           0.0814  -17.7149  -41.7755 N.am      8 UNK        -0.5000 
     35 C          -0.6996  -18.7971  -41.9072 C.2       7 UNK         0.5000 
     36 O          -0.6613  -19.7644  -41.1468 O.2       7 UNK        -0.5000 
     37 CA         -1.6434  -18.8365  -43.1208 C.3       7 UNK         0.1400 
     38 CB         -2.8935  -17.9775  -42.8835 C.3       7 UNK        -0.1800 
     39 N          -0.9822  -18.4304  -44.3606 N.am      7 UNK        -0.5000 
     40 C           0.0190  -19.1076  -44.9396 C.2       6 UNK         0.5000 
     41 O           0.4357  -20.1878  -44.5252 O.2       6 UNK        -0.5000 
     42 CA          0.6964  -18.4610  -46.1596 C.3       6 UNK         0.1400 
     43 CB         -0.1162  -18.7257  -47.4328 C.3       6 UNK        -0.1800 
     44 N           0.8891  -17.0230  -45.9903 N.am      6 UNK        -0.5000 
     45 C           1.6429  -16.4572  -45.0378 C.2       5 UNK         0.5000 
     46 O           2.3109  -17.0933  -44.2241 O.2       5 UNK        -0.5000 
     47 CA          1.5861  -14.9244  -44.9361 C.3       5 UNK         0.1400 
     48 CB          2.5263  -14.2637  -45.9560 C.3       5 UNK        -0.1800 
     49 N           0.2223  -14.4241  -45.1144 N.am      5 UNK        -0.5000 
     50 C          -0.7643  -14.5934  -44.2226 C.2       4 UNK         0.5000 
     51 O          -0.6129  -15.1531  -43.1365 O.2       4 UNK        -0.5000 
     52 CA         -2.1604  -14.0831  -44.6270 C.3       4 UNK         0.1400 
     53 CB         -2.2907  -12.5796  -44.3421 C.3       4 UNK        -0.1800 
     54 N          -2.4677  -14.3384  -46.0354 N.am      4 UNK        -0.5000 
     55 C          -2.6720  -15.5573  -46.5550 C.2       3 UNK         0.5000 
     56 O          -2.6687  -16.5908  -45.8881 O.2       3 UNK        -0.5000 
     57 CA         -2.8574  -15.6408  -48.0832 C.3       3 UNK         0.1400 
     58 CB         -4.3365  -15.4827  -48.4636 C.3       3 UNK        -0.1800 
     59 N          -2.0510  -14.6694  -48.8324 N.am      3 UNK        -0.5000 
     60 C          -0.7135  -14.6097  -48.7882 C.2       2 UNK         0.5000 
     61 O          -0.0251  -15.3193  -48.0503 O.2       2 UNK        -0.5000 
     62 CA         -0.0287  -13.5683  -49.6815 C.3       2 UNK         0.1400 
     63 CB         -0.2639  -12.1426  -49.1491 C.3       2 UNK        -0.1800 
     64 N           1.3974  -13.8682  -49.6883 N.am      2 UNK        -0.5000 
     65 C           2.2929  -13.4709  -50.5929 C.2       1 UNK         0.5000 
     66 O           2.0159  -12.7559  -51.5604 O.2       1 UNK        -0.5000 
     67 C          -0.1898  -23.4203  -46.3054 C.2       11 UNK         0.5000 
     68 O          -0.4602  -24.2686  -47.1538 O.2       11 UNK        -0.5000 
     69 N          -1.1154  -22.6467  -45.7172 N.am      12 UNK        -0.5000 
     70 CA         -2.5588  -22.7082  -45.9715 C.3       12 UNK         0.1400 
     71 CB         -3.2453  -21.5471  -45.2379 C.3       12 UNK        -0.1800 
     72 C          -3.2199  -24.0555  -45.5966 C.2       12 UNK         0.5000 
     73 O          -4.3453  -24.3139  -46.0237 O.2       12 UNK        -0.5000 
     74 N          -2.5234  -24.8878  -44.8093 N.am      13 UNK        -0.5000 
     75 CA         -2.9177  -26.2628  -44.5048 C.3       13 UNK         0.1400 
     76 CB         -2.4094  -26.6215  -43.0996 C.3       13 UNK        -0.1800 
     77 C          -2.3828  -27.2729  -45.5417 C.2       13 UNK         0.5000 
     78 O          -2.9144  -28.3811  -45.6221 O.2       13 UNK        -0.5000 
     79 N          -1.3414  -26.8970  -46.2980 N.am      14 UNK        -0.5000 
     80 CA         -0.6785  -27.7433  -47.2909 C.3       14 UNK         0.1400 
     81 CB          0.8346  -27.4720  -47.2561 C.3       14 UNK        -0.1800 
     82 C          -1.2354  -27.5093  -48.7050 C.2       14 UNK         0.5000 
     83 O          -1.3912  -28.4713  -49.4585 O.2       14 UNK        -0.5000 
     84 N          -1.5339  -26.2484  -49.0363 N.am      15 UNK        -0.5000 
     85 CA         -2.1416  -25.8203  -50.2926 C.3       15 UNK         0.1400 
     86 CB         -1.0759  -25.1352  -51.1623 C.3       15 UNK        -0.1800 
     87 C          -3.2860  -24.8503  -49.9773 C.2       15 UNK         0.5000 
     88 O          -3.2409  -24.1665  -48.9539 O.2       15 UNK        -0.5000 
     89 N          -4.2842  -24.7819  -50.8661 N.am      16 UNK        -0.5000 
     90 CA         -5.5024  -23.9795  -50.7168 C.3       16 UNK         0.1400 
     91 CB         -6.5875  -24.5572  -51.6421 C.3       16 UNK        -0.1800 
     92 C          -5.2684  -22.4688  -50.9445 C.2       16 UNK         0.5000 
     93 O          -5.9007  -21.8608  -51.8104 O.2       16 UNK        -0.5000 
     94 N          -4.3711  -21.8814  -50.1442 N.am      17 UNK        -0.5000 
     95 CA         -3.9488  -20.4783  -50.1859 C.3       17 UNK         0.1400 
     96 CB         -2.8650  -20.2594  -49.1204 C.3       17 UNK        -0.1800 
     97 C          -5.0922  -19.4627  -49.9941 C.2       17 UNK         0.5000 
     98 O          -5.0072  -18.3528  -50.5147 O.2       17 UNK        -0.5000 
     99 N          -6.1405  -19.8636  -49.2625 N.am      18 UNK        -0.5000 
    100 CA        -7.3476  -19.0679  -49.0422 C.3       18 UNK         0.1400 
    101 CB        -8.0566  -19.5859  -47.7812 C.3       18 UNK        -0.1800 
    102 C         -8.3123  -19.0804  -50.2458 C.2       18 UNK         0.5000 
    103 O         -9.0984  -18.1431  -50.3895 O.2       18 UNK        -0.5000 
    104 N         -8.2586  -20.1359  -51.0717 N.am      19 UNK        -0.5000 
    105 CA        -9.0789  -20.2825  -52.2763 C.3       19 UNK         0.1400 
    106 CB        -9.3693  -21.7712  -52.5208 C.3       19 UNK        -0.1800 
    107 C         -8.3876  -19.6615  -53.5010 C.2       19 UNK         0.5000 
    108 O         -9.0596  -19.0655  -54.3443 O.2       19 UNK        -0.5000 
    109 N         -7.0584  -19.8090  -53.5712 N.am      20 UNK        -0.5000 
    110 CA        -6.1875  -19.1917  -54.5688 C.3       20 UNK         0.1400 
    111 CB        -4.7877  -19.8142  -54.4316 C.3       20 UNK        -0.1800 
    112 C         -6.1080  -17.6599  -54.4114 C.2       20 UNK         0.5000 
    113 O         -6.4258  -17.1258  -53.3463 O.2       20 UNK        -0.5000 
    114 N         -5.6382  -16.9793  -55.4672 N.am      21 UNK        -0.5000 
    115 CA        -5.3250  -15.5460  -55.4421 C.3       21 UNK         0.1400 
    116 CB        -5.0175  -15.0574  -56.8660 C.3       21 UNK        -0.1800 
    117 C         -4.1564  -15.2366  -54.4864 C.2       21 UNK         0.5000 
    118 O         -4.2382  -14.2843  -53.7098 O.2       21 UNK        -0.5000 
    119 N         -3.1232  -16.0902  -54.5394 N.am      22 UNK        -0.5000 
    120 CA        -1.9973  -16.2323  -53.5992 C.3       22 UNK         0.1400 
    121 C         -1.0337  -15.0125  -53.4617 C.2       22 UNK         0.5000 
    122 N         -1.5055  -13.7781  -53.5486 N.am      22 UNK        -0.7600 
    123 O          0.1710  -15.1944  -53.3145 O.2       22 UNK        -0.5000 
    124 C124       -2.4985  -16.7767  -52.2327 C.3       23 UNK        -0.0398 
    125 S125       -1.2101  -17.3296  -51.0703 S.3       23 UNK        -0.2404 
    126 C126       -0.5017  -18.7817  -51.9066 C.3       23 UNK        -0.0205 
    127 H127        5.5937  -10.3896  -52.2905 H         1 UNK         0.0600 
    128 H128        6.2628  -11.9581  -52.7485 H         1 UNK         0.0600 
    129 H129        6.9899  -11.0418  -51.4258 H         1 UNK         0.0600 
    130 H130        4.9716  -13.6309  -52.0509 H         1 UNK         0.3000 
    131 H131        3.9885  -13.7730  -49.3228 H         1 UNK         0.0600 
    132 H132        4.9042  -15.7248  -50.9228 H         1 UNK         0.0800 
    133 H133        3.2495  -15.8267  -51.4476 H         1 UNK         0.0800 
    134 H134        4.5990  -18.6243  -48.8957 H         1 UNK         0.0800 
    135 H135        4.6784  -18.0986  -50.5562 H         1 UNK         0.0800 
    136 H136        1.7747  -17.5309  -51.1637 H         1 UNK         0.1150 
    137 H137       -0.2130  -21.3053  -50.8963 H         1 UNK         0.1150 
    138 H138        3.6181  -20.7551  -49.0401 H         1 UNK         0.1150 
    139 H139        0.6063  -22.9044  -49.1772 H         1 UNK         0.0800 
    140 H140        1.8174  -23.2825  -50.3747 H         1 UNK         0.0800 
    141 H141        1.5130  -21.4567  -47.0296 H         1 UNK         0.0800 
    142 H142        2.9444  -21.9410  -46.1759 H         1 UNK         0.0800 
    143 H143        1.7170  -24.2679  -45.8358 H         1 UNK         0.0600 
    144 H144        1.4381  -21.8309  -44.2799 H         1 UNK         0.3000 
    145 H145       -0.0558  -22.5245  -41.8138 H         1 UNK         0.0600 
    146 H146        1.3873  -23.1896  -39.8687 H         1 UNK         0.0600 
    147 H147        0.7024  -24.5713  -40.7080 H         1 UNK         0.0600 
    148 H148        2.3899  -24.1532  -40.9539 H         1 UNK         0.0600 
    149 H149        1.1918  -20.7278  -41.9461 H         1 UNK         0.3000 
    150 H150        4.4553  -19.8749  -41.6152 H         1 UNK         0.0600 
    151 H151        4.9083  -20.5055  -43.9932 H         1 UNK         0.0600 
    152 H152        4.5934  -18.7842  -43.8481 H         1 UNK         0.0600 
    153 H153        3.3445  -19.8575  -44.4750 H         1 UNK         0.0600 
    154 H154        2.2580  -18.4424  -42.8194 H         1 UNK         0.3000 
    155 H155        0.5891  -17.6645  -39.7631 H         1 UNK         0.0600 
    156 H156        2.3832  -15.9460  -39.9939 H         1 UNK         0.0600 
    157 H157        0.8643  -15.3715  -40.6653 H         1 UNK         0.0600 
    158 H158        2.1517  -15.9177  -41.7374 H         1 UNK         0.0600 
    159 H159       -0.0366  -16.9432  -42.4249 H         1 UNK         0.3000 
    160 H160       -1.9674  -19.8706  -43.2389 H         1 UNK         0.0600 
    161 H161       -2.6476  -16.9195  -42.7958 H         1 UNK         0.0600 
    162 H162       -3.4034  -18.2741  -41.9662 H         1 UNK         0.0600 
    163 H163       -3.6058  -18.0883  -43.7013 H         1 UNK         0.0600 
    164 H164       -1.3268  -17.5856  -44.8056 H         1 UNK         0.3000 
    165 H165        1.6815  -18.9156  -46.2814 H         1 UNK         0.0600 
    166 H166        0.3576  -18.2716  -48.3027 H         1 UNK         0.0600 
    167 H167       -0.2050  -19.7945  -47.6292 H         1 UNK         0.0600 
    168 H168       -1.1242  -18.3204  -47.3562 H         1 UNK         0.0600 
    169 H169        0.4162  -16.4177  -46.6582 H         1 UNK         0.3000 
    170 H170        1.9240  -14.6428  -43.9366 H         1 UNK         0.0600 
    171 H171        3.5557  -14.5894  -45.8012 H         1 UNK         0.0600 
    172 H172        2.2580  -14.5170  -46.9802 H         1 UNK         0.0600 
    173 H173        2.5107  -13.1777  -45.8633 H         1 UNK         0.0600 
    174 H174        0.0009  -14.0229  -46.0133 H         1 UNK         0.3000 
    175 H175       -2.8967  -14.6102  -44.0164 H         1 UNK         0.0600 
    176 H176       -2.0826  -12.3623  -43.2935 H         1 UNK         0.0600 
    177 H177       -1.5958  -11.9920  -44.9434 H         1 UNK         0.0600 
    178 H178       -3.2998  -12.2248  -44.5521 H         1 UNK         0.0600 
    179 H179       -2.4863  -13.5416  -46.6543 H         1 UNK         0.3000 
    180 H180       -2.5386  -16.6378  -48.3929 H         1 UNK         0.0600 
    181 H181       -4.7149  -14.4910  -48.2134 H         1 UNK         0.0600 
    182 H182       -4.9536  -16.2143  -47.9400 H         1 UNK         0.0600 
    183 H183       -4.4875  -15.6432  -49.5314 H         1 UNK         0.0600 
    184 H184       -2.5525  -14.0489  -49.4509 H         1 UNK         0.3000 
    185 H185       -0.4253  -13.6651  -50.6938 H         1 UNK         0.0600 
    186 H186       -1.3263  -11.8972  -49.1307 H         1 UNK         0.0600 
    187 H187        0.1202  -12.0249  -48.1350 H         1 UNK         0.0600 
    188 H188        0.2251  -11.3990  -49.7785 H         1 UNK         0.0600 
    189 H189        1.6664  -14.5327  -48.9714 H         1 UNK         0.3000 
    190 H190       -0.7994  -21.9620  -45.0422 H         1 UNK         0.3000 
    191 H191       -2.7042  -22.5603  -47.0414 H         1 UNK         0.0600 
    192 H192       -3.1606  -21.6544  -44.1564 H         1 UNK         0.0600 
    193 H193       -4.3082  -21.5080  -45.4797 H         1 UNK         0.0600 
    194 H194       -2.8156  -20.5865  -45.5232 H         1 UNK         0.0600 
    195 H195       -1.6149  -24.5970  -44.4762 H         1 UNK         0.3000 
    196 H196       -4.0070  -26.3402  -44.4977 H         1 UNK         0.0600 
    197 H197       -2.7294  -27.6241  -42.8131 H         1 UNK         0.0600 
    198 H198       -2.7972  -25.9307  -42.3507 H         1 UNK         0.0600 
    199 H199       -1.3204  -26.5983  -43.0461 H         1 UNK         0.0600 
    200 H200       -1.0115  -25.9409  -46.2429 H         1 UNK         0.3000 
    201 H201       -0.8320  -28.7951  -47.0400 H         1 UNK         0.0600 
    202 H202        1.2450  -27.6560  -46.2632 H         1 UNK         0.0600 
    203 H203        1.0716  -26.4435  -47.5305 H         1 UNK         0.0600 
    204 H204        1.3623  -28.1247  -47.9526 H         1 UNK         0.0600 
    205 H205       -1.3921  -25.5070  -48.3546 H         1 UNK         0.3000 
    206 H206       -2.5538  -26.6763  -50.8308 H         1 UNK         0.0600 
    207 H207       -0.2390  -25.8047  -51.3616 H         1 UNK         0.0600 
    208 H208       -1.4898  -24.8343  -52.1253 H         1 UNK         0.0600 
    209 H209       -0.6819  -24.2404  -50.6809 H         1 UNK         0.0600 
    210 H210       -4.2249  -25.3391  -51.7062 H         1 UNK         0.3000 
    211 H211       -5.8580  -24.0916  -49.6902 H         1 UNK         0.0600 
    212 H212       -7.5439  -24.0621  -51.4747 H         1 UNK         0.0600 
    213 H213       -6.7426  -25.6198  -51.4547 H         1 UNK         0.0600 
    214 H214       -6.3290  -24.4356  -52.6949 H         1 UNK         0.0600 
    215 H215       -3.8858  -22.4875  -49.4871 H         1 UNK         0.3000 
    216 H216       -3.5096  -20.2976  -51.1685 H         1 UNK         0.0600 
    217 H217       -2.4673  -19.2465  -49.1775 H         1 UNK         0.0600 
    218 H218       -2.0291  -20.9462  -49.2518 H         1 UNK         0.0600 
    219 H219       -3.2583  -20.3975  -48.1131 H         1 UNK         0.0600 
    220 H220       -6.1196  -20.7877  -48.8578 H         1 UNK         0.3000 
    221 H221       -7.0554  -18.0304  -48.8644 H         1 UNK         0.0600 
    222 H222       -8.3680  -20.6254  -47.8920 H         1 UNK         0.0600 
    223 H223       -7.4067  -19.5202  -46.9082 H         1 UNK         0.0600 
    224 H224       -8.9491  -18.9971  -47.5652 H         1 UNK         0.0600 
    225 H225       -7.5400  -20.8335  -50.9295 H         1 UNK         0.3000 
    226 H226      -10.0353  -19.7752  -52.1318 H         1 UNK         0.0600 
    227 H227       -9.8262  -22.2360  -51.6470 H         1 UNK         0.0600 
    228 H228      -10.0589  -21.8984  -53.3560 H         1 UNK         0.0600 
    229 H229       -8.4617  -22.3240  -52.7631 H         1 UNK         0.0600 
    230 H230       -6.5973  -20.3524  -52.8489 H         1 UNK         0.3000 
    231 H231       -6.5844  -19.4201  -55.5600 H         1 UNK         0.0600 
    232 H232       -4.8240  -20.8969  -54.5553 H         1 UNK         0.0600 
    233 H233       -4.3528  -19.6063  -53.4533 H         1 UNK         0.0600 
    234 H234       -4.1032  -19.4250  -55.1859 H         1 UNK         0.0600 
    235 H235       -5.4125  -17.4786  -56.3155 H         1 UNK         0.3000 
    236 H236       -6.2051  -15.0101  -55.0801 H         1 UNK         0.0600 
    237 H237       -4.7916  -13.9902  -56.8707 H         1 UNK         0.0600 
    238 H238       -4.1607  -15.5760  -57.2977 H         1 UNK         0.0600 
    239 H239       -5.8705  -15.2105  -57.5274 H         1 UNK         0.0600 
    240 H240       -3.1578  -16.7976  -55.2581 H         1 UNK         0.3000 
    241 H241       -1.3922  -17.0160  -54.0538 H         1 UNK         0.0600 
    242 H242       -0.8810  -12.9903  -53.4845 H         1 UNK         0.3800 
    243 H243       -2.5083  -13.6434  -53.6459 H         1 UNK         0.3800 
    244 H244       -3.0973  -16.0184  -51.7262 H         1 UNK         0.0800 
    245 H245       -3.1719  -17.6188  -52.3958 H         1 UNK         0.0800 
    246 H246       -1.2820  -19.5283  -52.0585 H         1 UNK         0.0800 
    247 H247       -0.1301  -18.5021  -52.8921 H         1 UNK         0.0800 
@<TRIPOS>BOND
     1    1    2 1    
     2    1  127 1    
     3    1  128 1    
     4    1  129 1    
     5    2    3 2    
     6    2    4 am   BACKBONE|DICT|INTERRES
     7    4    5 1    
     8    4  130 1    
     9    5    6 1    
    10    5   65 1    
    11    5  131 1    
    12    6    7 1    
    13    6  132 1    
    14    6  133 1    
    15    7    8 1    
    16    8    9 1    
    17    8  134 1    
    18    8  135 1    
    19    9   10 ar   
    20    9   14 ar   
    21   10   11 ar   
    22   10  136 1    
    23   11   12 ar   
    24   11  126 1    
    25   12   13 ar   
    26   12  137 1    
    27   13   14 ar   
    28   13   15 1    
    29   14  138 1    
    30   15   16 1    
    31   15  139 1    
    32   15  140 1    
    33   16   17 1    
    34   17   18 1    
    35   17  141 1    
    36   17  142 1    
    37   18   19 1    
    38   18   67 1    
    39   18  143 1    
    40   19   20 am   BACKBONE|DICT|INTERRES
    41   19  144 1    
    42   20   21 2    
    43   20   22 1    
    44   22   23 1    
    45   22   24 1    
    46   22  145 1    
    47   23  146 1    
    48   23  147 1    
    49   23  148 1    
    50   24   25 am   BACKBONE|DICT|INTERRES
    51   24  149 1    
    52   25   26 2    
    53   25   27 1    
    54   27   28 1    
    55   27   29 1    
    56   27  150 1    
    57   28  151 1    
    58   28  152 1    
    59   28  153 1    
    60   29   30 am   BACKBONE|DICT|INTERRES
    61   29  154 1    
    62   30   31 2    
    63   30   32 1    
    64   32   33 1    
    65   32   34 1    
    66   32  155 1    
    67   33  156 1    
    68   33  157 1    
    69   33  158 1    
    70   34   35 am   BACKBONE|DICT|INTERRES
    71   34  159 1    
    72   35   36 2    
    73   35   37 1    
    74   37   38 1    
    75   37   39 1    
    76   37  160 1    
    77   38  161 1    
    78   38  162 1    
    79   38  163 1    
    80   39   40 am   BACKBONE|DICT|INTERRES
    81   39  164 1    
    82   40   41 2    
    83   40   42 1    
    84   42   43 1    
    85   42   44 1    
    86   42  165 1    
    87   43  166 1    
    88   43  167 1    
    89   43  168 1    
    90   44   45 am   BACKBONE|DICT|INTERRES
    91   44  169 1    
    92   45   46 2    
    93   45   47 1    
    94   47   48 1    
    95   47   49 1    
    96   47  170 1    
    97   48  171 1    
    98   48  172 1    
    99   48  173 1    
   100   49   50 am   BACKBONE|DICT|INTERRES
   101   49  174 1    
   102   50   51 2    
   103   50   52 1    
   104   52   53 1    
   105   52   54 1    
   106   52  175 1    
   107   53  176 1    
   108   53  177 1    
   109   53  178 1    
   110   54   55 am   BACKBONE|DICT|INTERRES
   111   54  179 1    
   112   55   56 2    
   113   55   57 1    
   114   57   58 1    
   115   57   59 1    
   116   57  180 1    
   117   58  181 1    
   118   58  182 1    
   119   58  183 1    
   120   59   60 am   BACKBONE|DICT|INTERRES
   121   59  184 1    
   122   60   61 2    
   123   60   62 1    
   124   62   63 1    
   125   62   64 1    
   126   62  185 1    
   127   63  186 1    
   128   63  187 1    
   129   63  188 1    
   130   64   65 am   BACKBONE|DICT|INTERRES
   131   64  189 1    
   132   65   66 2    
   133   67   68 2    
   134   67   69 am   BACKBONE|DICT|INTERRES
   135   69   70 1    
   136   69  190 1    
   137   70   71 1    
   138   70   72 1    
   139   70  191 1    
   140   71  192 1    
   141   71  193 1    
   142   71  194 1    
   143   72   73 2    
   144   72   74 am   BACKBONE|DICT|INTERRES
   145   74   75 1    
   146   74  195 1    
   147   75   76 1    
   148   75   77 1    
   149   75  196 1    
   150   76  197 1    
   151   76  198 1    
   152   76  199 1    
   153   77   78 2    
   154   77   79 am   BACKBONE|DICT|INTERRES
   155   79   80 1    
   156   79  200 1    
   157   80   81 1    
   158   80   82 1    
   159   80  201 1    
   160   81  202 1    
   161   81  203 1    
   162   81  204 1    
   163   82   83 2    
   164   82   84 am   BACKBONE|DICT|INTERRES
   165   84   85 1    
   166   84  205 1    
   167   85   86 1    
   168   85   87 1    
   169   85  206 1    
   170   86  207 1    
   171   86  208 1    
   172   86  209 1    
   173   87   88 2    
   174   87   89 am   BACKBONE|DICT|INTERRES
   175   89   90 1    
   176   89  210 1    
   177   90   91 1    
   178   90   92 1    
   179   90  211 1    
   180   91  212 1    
   181   91  213 1    
   182   91  214 1    
   183   92   93 2    
   184   92   94 am   BACKBONE|DICT|INTERRES
   185   94   95 1    
   186   94  215 1    
   187   95   96 1    
   188   95   97 1    
   189   95  216 1    
   190   96  217 1    
   191   96  218 1    
   192   96  219 1    
   193   97   98 2    
   194   97   99 am   BACKBONE|DICT|INTERRES
   195   99  100 1    
   196   99  220 1    
   197  100  101 1    
   198  100  102 1    
   199  100  221 1    
   200  101  222 1    
   201  101  223 1    
   202  101  224 1    
   203  102  103 2    
   204  102  104 am   BACKBONE|DICT|INTERRES
   205  104  105 1    
   206  104  225 1    
   207  105  106 1    
   208  105  107 1    
   209  105  226 1    
   210  106  227 1    
   211  106  228 1    
   212  106  229 1    
   213  107  108 2    
   214  107  109 am   BACKBONE|DICT|INTERRES
   215  109  110 1    
   216  109  230 1    
   217  110  111 1    
   218  110  112 1    
   219  110  231 1    
   220  111  232 1    
   221  111  233 1    
   222  111  234 1    
   223  112  113 2    
   224  112  114 am   BACKBONE|DICT|INTERRES
   225  114  115 1    
   226  114  235 1    
   227  115  116 1    
   228  115  117 1    
   229  115  236 1    
   230  116  237 1    
   231  116  238 1    
   232  116  239 1    
   233  117  118 2    
   234  117  119 am   BACKBONE|DICT|INTERRES
   235  119  120 1    
   236  119  240 1    
   237  120  121 1    
   238  120  124 1    
   239  120  241 1    
   240  121  122 am   BACKBONE|DICT|INTERRES
   241  121  123 2    
   242  122  242 1    
   243  122  243 1    
   244  124  125 1    
   245  124  244 1    
   246  124  245 1    
   247  125  126 1    
   248  126  246 1    
   249  126  247 1    
@<TRIPOS>SUBSTRUCTURE
     1 UNK         1 GROUP             0       ****    0 ROOT    
