@<TRIPOS>MOLECULE
3R540
247   249    1
SMALL
USER_CHARGES


@<TRIPOS>ATOM
      1 CA         -2.1516  -17.0910  -42.3974 C.3       0 UNK        -0.1800 
      2 C          -2.9406  -16.2467  -43.3874 C.2       0 UNK         0.5000 
      3 O          -3.8203  -15.4865  -42.9824 O.2       0 UNK        -0.5000 
      4 N          -2.6329  -16.3829  -44.6808 N.am      1 UNK        -0.5000 
      5 CA         -3.2177  -15.6028  -45.7724 C.3       1 UNK         0.1400 
      6 C6         -3.1490  -16.3783  -47.1141 C.3       23 UNK        -0.0398 
      7 S7         -1.4543  -16.8058  -47.6414 S.3       23 UNK        -0.2404 
      8 C8         -1.7694  -17.6691  -49.2115 C.3       23 UNK        -0.0205 
      9 C9         -0.4813  -18.0128  -49.9538 C.ar      23 UNK        -0.0193 
     10 C10        -0.3497  -17.6789  -51.3061 C.ar      23 UNK        -0.1150 
     11 C11         0.8374  -17.9399  -51.9951 C.ar      23 UNK        -0.0193 
     12 C12         1.8985  -18.5518  -51.3221 C.ar      23 UNK        -0.1150 
     13 C13         1.7852  -18.8941  -49.9714 C.ar      23 UNK        -0.0193 
     14 C14         0.5870  -18.6386  -49.2974 C.ar      23 UNK        -0.1150 
     15 C15         2.9877  -19.4647  -49.2316 C.3       23 UNK        -0.0205 
     16 S16         2.9332  -21.2808  -49.0928 S.3       23 UNK        -0.2404 
     17 C17         2.5828  -21.5224  -47.3171 C.3       23 UNK        -0.0398 
     18 CA          1.4560  -22.5496  -47.0569 C.3       11 UNK         0.1400 
     19 N           1.4887  -23.0677  -45.6875 N.am      11 UNK        -0.5000 
     20 C           0.8078  -24.1409  -45.2598 C.2       10 UNK         0.5000 
     21 O           0.1316  -24.8592  -45.9958 O.2       10 UNK        -0.5000 
     22 CA          0.8508  -24.4290  -43.7464 C.3       10 UNK         0.1400 
     23 CB          2.0960  -25.2529  -43.3871 C.3       10 UNK        -0.1800 
     24 N           0.8284  -23.2057  -42.9407 N.am      10 UNK        -0.5000 
     25 C          -0.2138  -22.3646  -42.8742 C.2       9 UNK         0.5000 
     26 O          -1.2919  -22.5775  -43.4269 O.2       9 UNK        -0.5000 
     27 CA         -0.0022  -21.0401  -42.1125 C.3       9 UNK         0.1400 
     28 CB         -0.4396  -21.1843  -40.6483 C.3       9 UNK        -0.1800 
     29 N           1.3726  -20.5299  -42.1701 N.am      9 UNK        -0.5000 
     30 C           2.0268  -20.2194  -43.3001 C.2       8 UNK         0.5000 
     31 O           1.5265  -20.3471  -44.4189 O.2       8 UNK        -0.5000 
     32 CA          3.4732  -19.7087  -43.1574 C.3       8 UNK         0.1400 
     33 CB          3.9292  -18.8952  -44.3807 C.3       8 UNK        -0.1800 
     34 N           3.5976  -18.8725  -41.9683 N.am      8 UNK        -0.5000 
     35 C           4.4043  -19.0948  -40.9222 C.2       7 UNK         0.5000 
     36 O           5.1727  -20.0536  -40.8444 O.2       7 UNK        -0.5000 
     37 CA          4.3422  -18.0812  -39.7576 C.3       7 UNK         0.1400 
     38 CB          5.5631  -17.1489  -39.7937 C.3       7 UNK        -0.1800 
     39 N           3.1278  -17.2620  -39.7632 N.am      7 UNK        -0.5000 
     40 C           1.8893  -17.7219  -39.5375 C.2       6 UNK         0.5000 
     41 O           1.6499  -18.8745  -39.1790 O.2       6 UNK        -0.5000 
     42 CA          0.7216  -16.7522  -39.8126 C.3       6 UNK         0.1400 
     43 CB          0.1963  -16.1519  -38.5005 C.3       6 UNK        -0.1800 
     44 N           1.0505  -15.6621  -40.7423 N.am      6 UNK        -0.5000 
     45 C           1.4065  -15.8218  -42.0245 C.2       5 UNK         0.5000 
     46 O           1.4892  -16.9217  -42.5770 O.2       5 UNK        -0.5000 
     47 CA          1.7935  -14.5514  -42.7941 C.3       5 UNK         0.1400 
     48 CB          3.1268  -13.9824  -42.2697 C.3       5 UNK        -0.1800 
     49 N           1.9178  -14.8826  -44.2094 N.am      5 UNK        -0.5000 
     50 C           1.8925  -14.0139  -45.2252 C.2       4 UNK         0.5000 
     51 O           1.7820  -12.7953  -45.0729 O.2       4 UNK        -0.5000 
     52 CA          2.0318  -14.5795  -46.6503 C.3       4 UNK         0.1400 
     53 CB          2.0597  -16.1200  -46.7394 C.3       4 UNK        -0.1800 
     54 N           0.9419  -14.0613  -47.4700 N.am      4 UNK        -0.5000 
     55 C           1.0658  -13.6135  -48.7262 C.2       3 UNK         0.5000 
     56 O           2.1351  -13.5951  -49.3380 O.2       3 UNK        -0.5000 
     57 CA         -0.2044  -13.0994  -49.4377 C.3       3 UNK         0.1400 
     58 CB         -0.6284  -14.0659  -50.5550 C.3       3 UNK        -0.1800 
     59 N          -1.3401  -12.9046  -48.5364 N.am      3 UNK        -0.5000 
     60 C          -1.5025  -11.8595  -47.7135 C.2       2 UNK         0.5000 
     61 O          -0.7383  -10.8948  -47.6762 O.2       2 UNK        -0.5000 
     62 CA         -2.7184  -11.9049  -46.7625 C.3       2 UNK         0.1400 
     63 CB         -3.8625  -11.0392  -47.3124 C.3       2 UNK        -0.1800 
     64 N          -3.2262  -13.2593  -46.5086 N.am      2 UNK        -0.5000 
     65 C          -2.5410  -14.2188  -45.8716 C.2       1 UNK         0.5000 
     66 O          -1.4020  -14.0542  -45.4285 O.2       1 UNK        -0.5000 
     67 C           0.0701  -21.9631  -47.3742 C.2       11 UNK         0.5000 
     68 O          -0.4886  -22.2706  -48.4239 O.2       11 UNK        -0.5000 
     69 N          -0.4843  -21.1834  -46.4336 N.am      12 UNK        -0.5000 
     70 CA         -1.8246  -20.6046  -46.5257 C.3       12 UNK         0.1400 
     71 CB         -2.0790  -19.6871  -45.3232 C.3       12 UNK        -0.1800 
     72 C          -2.9351  -21.6624  -46.6594 C.2       12 UNK         0.5000 
     73 O          -3.8534  -21.4768  -47.4599 O.2       12 UNK        -0.5000 
     74 N          -2.8036  -22.7630  -45.9062 N.am      13 UNK        -0.5000 
     75 CA         -3.6719  -23.9358  -45.9753 C.3       13 UNK         0.1400 
     76 CB         -3.3795  -24.8642  -44.7870 C.3       13 UNK        -0.1800 
     77 C          -3.5407  -24.6926  -47.3093 C.2       13 UNK         0.5000 
     78 O          -4.5619  -25.0363  -47.9037 O.2       13 UNK        -0.5000 
     79 N          -2.3011  -24.9106  -47.7750 N.am      14 UNK        -0.5000 
     80 CA         -1.9949  -25.5628  -49.0540 C.3       14 UNK         0.1400 
     81 CB         -0.4855  -25.8331  -49.1459 C.3       14 UNK        -0.1800 
     82 C          -2.4767  -24.7527  -50.2732 C.2       14 UNK         0.5000 
     83 O          -2.9906  -25.3304  -51.2312 O.2       14 UNK        -0.5000 
     84 N          -2.3343  -23.4250  -50.1920 N.am      15 UNK        -0.5000 
     85 CA         -2.8425  -22.4485  -51.1534 C.3       15 UNK         0.1400 
     86 CB         -2.1764  -21.0988  -50.8462 C.3       15 UNK        -0.1800 
     87 C          -4.3748  -22.2872  -51.1061 C.2       15 UNK         0.5000 
     88 O          -4.9486  -21.7121  -52.0310 O.2       15 UNK        -0.5000 
     89 N          -4.9972  -22.7389  -50.0063 N.am      16 UNK        -0.5000 
     90 CA         -6.4069  -22.5779  -49.6408 C.3       16 UNK         0.1400 
     91 CB         -7.3000  -23.4740  -50.5200 C.3       16 UNK        -0.1800 
     92 C          -6.8313  -21.0945  -49.6245 C.2       16 UNK         0.5000 
     93 O          -7.8635  -20.7330  -50.1904 O.2       16 UNK        -0.5000 
     94 N          -5.9854  -20.2655  -48.9937 N.am      17 UNK        -0.5000 
     95 CA         -6.0640  -18.8036  -48.9229 C.3       17 UNK         0.1400 
     96 CB         -7.2936  -18.3511  -48.1085 C.3       17 UNK        -0.1800 
     97 C          -5.9590  -18.1286  -50.3089 C.2       17 UNK         0.5000 
     98 O          -6.7208  -17.2086  -50.6102 O.2       17 UNK        -0.5000 
     99 N          -4.9931  -18.6004  -51.1120 N.am      18 UNK        -0.5000 
    100 CA        -4.6569  -18.1467  -52.4675 C.3       18 UNK         0.1400 
    101 CB        -4.1875  -16.6748  -52.4711 C.3       18 UNK        -0.1800 
    102 C         -5.7825  -18.4098  -53.4878 C.2       18 UNK         0.5000 
    103 O         -6.0826  -17.5485  -54.3185 O.2       18 UNK        -0.5000 
    104 N         -6.3764  -19.6087  -53.4387 N.am      19 UNK        -0.5000 
    105 CA        -7.3913  -20.0758  -54.3851 C.3       19 UNK         0.1400 
    106 CB        -8.2553  -21.1498  -53.7049 C.3       19 UNK        -0.1800 
    107 C         -6.7186  -20.5876  -55.6741 C.2       19 UNK         0.5000 
    108 O         -6.7576  -21.7849  -55.9632 O.2       19 UNK        -0.5000 
    109 N         -6.0442  -19.6722  -56.3843 N.am      20 UNK        -0.5000 
    110 CA        -5.1793  -19.8505  -57.5608 C.3       20 UNK         0.1400 
    111 CB        -5.9421  -20.4841  -58.7399 C.3       20 UNK        -0.1800 
    112 C         -3.8643  -20.6052  -57.2700 C.2       20 UNK         0.5000 
    113 O         -2.8205  -20.2265  -57.8033 O.2       20 UNK        -0.5000 
    114 N         -3.9282  -21.6393  -56.4251 N.am      21 UNK        -0.5000 
    115 CA        -2.7913  -22.3765  -55.8844 C.3       21 UNK         0.1400 
    116 CB        -3.3192  -23.6521  -55.2081 C.3       21 UNK        -0.1800 
    117 C         -1.9892  -21.5351  -54.8741 C.2       21 UNK         0.5000 
    118 O         -2.5555  -20.6668  -54.2083 O.2       21 UNK        -0.5000 
    119 N         -0.6987  -21.8588  -54.7521 N.am      22 UNK        -0.5000 
    120 CA         0.2635  -21.2757  -53.8004 C.3       22 UNK         0.1400 
    121 C          1.1332  -22.3755  -53.1182 C.2       22 UNK         0.5000 
    122 N          0.6940  -23.6287  -53.0680 N.am      22 UNK        -0.7600 
    123 O          2.2252  -22.1045  -52.6293 O.2       22 UNK        -0.5000 
    124 C124        1.1079  -20.1441  -54.4512 C.3       23 UNK        -0.0398 
    125 S125        0.1601  -18.5946  -54.6319 S.3       23 UNK        -0.2404 
    126 C126        0.9983  -17.4954  -53.4442 C.3       23 UNK        -0.0205 
    127 H127       -1.8105  -16.4657  -41.5733 H         1 UNK         0.0600 
    128 H128       -1.2783  -17.5517  -42.8605 H         1 UNK         0.0600 
    129 H129       -2.7811  -17.8819  -41.9900 H         1 UNK         0.0600 
    130 H130       -1.8592  -16.9722  -44.9500 H         1 UNK         0.3000 
    131 H131       -4.2727  -15.4350  -45.5447 H         1 UNK         0.0600 
    132 H132       -3.7140  -17.3047  -47.0162 H         1 UNK         0.0800 
    133 H133       -3.6371  -15.8143  -47.9108 H         1 UNK         0.0800 
    134 H134       -2.3475  -18.5728  -49.0342 H         1 UNK         0.0800 
    135 H135       -2.3974  -17.0246  -49.8238 H         1 UNK         0.0800 
    136 H136       -1.1618  -17.1918  -51.8255 H         1 UNK         0.1150 
    137 H137        2.8277  -18.7364  -51.8424 H         1 UNK         0.1150 
    138 H138        0.5000  -18.8925  -48.2505 H         1 UNK         0.1150 
    139 H139        3.9040  -19.1960  -49.7592 H         1 UNK         0.0800 
    140 H140        3.0734  -18.9951  -48.2511 H         1 UNK         0.0800 
    141 H141        2.3527  -20.5685  -46.8431 H         1 UNK         0.0800 
    142 H142        3.5102  -21.8671  -46.8579 H         1 UNK         0.0800 
    143 H143        1.6151  -23.4010  -47.7225 H         1 UNK         0.0600 
    144 H144        1.9453  -22.4825  -45.0026 H         1 UNK         0.3000 
    145 H145       -0.0335  -25.0184  -43.4947 H         1 UNK         0.0600 
    146 H146        2.0972  -25.5254  -42.3316 H         1 UNK         0.0600 
    147 H147        2.1285  -26.1800  -43.9610 H         1 UNK         0.0600 
    148 H148        3.0166  -24.7059  -43.5944 H         1 UNK         0.0600 
    149 H149        1.6752  -22.9636  -42.4480 H         1 UNK         0.3000 
    150 H150       -0.6434  -20.2913  -42.5802 H         1 UNK         0.0600 
    151 H151       -1.4454  -21.6008  -40.5782 H         1 UNK         0.0600 
    152 H152       -0.4592  -20.2169  -40.1473 H         1 UNK         0.0600 
    153 H153        0.2290  -21.8407  -40.0902 H         1 UNK         0.0600 
    154 H154        1.8356  -20.3747  -41.2853 H         1 UNK         0.3000 
    155 H155        4.1104  -20.5911  -43.0769 H         1 UNK         0.0600 
    156 H156        3.2796  -18.0361  -44.5437 H         1 UNK         0.0600 
    157 H157        4.9469  -18.5265  -44.2522 H         1 UNK         0.0600 
    158 H158        3.9167  -19.4996  -45.2878 H         1 UNK         0.0600 
    159 H159        2.9600  -18.0828  -41.9416 H         1 UNK         0.3000 
    160 H160        4.3683  -18.6490  -38.8252 H         1 UNK         0.0600 
    161 H161        5.5817  -16.5458  -40.7025 H         1 UNK         0.0600 
    162 H162        6.4923  -17.7192  -39.7591 H         1 UNK         0.0600 
    163 H163        5.5681  -16.4713  -38.9397 H         1 UNK         0.0600 
    164 H164        3.2348  -16.2980  -40.0404 H         1 UNK         0.3000 
    165 H165       -0.0769  -17.3464  -40.2598 H         1 UNK         0.0600 
    166 H166       -0.6915  -15.5431  -38.6729 H         1 UNK         0.0600 
    167 H167       -0.0821  -16.9362  -37.7951 H         1 UNK         0.0600 
    168 H168        0.9462  -15.5255  -38.0161 H         1 UNK         0.0600 
    169 H169        1.0160  -14.7279  -40.3595 H         1 UNK         0.3000 
    170 H170        0.9956  -13.8171  -42.6657 H         1 UNK         0.0600 
    171 H171        3.9404  -14.7002  -42.3829 H         1 UNK         0.0600 
    172 H172        3.4090  -13.0742  -42.8022 H         1 UNK         0.0600 
    173 H173        3.0610  -13.7225  -41.2127 H         1 UNK         0.0600 
    174 H174        1.9538  -15.8775  -44.3936 H         1 UNK         0.3000 
    175 H175        2.9855  -14.2041  -47.0263 H         1 UNK         0.0600 
    176 H176        2.0829  -16.4504  -47.7781 H         1 UNK         0.0600 
    177 H177        1.1873  -16.5756  -46.2699 H         1 UNK         0.0600 
    178 H178        2.9523  -16.5209  -46.2607 H         1 UNK         0.0600 
    179 H179        0.0459  -13.9907  -47.0007 H         1 UNK         0.3000 
    180 H180        0.0464  -12.1410  -49.8970 H         1 UNK         0.0600 
    181 H181       -0.9078  -15.0382  -50.1526 H         1 UNK         0.0600 
    182 H182        0.1829  -14.2281  -51.2659 H         1 UNK         0.0600 
    183 H183       -1.4784  -13.6767  -51.1155 H         1 UNK         0.0600 
    184 H184       -2.0176  -13.6506  -48.5004 H         1 UNK         0.3000 
    185 H185       -2.3984  -11.4823  -45.8076 H         1 UNK         0.0600 
    186 H186       -4.2399  -11.4257  -48.2599 H         1 UNK         0.0600 
    187 H187       -4.6958  -10.9933  -46.6110 H         1 UNK         0.0600 
    188 H188       -3.5295  -10.0149  -47.4854 H         1 UNK         0.0600 
    189 H189       -4.1575  -13.4555  -46.8466 H         1 UNK         0.3000 
    190 H190        0.0618  -20.9592  -45.6076 H         1 UNK         0.3000 
    191 H191       -1.8418  -19.9958  -47.4272 H         1 UNK         0.0600 
    192 H192       -1.2817  -18.9521  -45.2135 H         1 UNK         0.0600 
    193 H193       -3.0178  -19.1463  -45.4438 H         1 UNK         0.0600 
    194 H194       -2.1496  -20.2486  -44.3929 H         1 UNK         0.0600 
    195 H195       -2.0582  -22.7904  -45.2171 H         1 UNK         0.3000 
    196 H196       -4.7046  -23.5916  -45.8886 H         1 UNK         0.0600 
    197 H197       -4.0297  -25.7396  -44.8055 H         1 UNK         0.0600 
    198 H198       -3.5476  -24.3536  -43.8386 H         1 UNK         0.0600 
    199 H199       -2.3488  -25.2194  -44.7957 H         1 UNK         0.0600 
    200 H200       -1.5065  -24.6266  -47.2114 H         1 UNK         0.3000 
    201 H201       -2.5130  -26.5238  -49.0702 H         1 UNK         0.0600 
    202 H202       -0.1488  -26.4711  -48.3287 H         1 UNK         0.0600 
    203 H203        0.0921  -24.9091  -49.1087 H         1 UNK         0.0600 
    204 H204       -0.2351  -26.3395  -50.0789 H         1 UNK         0.0600 
    205 H205       -1.8131  -23.0429  -49.4041 H         1 UNK         0.3000 
    206 H206       -2.5612  -22.7665  -52.1583 H         1 UNK         0.0600 
    207 H207       -1.0896  -21.1799  -50.8527 H         1 UNK         0.0600 
    208 H208       -2.4500  -20.3397  -51.5778 H         1 UNK         0.0600 
    209 H209       -2.4678  -20.7328  -49.8625 H         1 UNK         0.0600 
    210 H210       -4.4234  -23.1817  -49.3009 H         1 UNK         0.3000 
    211 H211       -6.5003  -22.9298  -48.6124 H         1 UNK         0.0600 
    212 H212       -7.2225  -23.2128  -51.5735 H         1 UNK         0.0600 
    213 H213       -8.3488  -23.3888  -50.2336 H         1 UNK         0.0600 
    214 H214       -7.0196  -24.5223  -50.4172 H         1 UNK         0.0600 
    215 H215       -5.1827  -20.6868  -48.5291 H         1 UNK         0.3000 
    216 H216       -5.1788  -18.4889  -48.3715 H         1 UNK         0.0600 
    217 H217       -7.2754  -17.2736  -47.9413 H         1 UNK         0.0600 
    218 H218       -7.3155  -18.8301  -47.1297 H         1 UNK         0.0600 
    219 H219       -8.2284  -18.5858  -48.6182 H         1 UNK         0.0600 
    220 H220       -4.4802  -19.4081  -50.7925 H         1 UNK         0.3000 
    221 H221       -3.8117  -18.7549  -52.7903 H         1 UNK         0.0600 
    222 H222       -5.0030  -15.9865  -52.2479 H         1 UNK         0.0600 
    223 H223       -3.3987  -16.4995  -51.7446 H         1 UNK         0.0600 
    224 H224       -3.7887  -16.3986  -53.4479 H         1 UNK         0.0600 
    225 H225       -6.0122  -20.3047  -52.7921 H         1 UNK         0.3000 
    226 H226       -8.0470  -19.2457  -54.6560 H         1 UNK         0.0600 
    227 H227       -8.7254  -20.7652  -52.8000 H         1 UNK         0.0600 
    228 H228       -9.0522  -21.4880  -54.3681 H         1 UNK         0.0600 
    229 H229       -7.6622  -22.0219  -53.4327 H         1 UNK         0.0600 
    230 H230       -6.0392  -18.7344  -55.9955 H         1 UNK         0.3000 
    231 H231       -4.8945  -18.8418  -57.8640 H         1 UNK         0.0600 
    232 H232       -6.2286  -21.5160  -58.5364 H         1 UNK         0.0600 
    233 H233       -5.3250  -20.4921  -59.6392 H         1 UNK         0.0600 
    234 H234       -6.8472  -19.9229  -58.9717 H         1 UNK         0.0600 
    235 H235       -4.8422  -21.8724  -56.0506 H         1 UNK         0.3000 
    236 H236       -2.1376  -22.6571  -56.7128 H         1 UNK         0.0600 
    237 H237       -3.8666  -24.2759  -55.9150 H         1 UNK         0.0600 
    238 H238       -2.5032  -24.2549  -54.8081 H         1 UNK         0.0600 
    239 H239       -3.9902  -23.4177  -54.3799 H         1 UNK         0.0600 
    240 H240       -0.3213  -22.5895  -55.3391 H         1 UNK         0.3000 
    241 H241       -0.2870  -20.8314  -52.9716 H         1 UNK         0.0600 
    242 H242       -0.2093  -23.8843  -53.4300 H         1 UNK         0.3800 
    243 H243        1.2714  -24.3273  -52.6277 H         1 UNK         0.3800 
    244 H244        2.0041  -19.9248  -53.8706 H         1 UNK         0.0800 
    245 H245        1.4658  -20.4545  -55.4336 H         1 UNK         0.0800 
    246 H246        2.0542  -17.4191  -53.7080 H         1 UNK         0.0800 
    247 H247        0.5898  -16.4898  -53.5545 H         1 UNK         0.0800 
@<TRIPOS>BOND
     1    1    2 1    
     2    1  127 1    
     3    1  128 1    
     4    1  129 1    
     5    2    3 2    
     6    2    4 am   BACKBONE|DICT|INTERRES
     7    4    5 1    
     8    4  130 1    
     9    5    6 1    
    10    5   65 1    
    11    5  131 1    
    12    6    7 1    
    13    6  132 1    
    14    6  133 1    
    15    7    8 1    
    16    8    9 1    
    17    8  134 1    
    18    8  135 1    
    19    9   10 ar   
    20    9   14 ar   
    21   10   11 ar   
    22   10  136 1    
    23   11   12 ar   
    24   11  126 1    
    25   12   13 ar   
    26   12  137 1    
    27   13   14 ar   
    28   13   15 1    
    29   14  138 1    
    30   15   16 1    
    31   15  139 1    
    32   15  140 1    
    33   16   17 1    
    34   17   18 1    
    35   17  141 1    
    36   17  142 1    
    37   18   19 1    
    38   18   67 1    
    39   18  143 1    
    40   19   20 am   BACKBONE|DICT|INTERRES
    41   19  144 1    
    42   20   21 2    
    43   20   22 1    
    44   22   23 1    
    45   22   24 1    
    46   22  145 1    
    47   23  146 1    
    48   23  147 1    
    49   23  148 1    
    50   24   25 am   BACKBONE|DICT|INTERRES
    51   24  149 1    
    52   25   26 2    
    53   25   27 1    
    54   27   28 1    
    55   27   29 1    
    56   27  150 1    
    57   28  151 1    
    58   28  152 1    
    59   28  153 1    
    60   29   30 am   BACKBONE|DICT|INTERRES
    61   29  154 1    
    62   30   31 2    
    63   30   32 1    
    64   32   33 1    
    65   32   34 1    
    66   32  155 1    
    67   33  156 1    
    68   33  157 1    
    69   33  158 1    
    70   34   35 am   BACKBONE|DICT|INTERRES
    71   34  159 1    
    72   35   36 2    
    73   35   37 1    
    74   37   38 1    
    75   37   39 1    
    76   37  160 1    
    77   38  161 1    
    78   38  162 1    
    79   38  163 1    
    80   39   40 am   BACKBONE|DICT|INTERRES
    81   39  164 1    
    82   40   41 2    
    83   40   42 1    
    84   42   43 1    
    85   42   44 1    
    86   42  165 1    
    87   43  166 1    
    88   43  167 1    
    89   43  168 1    
    90   44   45 am   BACKBONE|DICT|INTERRES
    91   44  169 1    
    92   45   46 2    
    93   45   47 1    
    94   47   48 1    
    95   47   49 1    
    96   47  170 1    
    97   48  171 1    
    98   48  172 1    
    99   48  173 1    
   100   49   50 am   BACKBONE|DICT|INTERRES
   101   49  174 1    
   102   50   51 2    
   103   50   52 1    
   104   52   53 1    
   105   52   54 1    
   106   52  175 1    
   107   53  176 1    
   108   53  177 1    
   109   53  178 1    
   110   54   55 am   BACKBONE|DICT|INTERRES
   111   54  179 1    
   112   55   56 2    
   113   55   57 1    
   114   57   58 1    
   115   57   59 1    
   116   57  180 1    
   117   58  181 1    
   118   58  182 1    
   119   58  183 1    
   120   59   60 am   BACKBONE|DICT|INTERRES
   121   59  184 1    
   122   60   61 2    
   123   60   62 1    
   124   62   63 1    
   125   62   64 1    
   126   62  185 1    
   127   63  186 1    
   128   63  187 1    
   129   63  188 1    
   130   64   65 am   BACKBONE|DICT|INTERRES
   131   64  189 1    
   132   65   66 2    
   133   67   68 2    
   134   67   69 am   BACKBONE|DICT|INTERRES
   135   69   70 1    
   136   69  190 1    
   137   70   71 1    
   138   70   72 1    
   139   70  191 1    
   140   71  192 1    
   141   71  193 1    
   142   71  194 1    
   143   72   73 2    
   144   72   74 am   BACKBONE|DICT|INTERRES
   145   74   75 1    
   146   74  195 1    
   147   75   76 1    
   148   75   77 1    
   149   75  196 1    
   150   76  197 1    
   151   76  198 1    
   152   76  199 1    
   153   77   78 2    
   154   77   79 am   BACKBONE|DICT|INTERRES
   155   79   80 1    
   156   79  200 1    
   157   80   81 1    
   158   80   82 1    
   159   80  201 1    
   160   81  202 1    
   161   81  203 1    
   162   81  204 1    
   163   82   83 2    
   164   82   84 am   BACKBONE|DICT|INTERRES
   165   84   85 1    
   166   84  205 1    
   167   85   86 1    
   168   85   87 1    
   169   85  206 1    
   170   86  207 1    
   171   86  208 1    
   172   86  209 1    
   173   87   88 2    
   174   87   89 am   BACKBONE|DICT|INTERRES
   175   89   90 1    
   176   89  210 1    
   177   90   91 1    
   178   90   92 1    
   179   90  211 1    
   180   91  212 1    
   181   91  213 1    
   182   91  214 1    
   183   92   93 2    
   184   92   94 am   BACKBONE|DICT|INTERRES
   185   94   95 1    
   186   94  215 1    
   187   95   96 1    
   188   95   97 1    
   189   95  216 1    
   190   96  217 1    
   191   96  218 1    
   192   96  219 1    
   193   97   98 2    
   194   97   99 am   BACKBONE|DICT|INTERRES
   195   99  100 1    
   196   99  220 1    
   197  100  101 1    
   198  100  102 1    
   199  100  221 1    
   200  101  222 1    
   201  101  223 1    
   202  101  224 1    
   203  102  103 2    
   204  102  104 am   BACKBONE|DICT|INTERRES
   205  104  105 1    
   206  104  225 1    
   207  105  106 1    
   208  105  107 1    
   209  105  226 1    
   210  106  227 1    
   211  106  228 1    
   212  106  229 1    
   213  107  108 2    
   214  107  109 am   BACKBONE|DICT|INTERRES
   215  109  110 1    
   216  109  230 1    
   217  110  111 1    
   218  110  112 1    
   219  110  231 1    
   220  111  232 1    
   221  111  233 1    
   222  111  234 1    
   223  112  113 2    
   224  112  114 am   BACKBONE|DICT|INTERRES
   225  114  115 1    
   226  114  235 1    
   227  115  116 1    
   228  115  117 1    
   229  115  236 1    
   230  116  237 1    
   231  116  238 1    
   232  116  239 1    
   233  117  118 2    
   234  117  119 am   BACKBONE|DICT|INTERRES
   235  119  120 1    
   236  119  240 1    
   237  120  121 1    
   238  120  124 1    
   239  120  241 1    
   240  121  122 am   BACKBONE|DICT|INTERRES
   241  121  123 2    
   242  122  242 1    
   243  122  243 1    
   244  124  125 1    
   245  124  244 1    
   246  124  245 1    
   247  125  126 1    
   248  126  246 1    
   249  126  247 1    
@<TRIPOS>SUBSTRUCTURE
     1 UNK         1 GROUP             0       ****    0 ROOT    
