@<TRIPOS>MOLECULE
3R540
247   249    1
SMALL
USER_CHARGES


@<TRIPOS>ATOM
      1 CA         -5.2942  -16.5284  -44.2412 C.3       0 UNK        -0.1800 
      2 C          -5.1938  -15.0125  -44.3590 C.2       0 UNK         0.5000 
      3 O          -5.8775  -14.2941  -43.6297 O.2       0 UNK        -0.5000 
      4 N          -4.3523  -14.5362  -45.2835 N.am      1 UNK        -0.5000 
      5 CA         -4.0138  -13.1301  -45.5028 C.3       1 UNK         0.1400 
      6 C6         -3.8079  -12.8248  -47.0141 C.3       23 UNK        -0.0398 
      7 S7         -2.5196  -13.8121  -47.8648 S.3       23 UNK        -0.2404 
      8 C8         -3.4903  -15.1779  -48.5731 C.3       23 UNK        -0.0205 
      9 C9         -2.6777  -15.9505  -49.5994 C.ar      23 UNK        -0.0193 
     10 C10        -2.8877  -15.7288  -50.9636 C.ar      23 UNK        -0.1150 
     11 C11        -2.1552  -16.4362  -51.9203 C.ar      23 UNK        -0.0193 
     12 C12        -1.2080  -17.3739  -51.4996 C.ar      23 UNK        -0.1150 
     13 C13        -0.9697  -17.5892  -50.1392 C.ar      23 UNK        -0.0193 
     14 C14        -1.7146  -16.8802  -49.1919 C.ar      23 UNK        -0.1150 
     15 C15         0.1190  -18.5593  -49.7055 C.3       23 UNK        -0.0205 
     16 S16        -0.5531  -20.2005  -49.3000 S.3       23 UNK        -0.2404 
     17 C17        -0.7755  -20.0736  -47.4946 C.3       23 UNK        -0.0398 
     18 CA         -0.8055  -21.4721  -46.8221 C.3       11 UNK         0.1400 
     19 N          -0.0826  -21.5127  -45.5501 N.am      11 UNK        -0.5000 
     20 C           0.2902  -22.6409  -44.9262 C.2       10 UNK         0.5000 
     21 O           0.1656  -23.7650  -45.4107 O.2       10 UNK        -0.5000 
     22 CA          0.8574  -22.4930  -43.5028 C.3       10 UNK         0.1400 
     23 CB          2.3930  -22.4792  -43.5149 C.3       10 UNK        -0.1800 
     24 N           0.3502  -21.2929  -42.8349 N.am      10 UNK        -0.5000 
     25 C          -0.8989  -21.1886  -42.3571 C.2       9 UNK         0.5000 
     26 O          -1.7241  -22.1016  -42.4019 O.2       9 UNK        -0.5000 
     27 CA         -1.3162  -19.8228  -41.7866 C.3       9 UNK         0.1400 
     28 CB         -0.9129  -19.7111  -40.3099 C.3       9 UNK        -0.1800 
     29 N          -0.7685  -18.6970  -42.5481 N.am      9 UNK        -0.5000 
     30 C          -1.1236  -18.4112  -43.8098 C.2       8 UNK         0.5000 
     31 O          -1.9102  -19.1079  -44.4508 O.2       8 UNK        -0.5000 
     32 CA         -0.4949  -17.1943  -44.5183 C.3       8 UNK         0.1400 
     33 CB         -1.5755  -16.3201  -45.1754 C.3       8 UNK        -0.1800 
     34 N           0.4118  -16.3862  -43.7011 N.am      8 UNK        -0.5000 
     35 C           0.1430  -15.6449  -42.6174 C.2       7 UNK         0.5000 
     36 O          -0.9853  -15.4628  -42.1614 O.2       7 UNK        -0.5000 
     37 CA          1.3847  -15.0623  -41.9073 C.3       7 UNK         0.1400 
     38 CB          1.0820  -14.5289  -40.4915 C.3       7 UNK        -0.1800 
     39 N           2.4998  -16.0238  -41.8881 N.am      7 UNK        -0.5000 
     40 C           2.4836  -17.2435  -41.3272 C.2       6 UNK         0.5000 
     41 O           1.5281  -17.6825  -40.6879 O.2       6 UNK        -0.5000 
     42 CA          3.7185  -18.1329  -41.5760 C.3       6 UNK         0.1400 
     43 CB          3.5800  -19.5365  -40.9480 C.3       6 UNK        -0.1800 
     44 N           4.0585  -18.2457  -42.9987 N.am      6 UNK        -0.5000 
     45 C           3.2960  -18.7206  -43.9934 C.2       5 UNK         0.5000 
     46 O           2.1314  -19.0986  -43.8457 O.2       5 UNK        -0.5000 
     47 CA          3.9537  -18.7645  -45.3921 C.3       5 UNK         0.1400 
     48 CB          3.0475  -19.4195  -46.4494 C.3       5 UNK        -0.1800 
     49 N           4.3154  -17.4326  -45.8753 N.am      5 UNK        -0.5000 
     50 C           5.3090  -16.6552  -45.4255 C.2       4 UNK         0.5000 
     51 O           6.1232  -17.0173  -44.5746 O.2       4 UNK        -0.5000 
     52 CA          5.3891  -15.2220  -45.9945 C.3       4 UNK         0.1400 
     53 CB          6.5183  -15.1210  -47.0313 C.3       4 UNK        -0.1800 
     54 N           4.1436  -14.7294  -46.5994 N.am      4 UNK        -0.5000 
     55 C           2.9766  -14.5783  -45.9587 C.2       3 UNK         0.5000 
     56 O           2.8010  -14.8969  -44.7809 O.2       3 UNK        -0.5000 
     57 CA          1.7999  -14.0510  -46.8018 C.3       3 UNK         0.1400 
     58 CB          1.2301  -15.1783  -47.6802 C.3       3 UNK        -0.1800 
     59 N           0.7197  -13.5069  -45.9766 N.am      3 UNK        -0.5000 
     60 C           0.7919  -12.3812  -45.2528 C.2       2 UNK         0.5000 
     61 O           1.7785  -11.6432  -45.2432 O.2       2 UNK        -0.5000 
     62 CA         -0.4580  -12.0131  -44.4290 C.3       2 UNK         0.1400 
     63 CB         -0.5156  -10.5189  -44.0540 C.3       2 UNK        -0.1800 
     64 N          -1.6771  -12.3991  -45.1415 N.am      2 UNK        -0.5000 
     65 C          -2.8438  -12.7238  -44.5714 C.2       1 UNK         0.5000 
     66 O          -3.0217  -12.7064  -43.3526 O.2       1 UNK        -0.5000 
     67 C          -2.2460  -21.9765  -46.6292 C.2       11 UNK         0.5000 
     68 O          -2.6697  -22.8869  -47.3370 O.2       11 UNK        -0.5000 
     69 N          -2.9571  -21.4134  -45.6415 N.am      12 UNK        -0.5000 
     70 CA         -4.3296  -21.7673  -45.2731 C.3       12 UNK         0.1400 
     71 CB         -4.8090  -20.8418  -44.1454 C.3       12 UNK        -0.1800 
     72 C          -4.4898  -23.2464  -44.8776 C.2       12 UNK         0.5000 
     73 O          -5.4578  -23.8826  -45.2952 O.2       12 UNK        -0.5000 
     74 N          -3.5017  -23.7883  -44.1510 N.am      13 UNK        -0.5000 
     75 CA         -3.3976  -25.2088  -43.8008 C.3       13 UNK         0.1400 
     76 CB         -2.2239  -25.3991  -42.8285 C.3       13 UNK        -0.1800 
     77 C          -3.2415  -26.1465  -45.0182 C.2       13 UNK         0.5000 
     78 O          -3.5963  -27.3217  -44.9230 O.2       13 UNK        -0.5000 
     79 N          -2.7375  -25.6109  -46.1368 N.am      14 UNK        -0.5000 
     80 CA         -2.5757  -26.2899  -47.4218 C.3       14 UNK         0.1400 
     81 CB         -1.1519  -26.0147  -47.9331 C.3       14 UNK        -0.1800 
     82 C          -3.6538  -25.8593  -48.4429 C.2       14 UNK         0.5000 
     83 O          -3.4979  -26.1250  -49.6349 O.2       14 UNK        -0.5000 
     84 N          -4.7298  -25.2173  -47.9612 N.am      15 UNK        -0.5000 
     85 CA         -5.8991  -24.7384  -48.7048 C.3       15 UNK         0.1400 
     86 CB         -6.6789  -25.9072  -49.3439 C.3       15 UNK        -0.1800 
     87 C          -5.6073  -23.5727  -49.6757 C.2       15 UNK         0.5000 
     88 O          -6.2723  -23.4526  -50.7065 O.2       15 UNK        -0.5000 
     89 N          -4.6562  -22.7068  -49.2936 N.am      16 UNK        -0.5000 
     90 CA         -4.3278  -21.3923  -49.8561 C.3       16 UNK         0.1400 
     91 CB         -5.3860  -20.3548  -49.4267 C.3       16 UNK        -0.1800 
     92 C          -4.0767  -21.4188  -51.3736 C.2       16 UNK         0.5000 
     93 O          -2.9720  -21.7597  -51.7943 O.2       16 UNK        -0.5000 
     94 N          -5.1119  -21.1036  -52.1654 N.am      17 UNK        -0.5000 
     95 CA         -5.1070  -21.1049  -53.6300 C.3       17 UNK         0.1400 
     96 CB         -6.4856  -20.6558  -54.1357 C.3       17 UNK        -0.1800 
     97 C          -4.7132  -22.4548  -54.2633 C.2       17 UNK         0.5000 
     98 O          -4.1943  -22.4691  -55.3794 O.2       17 UNK        -0.5000 
     99 N          -4.9439  -23.5583  -53.5381 N.am      18 UNK        -0.5000 
    100 CA        -4.5089  -24.9014  -53.9194 C.3       18 UNK         0.1400 
    101 CB        -5.2577  -25.9276  -53.0589 C.3       18 UNK        -0.1800 
    102 C         -2.9855  -25.1069  -53.7866 C.2       18 UNK         0.5000 
    103 O         -2.4297  -25.9390  -54.5048 O.2       18 UNK        -0.5000 
    104 N         -2.3405  -24.3631  -52.8776 N.am      19 UNK        -0.5000 
    105 CA        -0.9013  -24.4144  -52.6294 C.3       19 UNK         0.1400 
    106 CB        -0.6314  -24.1449  -51.1412 C.3       19 UNK        -0.1800 
    107 C         -0.1529  -23.4028  -53.5097 C.2       19 UNK         0.5000 
    108 O          0.8675  -23.7533  -54.1041 O.2       19 UNK        -0.5000 
    109 N         -0.6788  -22.1760  -53.5907 N.am      20 UNK        -0.5000 
    110 CA        -0.1441  -21.0850  -54.3938 C.3       20 UNK         0.1400 
    111 CB         0.8900  -20.2918  -53.5762 C.3       20 UNK        -0.1800 
    112 C         -1.3198  -20.2086  -54.8334 C.2       20 UNK         0.5000 
    113 O         -1.9620  -19.5916  -53.9861 O.2       20 UNK        -0.5000 
    114 N         -1.6021  -20.1901  -56.1410 N.am      21 UNK        -0.5000 
    115 CA        -2.7545  -19.4977  -56.7245 C.3       21 UNK         0.1400 
    116 CB        -3.0419  -20.1012  -58.1081 C.3       21 UNK        -0.1800 
    117 C         -2.5871  -17.9690  -56.8290 C.2       21 UNK         0.5000 
    118 O         -3.5906  -17.2699  -56.9713 O.2       21 UNK        -0.5000 
    119 N         -1.3379  -17.4830  -56.7834 N.am      22 UNK        -0.5000 
    120 CA        -0.9431  -16.0711  -56.9676 C.3       22 UNK         0.1400 
    121 C         -1.1697  -15.5194  -58.4117 C.2       22 UNK         0.5000 
    122 N         -1.3504  -16.3611  -59.4227 N.am      22 UNK        -0.7600 
    123 O         -1.1482  -14.3115  -58.6340 O.2       22 UNK        -0.5000 
    124 C124       -1.5065  -15.1183  -55.8722 C.3       23 UNK        -0.0398 
    125 S125       -0.8895  -15.5082  -54.2003 S.3       23 UNK        -0.2404 
    126 C126       -2.3813  -16.1835  -53.4046 C.3       23 UNK        -0.0205 
    127 H127       -4.7171  -17.0373  -45.0139 H         1 UNK         0.0600 
    128 H128       -6.3330  -16.8460  -44.3313 H         1 UNK         0.0600 
    129 H129       -4.9194  -16.8541  -43.2708 H         1 UNK         0.0600 
    130 H130       -3.8147  -15.1880  -45.8330 H         1 UNK         0.3000 
    131 H131       -4.8612  -12.5188  -45.1850 H         1 UNK         0.0600 
    132 H132       -3.5723  -11.7681  -47.1516 H         1 UNK         0.0800 
    133 H133       -4.7550  -12.9666  -47.5362 H         1 UNK         0.0800 
    134 H134       -4.3964  -14.7828  -49.0350 H         1 UNK         0.0800 
    135 H135       -3.8168  -15.8541  -47.7828 H         1 UNK         0.0800 
    136 H136       -3.6218  -15.0013  -51.2804 H         1 UNK         0.1150 
    137 H137       -0.6409  -17.9189  -52.2404 H         1 UNK         0.1150 
    138 H138       -1.5341  -17.0408  -48.1396 H         1 UNK         0.1150 
    139 H139        0.6748  -18.1470  -48.8627 H         1 UNK         0.0800 
    140 H140        0.8483  -18.6770  -50.5081 H         1 UNK         0.0800 
    141 H141       -1.6684  -19.4822  -47.2816 H         1 UNK         0.0800 
    142 H142        0.0554  -19.4940  -47.0984 H         1 UNK         0.0800 
    143 H143       -0.3021  -22.1849  -47.4799 H         1 UNK         0.0600 
    144 H144        0.0293  -20.6401  -45.0555 H         1 UNK         0.3000 
    145 H145        0.5395  -23.3659  -42.9286 H         1 UNK         0.0600 
    146 H146        2.7890  -21.6626  -44.1154 H         1 UNK         0.0600 
    147 H147        2.7842  -23.4075  -43.9327 H         1 UNK         0.0600 
    148 H148        2.7958  -22.3820  -42.5067 H         1 UNK         0.0600 
    149 H149        0.9515  -20.4751  -42.8384 H         1 UNK         0.3000 
    150 H150       -2.4049  -19.7584  -41.8412 H         1 UNK         0.0600 
    151 H151        0.1590  -19.8560  -40.1724 H         1 UNK         0.0600 
    152 H152       -1.4217  -20.4676  -39.7114 H         1 UNK         0.0600 
    153 H153       -1.1771  -18.7367  -39.8985 H         1 UNK         0.0600 
    154 H154       -0.0793  -18.1203  -42.0799 H         1 UNK         0.3000 
    155 H155        0.1215  -17.6105  -45.3155 H         1 UNK         0.0600 
    156 H156       -2.2222  -15.8762  -44.4211 H         1 UNK         0.0600 
    157 H157       -2.2060  -16.9039  -45.8464 H         1 UNK         0.0600 
    158 H158       -1.1379  -15.5168  -45.7619 H         1 UNK         0.0600 
    159 H159        1.3878  -16.4400  -43.9647 H         1 UNK         0.3000 
    160 H160        1.7119  -14.2127  -42.5074 H         1 UNK         0.0600 
    161 H161        0.6798  -15.3049  -39.8397 H         1 UNK         0.0600 
    162 H162        0.3478  -13.7234  -40.5289 H         1 UNK         0.0600 
    163 H163        1.9797  -14.1276  -40.0216 H         1 UNK         0.0600 
    164 H164        3.3002  -15.7642  -42.4491 H         1 UNK         0.3000 
    165 H165        4.5601  -17.6355  -41.0921 H         1 UNK         0.0600 
    166 H166        3.4373  -19.4684  -39.8690 H         1 UNK         0.0600 
    167 H167        2.7282  -20.0820  -41.3546 H         1 UNK         0.0600 
    168 H168        4.4739  -20.1359  -41.1198 H         1 UNK         0.0600 
    169 H169        4.9792  -17.9045  -43.2605 H         1 UNK         0.3000 
    170 H170        4.8608  -19.3658  -45.3055 H         1 UNK         0.0600 
    171 H171        3.5686  -19.5300  -47.4004 H         1 UNK         0.0600 
    172 H172        2.7248  -20.4145  -46.1426 H         1 UNK         0.0600 
    173 H173        2.1561  -18.8196  -46.6272 H         1 UNK         0.0600 
    174 H174        3.6993  -17.0315  -46.5653 H         1 UNK         0.3000 
    175 H175        5.6316  -14.5613  -45.1597 H         1 UNK         0.0600 
    176 H176        7.4691  -15.4490  -46.6089 H         1 UNK         0.0600 
    177 H177        6.3169  -15.7403  -47.9063 H         1 UNK         0.0600 
    178 H178        6.6536  -14.0935  -47.3697 H         1 UNK         0.0600 
    179 H179        4.2006  -14.4642  -47.5723 H         1 UNK         0.3000 
    180 H180        2.1690  -13.2527  -47.4490 H         1 UNK         0.0600 
    181 H181        0.8764  -16.0189  -47.0837 H         1 UNK         0.0600 
    182 H182        1.9838  -15.5624  -48.3685 H         1 UNK         0.0600 
    183 H183        0.3973  -14.8236  -48.2877 H         1 UNK         0.0600 
    184 H184       -0.1117  -14.0713  -45.9024 H         1 UNK         0.3000 
    185 H185       -0.3902  -12.5941  -43.5069 H         1 UNK         0.0600 
    186 H186        0.3663  -10.2202  -43.4860 H         1 UNK         0.0600 
    187 H187       -0.5680   -9.8870  -44.9412 H         1 UNK         0.0600 
    188 H188       -1.3846  -10.2983  -43.4340 H         1 UNK         0.0600 
    189 H189       -1.6027  -12.4444  -46.1507 H         1 UNK         0.3000 
    190 H190       -2.5401  -20.6457  -45.1171 H         1 UNK         0.3000 
    191 H191       -4.9581  -21.5915  -46.1484 H         1 UNK         0.0600 
    192 H192       -4.7689  -19.7958  -44.4501 H         1 UNK         0.0600 
    193 H193       -5.8411  -21.0619  -43.8701 H         1 UNK         0.0600 
    194 H194       -4.1980  -20.9514  -43.2490 H         1 UNK         0.0600 
    195 H195       -2.7685  -23.1812  -43.7988 H         1 UNK         0.3000 
    196 H196       -4.3180  -25.4922  -43.2864 H         1 UNK         0.0600 
    197 H197       -1.2767  -25.1080  -43.2837 H         1 UNK         0.0600 
    198 H198       -2.1342  -26.4417  -42.5208 H         1 UNK         0.0600 
    199 H199       -2.3589  -24.8049  -41.9246 H         1 UNK         0.0600 
    200 H200       -2.4980  -24.6263  -46.1405 H         1 UNK         0.3000 
    201 H201       -2.6805  -27.3686  -47.2921 H         1 UNK         0.0600 
    202 H202       -0.9921  -24.9526  -48.1217 H         1 UNK         0.0600 
    203 H203       -0.4057  -26.3361  -47.2063 H         1 UNK         0.0600 
    204 H204       -0.9528  -26.5551  -48.8589 H         1 UNK         0.0600 
    205 H205       -4.7506  -25.0188  -46.9678 H         1 UNK         0.3000 
    206 H206       -6.5569  -24.3063  -47.9494 H         1 UNK         0.0600 
    207 H207       -6.9656  -26.6414  -48.5912 H         1 UNK         0.0600 
    208 H208       -7.5974  -25.5579  -49.8167 H         1 UNK         0.0600 
    209 H209       -6.0969  -26.4247  -50.1044 H         1 UNK         0.0600 
    210 H210       -4.0861  -22.9623  -48.4899 H         1 UNK         0.3000 
    211 H211       -3.3831  -21.0932  -49.4027 H         1 UNK         0.0600 
    212 H212       -5.4001  -20.2436  -48.3425 H         1 UNK         0.0600 
    213 H213       -5.1649  -19.3719  -49.8458 H         1 UNK         0.0600 
    214 H214       -6.3919  -20.6349  -49.7411 H         1 UNK         0.0600 
    215 H215       -5.9949  -20.8951  -51.7230 H         1 UNK         0.3000 
    216 H216       -4.3760  -20.3646  -53.9499 H         1 UNK         0.0600 
    217 H217       -7.2728  -21.3395  -53.8151 H         1 UNK         0.0600 
    218 H218       -6.5078  -20.6162  -55.2257 H         1 UNK         0.0600 
    219 H219       -6.7349  -19.6591  -53.7712 H         1 UNK         0.0600 
    220 H220       -5.3866  -23.4594  -52.6302 H         1 UNK         0.3000 
    221 H221       -4.7801  -25.0676  -54.9641 H         1 UNK         0.0600 
    222 H222       -4.9847  -25.8290  -52.0087 H         1 UNK         0.0600 
    223 H223       -6.3380  -25.8061  -53.1405 H         1 UNK         0.0600 
    224 H224       -5.0174  -26.9462  -53.3658 H         1 UNK         0.0600 
    225 H225       -2.8506  -23.6447  -52.3755 H         1 UNK         0.3000 
    226 H226       -0.5259  -25.4136  -52.8601 H         1 UNK         0.0600 
    227 H227       -1.1932  -24.8390  -50.5197 H         1 UNK         0.0600 
    228 H228        0.4257  -24.2721  -50.9058 H         1 UNK         0.0600 
    229 H229       -0.9136  -23.1340  -50.8453 H         1 UNK         0.0600 
    230 H230       -1.5187  -21.9562  -53.0582 H         1 UNK         0.3000 
    231 H231        0.3457  -21.4842  -55.2846 H         1 UNK         0.0600 
    232 H232        0.4756  -19.9625  -52.6232 H         1 UNK         0.0600 
    233 H233        1.2251  -19.4062  -54.1174 H         1 UNK         0.0600 
    234 H234        1.7703  -20.8980  -53.3622 H         1 UNK         0.0600 
    235 H235       -1.0384  -20.7373  -56.7755 H         1 UNK         0.3000 
    236 H236       -3.6262  -19.6823  -56.0943 H         1 UNK         0.0600 
    237 H237       -2.1978  -19.9761  -58.7872 H         1 UNK         0.0600 
    238 H238       -3.2592  -21.1671  -58.0329 H         1 UNK         0.0600 
    239 H239       -3.9093  -19.6279  -58.5703 H         1 UNK         0.0600 
    240 H240       -0.5801  -18.1381  -56.6614 H         1 UNK         0.3000 
    241 H241        0.1419  -16.0656  -56.8587 H         1 UNK         0.0600 
    242 H242       -1.4839  -15.9960  -60.3529 H         1 UNK         0.3800 
    243 H243       -1.3528  -17.3563  -59.2701 H         1 UNK         0.3800 
    244 H244       -2.5966  -15.1085  -55.8828 H         1 UNK         0.0800 
    245 H245       -1.2032  -14.0891  -56.0698 H         1 UNK         0.0800 
    246 H246       -2.6690  -17.1137  -53.8929 H         1 UNK         0.0800 
    247 H247       -3.2098  -15.4890  -53.5507 H         1 UNK         0.0800 
@<TRIPOS>BOND
     1    1    2 1    
     2    1  127 1    
     3    1  128 1    
     4    1  129 1    
     5    2    3 2    
     6    2    4 am   BACKBONE|DICT|INTERRES
     7    4    5 1    
     8    4  130 1    
     9    5    6 1    
    10    5   65 1    
    11    5  131 1    
    12    6    7 1    
    13    6  132 1    
    14    6  133 1    
    15    7    8 1    
    16    8    9 1    
    17    8  134 1    
    18    8  135 1    
    19    9   10 ar   
    20    9   14 ar   
    21   10   11 ar   
    22   10  136 1    
    23   11   12 ar   
    24   11  126 1    
    25   12   13 ar   
    26   12  137 1    
    27   13   14 ar   
    28   13   15 1    
    29   14  138 1    
    30   15   16 1    
    31   15  139 1    
    32   15  140 1    
    33   16   17 1    
    34   17   18 1    
    35   17  141 1    
    36   17  142 1    
    37   18   19 1    
    38   18   67 1    
    39   18  143 1    
    40   19   20 am   BACKBONE|DICT|INTERRES
    41   19  144 1    
    42   20   21 2    
    43   20   22 1    
    44   22   23 1    
    45   22   24 1    
    46   22  145 1    
    47   23  146 1    
    48   23  147 1    
    49   23  148 1    
    50   24   25 am   BACKBONE|DICT|INTERRES
    51   24  149 1    
    52   25   26 2    
    53   25   27 1    
    54   27   28 1    
    55   27   29 1    
    56   27  150 1    
    57   28  151 1    
    58   28  152 1    
    59   28  153 1    
    60   29   30 am   BACKBONE|DICT|INTERRES
    61   29  154 1    
    62   30   31 2    
    63   30   32 1    
    64   32   33 1    
    65   32   34 1    
    66   32  155 1    
    67   33  156 1    
    68   33  157 1    
    69   33  158 1    
    70   34   35 am   BACKBONE|DICT|INTERRES
    71   34  159 1    
    72   35   36 2    
    73   35   37 1    
    74   37   38 1    
    75   37   39 1    
    76   37  160 1    
    77   38  161 1    
    78   38  162 1    
    79   38  163 1    
    80   39   40 am   BACKBONE|DICT|INTERRES
    81   39  164 1    
    82   40   41 2    
    83   40   42 1    
    84   42   43 1    
    85   42   44 1    
    86   42  165 1    
    87   43  166 1    
    88   43  167 1    
    89   43  168 1    
    90   44   45 am   BACKBONE|DICT|INTERRES
    91   44  169 1    
    92   45   46 2    
    93   45   47 1    
    94   47   48 1    
    95   47   49 1    
    96   47  170 1    
    97   48  171 1    
    98   48  172 1    
    99   48  173 1    
   100   49   50 am   BACKBONE|DICT|INTERRES
   101   49  174 1    
   102   50   51 2    
   103   50   52 1    
   104   52   53 1    
   105   52   54 1    
   106   52  175 1    
   107   53  176 1    
   108   53  177 1    
   109   53  178 1    
   110   54   55 am   BACKBONE|DICT|INTERRES
   111   54  179 1    
   112   55   56 2    
   113   55   57 1    
   114   57   58 1    
   115   57   59 1    
   116   57  180 1    
   117   58  181 1    
   118   58  182 1    
   119   58  183 1    
   120   59   60 am   BACKBONE|DICT|INTERRES
   121   59  184 1    
   122   60   61 2    
   123   60   62 1    
   124   62   63 1    
   125   62   64 1    
   126   62  185 1    
   127   63  186 1    
   128   63  187 1    
   129   63  188 1    
   130   64   65 am   BACKBONE|DICT|INTERRES
   131   64  189 1    
   132   65   66 2    
   133   67   68 2    
   134   67   69 am   BACKBONE|DICT|INTERRES
   135   69   70 1    
   136   69  190 1    
   137   70   71 1    
   138   70   72 1    
   139   70  191 1    
   140   71  192 1    
   141   71  193 1    
   142   71  194 1    
   143   72   73 2    
   144   72   74 am   BACKBONE|DICT|INTERRES
   145   74   75 1    
   146   74  195 1    
   147   75   76 1    
   148   75   77 1    
   149   75  196 1    
   150   76  197 1    
   151   76  198 1    
   152   76  199 1    
   153   77   78 2    
   154   77   79 am   BACKBONE|DICT|INTERRES
   155   79   80 1    
   156   79  200 1    
   157   80   81 1    
   158   80   82 1    
   159   80  201 1    
   160   81  202 1    
   161   81  203 1    
   162   81  204 1    
   163   82   83 2    
   164   82   84 am   BACKBONE|DICT|INTERRES
   165   84   85 1    
   166   84  205 1    
   167   85   86 1    
   168   85   87 1    
   169   85  206 1    
   170   86  207 1    
   171   86  208 1    
   172   86  209 1    
   173   87   88 2    
   174   87   89 am   BACKBONE|DICT|INTERRES
   175   89   90 1    
   176   89  210 1    
   177   90   91 1    
   178   90   92 1    
   179   90  211 1    
   180   91  212 1    
   181   91  213 1    
   182   91  214 1    
   183   92   93 2    
   184   92   94 am   BACKBONE|DICT|INTERRES
   185   94   95 1    
   186   94  215 1    
   187   95   96 1    
   188   95   97 1    
   189   95  216 1    
   190   96  217 1    
   191   96  218 1    
   192   96  219 1    
   193   97   98 2    
   194   97   99 am   BACKBONE|DICT|INTERRES
   195   99  100 1    
   196   99  220 1    
   197  100  101 1    
   198  100  102 1    
   199  100  221 1    
   200  101  222 1    
   201  101  223 1    
   202  101  224 1    
   203  102  103 2    
   204  102  104 am   BACKBONE|DICT|INTERRES
   205  104  105 1    
   206  104  225 1    
   207  105  106 1    
   208  105  107 1    
   209  105  226 1    
   210  106  227 1    
   211  106  228 1    
   212  106  229 1    
   213  107  108 2    
   214  107  109 am   BACKBONE|DICT|INTERRES
   215  109  110 1    
   216  109  230 1    
   217  110  111 1    
   218  110  112 1    
   219  110  231 1    
   220  111  232 1    
   221  111  233 1    
   222  111  234 1    
   223  112  113 2    
   224  112  114 am   BACKBONE|DICT|INTERRES
   225  114  115 1    
   226  114  235 1    
   227  115  116 1    
   228  115  117 1    
   229  115  236 1    
   230  116  237 1    
   231  116  238 1    
   232  116  239 1    
   233  117  118 2    
   234  117  119 am   BACKBONE|DICT|INTERRES
   235  119  120 1    
   236  119  240 1    
   237  120  121 1    
   238  120  124 1    
   239  120  241 1    
   240  121  122 am   BACKBONE|DICT|INTERRES
   241  121  123 2    
   242  122  242 1    
   243  122  243 1    
   244  124  125 1    
   245  124  244 1    
   246  124  245 1    
   247  125  126 1    
   248  126  246 1    
   249  126  247 1    
@<TRIPOS>SUBSTRUCTURE
     1 UNK         1 GROUP             0       ****    0 ROOT    
