@<TRIPOS>MOLECULE
3R540
247   249    1
SMALL
USER_CHARGES


@<TRIPOS>ATOM
      1 CA          1.9235  -19.8284  -49.9837 C.3       0 UNK        -0.1800 
      2 C           1.6894  -18.4531  -49.3812 C.2       0 UNK         0.5000 
      3 O           1.5816  -18.3286  -48.1633 O.2       0 UNK        -0.5000 
      4 N           1.6336  -17.4060  -50.2144 N.am      1 UNK        -0.5000 
      5 CA          1.3674  -16.0277  -49.7802 C.3       1 UNK         0.1400 
      6 C6          0.9106  -15.1289  -50.9568 C.3       23 UNK        -0.0398 
      7 S7         -0.2535  -13.8206  -50.4322 S.3       23 UNK        -0.2404 
      8 C8         -1.7437  -14.1714  -51.4375 C.3       23 UNK        -0.0205 
      9 C9         -2.7269  -15.2114  -50.8883 C.ar      23 UNK        -0.0193 
     10 C10        -3.9245  -15.4113  -51.5844 C.ar      23 UNK        -0.1150 
     11 C11        -4.8792  -16.3281  -51.1325 C.ar      23 UNK        -0.0193 
     12 C12        -4.6212  -17.0650  -49.9745 C.ar      23 UNK        -0.1150 
     13 C13        -3.4361  -16.8805  -49.2605 C.ar      23 UNK        -0.0193 
     14 C14        -2.4999  -15.9480  -49.7172 C.ar      23 UNK        -0.1150 
     15 C15        -3.1944  -17.6424  -47.9648 C.3       23 UNK        -0.0205 
     16 S16        -1.8849  -18.8959  -48.1339 S.3       23 UNK        -0.2404 
     17 C17        -1.6830  -19.3743  -46.3828 C.3       23 UNK        -0.0398 
     18 CA         -0.8159  -20.6405  -46.1772 C.3       11 UNK         0.1400 
     19 N          -0.2792  -20.7253  -44.8086 N.am      11 UNK        -0.5000 
     20 C           0.6233  -21.6308  -44.3968 C.2       10 UNK         0.5000 
     21 O           1.1778  -22.4232  -45.1532 O.2       10 UNK        -0.5000 
     22 CA          0.8914  -21.7410  -42.8841 C.3       10 UNK         0.1400 
     23 CB          1.9988  -20.7886  -42.4142 C.3       10 UNK        -0.1800 
     24 N          -0.3262  -21.5045  -42.1139 N.am      10 UNK        -0.5000 
     25 C          -1.3036  -22.4117  -41.9784 C.2       9 UNK         0.5000 
     26 O          -1.2335  -23.5530  -42.4342 O.2       9 UNK        -0.5000 
     27 CA         -2.5847  -21.9612  -41.2486 C.3       9 UNK         0.1400 
     28 CB         -2.4877  -22.2814  -39.7498 C.3       9 UNK        -0.1800 
     29 N          -2.8668  -20.5343  -41.4161 N.am      9 UNK        -0.5000 
     30 C          -3.1672  -19.9438  -42.5820 C.2       8 UNK         0.5000 
     31 O          -3.3122  -20.5589  -43.6372 O.2       8 UNK        -0.5000 
     32 CA         -3.2411  -18.4035  -42.5809 C.3       8 UNK         0.1400 
     33 CB         -4.6788  -17.9314  -42.3233 C.3       8 UNK        -0.1800 
     34 N          -2.3399  -17.7933  -41.5963 N.am      8 UNK        -0.5000 
     35 C          -1.0044  -17.8889  -41.6391 C.2       7 UNK         0.5000 
     36 O          -0.3953  -18.4599  -42.5454 O.2       7 UNK        -0.5000 
     37 CA         -0.2412  -17.3644  -40.4184 C.3       7 UNK         0.1400 
     38 CB         -0.1331  -18.4849  -39.3635 C.3       7 UNK        -0.1800 
     39 N           1.0896  -16.9039  -40.8097 N.am      7 UNK        -0.5000 
     40 C           1.8938  -16.1634  -40.0332 C.2       6 UNK         0.5000 
     41 O           1.5940  -15.7871  -38.8991 O.2       6 UNK        -0.5000 
     42 CA          3.2491  -15.7453  -40.6243 C.3       6 UNK         0.1400 
     43 CB          4.2040  -16.9453  -40.7408 C.3       6 UNK        -0.1800 
     44 N           3.0639  -15.1182  -41.9300 N.am      6 UNK        -0.5000 
     45 C           2.7904  -13.8172  -42.1102 C.2       5 UNK         0.5000 
     46 O           2.7722  -12.9919  -41.1960 O.2       5 UNK        -0.5000 
     47 CA          2.4747  -13.3475  -43.5455 C.3       5 UNK         0.1400 
     48 CB          3.7347  -12.7819  -44.2177 C.3       5 UNK        -0.1800 
     49 N           1.9210  -14.4029  -44.3915 N.am      5 UNK        -0.5000 
     50 C           0.7274  -14.9858  -44.2137 C.2       4 UNK         0.5000 
     51 O          -0.0903  -14.6309  -43.3646 O.2       4 UNK        -0.5000 
     52 CA          0.4055  -16.1889  -45.1201 C.3       4 UNK         0.1400 
     53 CB         -0.4088  -15.7190  -46.3321 C.3       4 UNK        -0.1800 
     54 N           1.5836  -16.9325  -45.5845 N.am      4 UNK        -0.5000 
     55 C           2.5272  -17.4802  -44.8032 C.2       3 UNK         0.5000 
     56 O           2.5065  -17.4256  -43.5747 O.2       3 UNK        -0.5000 
     57 CA          3.7311  -18.1307  -45.5080 C.3       3 UNK         0.1400 
     58 CB          3.4813  -19.6221  -45.7816 C.3       3 UNK        -0.1800 
     59 N           4.0482  -17.4514  -46.7643 N.am      3 UNK        -0.5000 
     60 C           4.7429  -16.3079  -46.8591 C.2       2 UNK         0.5000 
     61 O           5.2362  -15.7290  -45.8916 O.2       2 UNK        -0.5000 
     62 CA          4.8979  -15.6971  -48.2675 C.3       2 UNK         0.1400 
     63 CB          6.1703  -16.2256  -48.9466 C.3       2 UNK        -0.1800 
     64 N           3.7450  -15.9742  -49.1259 N.am      2 UNK        -0.5000 
     65 C           2.5349  -15.4186  -48.9657 C.2       1 UNK         0.5000 
     66 O           2.3154  -14.5098  -48.1654 O.2       1 UNK        -0.5000 
     67 C          -1.5944  -21.9193  -46.5630 C.2       11 UNK         0.5000 
     68 O          -1.4491  -22.4115  -47.6843 O.2       11 UNK        -0.5000 
     69 N          -2.3793  -22.4542  -45.6140 N.am      12 UNK        -0.5000 
     70 CA         -3.1023  -23.7221  -45.7338 C.3       12 UNK         0.1400 
     71 CB         -4.0227  -23.9260  -44.5219 C.3       12 UNK        -0.1800 
     72 C          -2.1691  -24.9270  -45.9402 C.2       12 UNK         0.5000 
     73 O          -2.4672  -25.7872  -46.7681 O.2       12 UNK        -0.5000 
     74 N          -1.0431  -24.9490  -45.2169 N.am      13 UNK        -0.5000 
     75 CA          0.0055  -25.9545  -45.3723 C.3       13 UNK         0.1400 
     76 CB          0.9495  -25.8967  -44.1612 C.3       13 UNK        -0.1800 
     77 C           0.7898  -25.7926  -46.6890 C.2       13 UNK         0.5000 
     78 O           1.0516  -26.7886  -47.3646 O.2       13 UNK        -0.5000 
     79 N           1.1651  -24.5494  -47.0175 N.am      14 UNK        -0.5000 
     80 CA          2.0337  -24.2166  -48.1442 C.3       14 UNK         0.1400 
     81 CB          2.6122  -22.8068  -47.9467 C.3       14 UNK        -0.1800 
     82 C           1.3562  -24.3309  -49.5197 C.2       14 UNK         0.5000 
     83 O           1.9779  -24.8585  -50.4435 O.2       14 UNK        -0.5000 
     84 N           0.1253  -23.8177  -49.6539 N.am      15 UNK        -0.5000 
     85 CA         -0.5526  -23.6849  -50.9464 C.3       15 UNK         0.1400 
     86 CB         -0.0672  -22.4122  -51.6664 C.3       15 UNK        -0.1800 
     87 C          -2.0826  -23.7385  -50.8109 C.2       15 UNK         0.5000 
     88 O          -2.7867  -23.0132  -51.5176 O.2       15 UNK        -0.5000 
     89 N          -2.5767  -24.5912  -49.9000 N.am      16 UNK        -0.5000 
     90 CA         -3.9929  -24.9324  -49.6871 C.3       16 UNK         0.1400 
     91 CB         -4.5289  -25.7252  -50.8978 C.3       16 UNK        -0.1800 
     92 C          -4.9058  -23.7362  -49.3334 C.2       16 UNK         0.5000 
     93 O          -6.1235  -23.8350  -49.4910 O.2       16 UNK        -0.5000 
     94 N          -4.3021  -22.6299  -48.8722 N.am      17 UNK        -0.5000 
     95 CA         -4.9208  -21.3309  -48.5984 C.3       17 UNK         0.1400 
     96 CB         -5.8778  -21.4056  -47.3910 C.3       17 UNK        -0.1800 
     97 C          -5.5585  -20.6972  -49.8534 C.2       17 UNK         0.5000 
     98 O          -6.5729  -20.0061  -49.7492 O.2       17 UNK        -0.5000 
     99 N          -4.9441  -20.9383  -51.0185 N.am      18 UNK        -0.5000 
    100 CA        -5.3685  -20.4221  -52.3158 C.3       18 UNK         0.1400 
    101 CB        -6.3303  -21.4209  -52.9858 C.3       18 UNK        -0.1800 
    102 C         -4.1369  -20.0932  -53.1754 C.2       18 UNK         0.5000 
    103 O         -4.1185  -20.3903  -54.3711 O.2       18 UNK        -0.5000 
    104 N         -3.1225  -19.4904  -52.5398 N.am      19 UNK        -0.5000 
    105 CA        -1.7753  -19.2749  -53.0723 C.3       19 UNK         0.1400 
    106 CB        -0.9239  -18.6000  -51.9916 C.3       19 UNK        -0.1800 
    107 C         -1.6859  -18.4744  -54.3844 C.2       19 UNK         0.5000 
    108 O         -0.7787  -18.7264  -55.1776 O.2       19 UNK        -0.5000 
    109 N         -2.6223  -17.5432  -54.6012 N.am      20 UNK        -0.5000 
    110 CA        -2.7087  -16.7195  -55.8104 C.3       20 UNK         0.1400 
    111 CB        -3.1241  -15.2916  -55.4125 C.3       20 UNK        -0.1800 
    112 C         -3.6519  -17.3255  -56.8736 C.2       20 UNK         0.5000 
    113 O         -4.1130  -16.5936  -57.7506 O.2       20 UNK        -0.5000 
    114 N         -3.9351  -18.6359  -56.7737 N.am      21 UNK        -0.5000 
    115 CA        -4.9136  -19.4024  -57.5569 C.3       21 UNK         0.1400 
    116 CB        -4.5410  -19.4439  -59.0539 C.3       21 UNK        -0.1800 
    117 C         -6.3429  -18.8936  -57.2858 C.2       21 UNK         0.5000 
    118 O         -7.0925  -18.5779  -58.2114 O.2       21 UNK        -0.5000 
    119 N         -6.6548  -18.7753  -55.9906 N.am      22 UNK        -0.5000 
    120 CA        -7.8338  -18.0811  -55.4473 C.3       22 UNK         0.1400 
    121 C         -9.1961  -18.8068  -55.6545 C.2       22 UNK         0.5000 
    122 N         -9.2273  -20.0522  -56.1120 N.am      22 UNK        -0.7600 
    123 O        -10.2465  -18.2257  -55.3958 O.2       22 UNK        -0.5000 
    124 C124       -7.6376  -17.7044  -53.9536 C.3       23 UNK        -0.0398 
    125 S125       -6.0054  -16.9636  -53.5957 S.3       23 UNK        -0.2404 
    126 C126       -6.2125  -16.4888  -51.8534 C.3       23 UNK        -0.0205 
    127 H127        1.8913  -19.8084  -51.0729 H         1 UNK         0.0600 
    128 H128        1.1572  -20.5176  -49.6306 H         1 UNK         0.0600 
    129 H129        2.8964  -20.2096  -49.6755 H         1 UNK         0.0600 
    130 H130        1.7620  -17.5473  -51.2057 H         1 UNK         0.3000 
    131 H131        0.5365  -16.1025  -49.0810 H         1 UNK         0.0600 
    132 H132        1.7625  -14.6706  -51.4622 H         1 UNK         0.0800 
    133 H133        0.4126  -15.7341  -51.7149 H         1 UNK         0.0800 
    134 H134       -2.2834  -13.2299  -51.5495 H         1 UNK         0.0800 
    135 H135       -1.4382  -14.4626  -52.4430 H         1 UNK         0.0800 
    136 H136       -4.1263  -14.8345  -52.4762 H         1 UNK         0.1150 
    137 H137       -5.3631  -17.7566  -49.6055 H         1 UNK         0.1150 
    138 H138       -1.6052  -15.7975  -49.1381 H         1 UNK         0.1150 
    139 H139       -2.9291  -16.9328  -47.1814 H         1 UNK         0.0800 
    140 H140       -4.1109  -18.1313  -47.6307 H         1 UNK         0.0800 
    141 H141       -1.2171  -18.5325  -45.8739 H         1 UNK         0.0800 
    142 H142       -2.6676  -19.4907  -45.9282 H         1 UNK         0.0800 
    143 H143        0.0460  -20.5686  -46.8444 H         1 UNK         0.0600 
    144 H144       -0.6647  -20.0906  -44.1216 H         1 UNK         0.3000 
    145 H145        1.2332  -22.7583  -42.6807 H         1 UNK         0.0600 
    146 H146        2.0948  -20.7960  -41.3285 H         1 UNK         0.0600 
    147 H147        2.9638  -21.0891  -42.8209 H         1 UNK         0.0600 
    148 H148        1.8124  -19.7630  -42.7248 H         1 UNK         0.0600 
    149 H149       -0.4669  -20.5651  -41.7699 H         1 UNK         0.3000 
    150 H150       -3.4220  -22.5231  -41.6671 H         1 UNK         0.0600 
    151 H151       -2.3006  -23.3441  -39.5894 H         1 UNK         0.0600 
    152 H152       -3.4151  -22.0347  -39.2326 H         1 UNK         0.0600 
    153 H153       -1.6778  -21.7294  -39.2710 H         1 UNK         0.0600 
    154 H154       -2.7785  -19.9553  -40.5948 H         1 UNK         0.3000 
    155 H155       -2.9402  -18.0588  -43.5726 H         1 UNK         0.0600 
    156 H156       -4.7564  -16.8464  -42.3963 H         1 UNK         0.0600 
    157 H157       -5.0304  -18.2284  -41.3345 H         1 UNK         0.0600 
    158 H158       -5.3657  -18.3551  -43.0574 H         1 UNK         0.0600 
    159 H159       -2.7766  -17.3201  -40.8180 H         1 UNK         0.3000 
    160 H160       -0.7951  -16.5203  -40.0023 H         1 UNK         0.0600 
    161 H161        0.4586  -19.3243  -39.7310 H         1 UNK         0.0600 
    162 H162       -1.1168  -18.8696  -39.0919 H         1 UNK         0.0600 
    163 H163        0.3312  -18.1295  -38.4439 H         1 UNK         0.0600 
    164 H164        1.3867  -17.1728  -41.7437 H         1 UNK         0.3000 
    165 H165        3.7102  -15.0275  -39.9422 H         1 UNK         0.0600 
    166 H166        3.7914  -17.7457  -41.3547 H         1 UNK         0.0600 
    167 H167        5.1584  -16.6483  -41.1756 H         1 UNK         0.0600 
    168 H168        4.4122  -17.3681  -39.7573 H         1 UNK         0.0600 
    169 H169        2.9981  -15.7522  -42.7198 H         1 UNK         0.3000 
    170 H170        1.7342  -12.5481  -43.4766 H         1 UNK         0.0600 
    171 H171        4.1495  -11.9564  -43.6379 H         1 UNK         0.0600 
    172 H172        4.5133  -13.5397  -44.3130 H         1 UNK         0.0600 
    173 H173        3.5139  -12.4003  -45.2148 H         1 UNK         0.0600 
    174 H174        2.5178  -14.7565  -45.1256 H         1 UNK         0.3000 
    175 H175       -0.2071  -16.8808  -44.5440 H         1 UNK         0.0600 
    176 H176       -1.3898  -15.3565  -46.0233 H         1 UNK         0.0600 
    177 H177        0.0842  -14.9037  -46.8608 H         1 UNK         0.0600 
    178 H178       -0.5625  -16.5286  -47.0415 H         1 UNK         0.0600 
    179 H179        1.6470  -17.1065  -46.5817 H         1 UNK         0.3000 
    180 H180        4.5930  -18.0527  -44.8417 H         1 UNK         0.0600 
    181 H181        2.5406  -19.7974  -46.3030 H         1 UNK         0.0600 
    182 H182        3.4403  -20.1812  -44.8496 H         1 UNK         0.0600 
    183 H183        4.2818  -20.0573  -46.3797 H         1 UNK         0.0600 
    184 H184        3.6088  -17.8302  -47.5922 H         1 UNK         0.3000 
    185 H185        4.9952  -14.6152  -48.1537 H         1 UNK         0.0600 
    186 H186        6.3240  -15.7542  -49.9175 H         1 UNK         0.0600 
    187 H187        7.0522  -16.0138  -48.3404 H         1 UNK         0.0600 
    188 H188        6.1283  -17.3048  -49.0991 H         1 UNK         0.0600 
    189 H189        3.8493  -16.7112  -49.8077 H         1 UNK         0.3000 
    190 H190       -2.5128  -21.9356  -44.7512 H         1 UNK         0.3000 
    191 H191       -3.7427  -23.6595  -46.6083 H         1 UNK         0.0600 
    192 H192       -4.6603  -24.7991  -44.6653 H         1 UNK         0.0600 
    193 H193       -4.6769  -23.0671  -44.3709 H         1 UNK         0.0600 
    194 H194       -3.4606  -24.0855  -43.6039 H         1 UNK         0.0600 
    195 H195       -0.8935  -24.2287  -44.5214 H         1 UNK         0.3000 
    196 H196       -0.4654  -26.9399  -45.3829 H         1 UNK         0.0600 
    197 H197        1.7197  -26.6658  -44.2305 H         1 UNK         0.0600 
    198 H198        0.4065  -26.0619  -43.2304 H         1 UNK         0.0600 
    199 H199        1.4542  -24.9334  -44.0860 H         1 UNK         0.0600 
    200 H200        0.9577  -23.7889  -46.3744 H         1 UNK         0.3000 
    201 H201        2.8717  -24.9171  -48.1363 H         1 UNK         0.0600 
    202 H202        3.2121  -22.7509  -47.0382 H         1 UNK         0.0600 
    203 H203        1.8247  -22.0568  -47.8707 H         1 UNK         0.0600 
    204 H204        3.2589  -22.5270  -48.7790 H         1 UNK         0.0600 
    205 H205       -0.3398  -23.3913  -48.8544 H         1 UNK         0.3000 
    206 H206       -0.2934  -24.5419  -51.5713 H         1 UNK         0.0600 
    207 H207        1.0193  -22.3818  -51.7464 H         1 UNK         0.0600 
    208 H208       -0.4637  -22.3663  -52.6809 H         1 UNK         0.0600 
    209 H209       -0.3935  -21.5157  -51.1406 H         1 UNK         0.0600 
    210 H210       -1.9194  -25.1053  -49.3288 H         1 UNK         0.3000 
    211 H211       -4.0262  -25.5982  -48.8253 H         1 UNK         0.0600 
    212 H212       -4.5961  -25.1021  -51.7904 H         1 UNK         0.0600 
    213 H213       -5.5256  -26.1213  -50.7002 H         1 UNK         0.0600 
    214 H214       -3.8864  -26.5748  -51.1289 H         1 UNK         0.0600 
    215 H215       -3.2933  -22.6589  -48.7731 H         1 UNK         0.3000 
    216 H216       -4.1048  -20.6693  -48.3161 H         1 UNK         0.0600 
    217 H217       -5.3741  -21.8051  -46.5117 H         1 UNK         0.0600 
    218 H218       -6.2465  -20.4147  -47.1236 H         1 UNK         0.0600 
    219 H219       -6.7458  -22.0319  -47.5973 H         1 UNK         0.0600 
    220 H220       -4.1349  -21.5539  -51.0377 H         1 UNK         0.3000 
    221 H221       -5.8974  -19.4820  -52.1666 H         1 UNK         0.0600 
    222 H222       -5.8427  -22.3790  -53.1700 H         1 UNK         0.0600 
    223 H223       -7.2041  -21.6056  -52.3607 H         1 UNK         0.0600 
    224 H224       -6.6919  -21.0425  -53.9424 H         1 UNK         0.0600 
    225 H225       -3.2521  -19.2559  -51.5663 H         1 UNK         0.3000 
    226 H226       -1.3543  -20.2603  -53.2744 H         1 UNK         0.0600 
    227 H227       -1.3015  -17.6078  -51.7466 H         1 UNK         0.0600 
    228 H228       -0.9058  -19.1849  -51.0727 H         1 UNK         0.0600 
    229 H229        0.1054  -18.4872  -52.3313 H         1 UNK         0.0600 
    230 H230       -3.3519  -17.4172  -53.9131 H         1 UNK         0.3000 
    231 H231       -1.7236  -16.6480  -56.2756 H         1 UNK         0.0600 
    232 H232       -3.0793  -14.6177  -56.2687 H         1 UNK         0.0600 
    233 H233       -2.4596  -14.8852  -54.6507 H         1 UNK         0.0600 
    234 H234       -4.1415  -15.2567  -55.0252 H         1 UNK         0.0600 
    235 H235       -3.5402  -19.1394  -55.9876 H         1 UNK         0.3000 
    236 H236       -4.8734  -20.4262  -57.1819 H         1 UNK         0.0600 
    237 H237       -3.5219  -19.8033  -59.1958 H         1 UNK         0.0600 
    238 H238       -5.2024  -20.1192  -59.5978 H         1 UNK         0.0600 
    239 H239       -4.6203  -18.4644  -59.5258 H         1 UNK         0.0600 
    240 H240       -5.9596  -19.0537  -55.3135 H         1 UNK         0.3000 
    241 H241       -7.9172  -17.1442  -56.0014 H         1 UNK         0.0600 
    242 H242       -8.3735  -20.5324  -56.3461 H         1 UNK         0.3800 
    243 H243      -10.1148  -20.5109  -56.2463 H         1 UNK         0.3800 
    244 H244       -8.4096  -16.9987  -53.6417 H         1 UNK         0.0800 
    245 H245       -7.7594  -18.5860  -53.3226 H         1 UNK         0.0800 
    246 H246       -6.8265  -17.2367  -51.3486 H         1 UNK         0.0800 
    247 H247       -6.7647  -15.5497  -51.8015 H         1 UNK         0.0800 
@<TRIPOS>BOND
     1    1    2 1    
     2    1  127 1    
     3    1  128 1    
     4    1  129 1    
     5    2    3 2    
     6    2    4 am   BACKBONE|DICT|INTERRES
     7    4    5 1    
     8    4  130 1    
     9    5    6 1    
    10    5   65 1    
    11    5  131 1    
    12    6    7 1    
    13    6  132 1    
    14    6  133 1    
    15    7    8 1    
    16    8    9 1    
    17    8  134 1    
    18    8  135 1    
    19    9   10 ar   
    20    9   14 ar   
    21   10   11 ar   
    22   10  136 1    
    23   11   12 ar   
    24   11  126 1    
    25   12   13 ar   
    26   12  137 1    
    27   13   14 ar   
    28   13   15 1    
    29   14  138 1    
    30   15   16 1    
    31   15  139 1    
    32   15  140 1    
    33   16   17 1    
    34   17   18 1    
    35   17  141 1    
    36   17  142 1    
    37   18   19 1    
    38   18   67 1    
    39   18  143 1    
    40   19   20 am   BACKBONE|DICT|INTERRES
    41   19  144 1    
    42   20   21 2    
    43   20   22 1    
    44   22   23 1    
    45   22   24 1    
    46   22  145 1    
    47   23  146 1    
    48   23  147 1    
    49   23  148 1    
    50   24   25 am   BACKBONE|DICT|INTERRES
    51   24  149 1    
    52   25   26 2    
    53   25   27 1    
    54   27   28 1    
    55   27   29 1    
    56   27  150 1    
    57   28  151 1    
    58   28  152 1    
    59   28  153 1    
    60   29   30 am   BACKBONE|DICT|INTERRES
    61   29  154 1    
    62   30   31 2    
    63   30   32 1    
    64   32   33 1    
    65   32   34 1    
    66   32  155 1    
    67   33  156 1    
    68   33  157 1    
    69   33  158 1    
    70   34   35 am   BACKBONE|DICT|INTERRES
    71   34  159 1    
    72   35   36 2    
    73   35   37 1    
    74   37   38 1    
    75   37   39 1    
    76   37  160 1    
    77   38  161 1    
    78   38  162 1    
    79   38  163 1    
    80   39   40 am   BACKBONE|DICT|INTERRES
    81   39  164 1    
    82   40   41 2    
    83   40   42 1    
    84   42   43 1    
    85   42   44 1    
    86   42  165 1    
    87   43  166 1    
    88   43  167 1    
    89   43  168 1    
    90   44   45 am   BACKBONE|DICT|INTERRES
    91   44  169 1    
    92   45   46 2    
    93   45   47 1    
    94   47   48 1    
    95   47   49 1    
    96   47  170 1    
    97   48  171 1    
    98   48  172 1    
    99   48  173 1    
   100   49   50 am   BACKBONE|DICT|INTERRES
   101   49  174 1    
   102   50   51 2    
   103   50   52 1    
   104   52   53 1    
   105   52   54 1    
   106   52  175 1    
   107   53  176 1    
   108   53  177 1    
   109   53  178 1    
   110   54   55 am   BACKBONE|DICT|INTERRES
   111   54  179 1    
   112   55   56 2    
   113   55   57 1    
   114   57   58 1    
   115   57   59 1    
   116   57  180 1    
   117   58  181 1    
   118   58  182 1    
   119   58  183 1    
   120   59   60 am   BACKBONE|DICT|INTERRES
   121   59  184 1    
   122   60   61 2    
   123   60   62 1    
   124   62   63 1    
   125   62   64 1    
   126   62  185 1    
   127   63  186 1    
   128   63  187 1    
   129   63  188 1    
   130   64   65 am   BACKBONE|DICT|INTERRES
   131   64  189 1    
   132   65   66 2    
   133   67   68 2    
   134   67   69 am   BACKBONE|DICT|INTERRES
   135   69   70 1    
   136   69  190 1    
   137   70   71 1    
   138   70   72 1    
   139   70  191 1    
   140   71  192 1    
   141   71  193 1    
   142   71  194 1    
   143   72   73 2    
   144   72   74 am   BACKBONE|DICT|INTERRES
   145   74   75 1    
   146   74  195 1    
   147   75   76 1    
   148   75   77 1    
   149   75  196 1    
   150   76  197 1    
   151   76  198 1    
   152   76  199 1    
   153   77   78 2    
   154   77   79 am   BACKBONE|DICT|INTERRES
   155   79   80 1    
   156   79  200 1    
   157   80   81 1    
   158   80   82 1    
   159   80  201 1    
   160   81  202 1    
   161   81  203 1    
   162   81  204 1    
   163   82   83 2    
   164   82   84 am   BACKBONE|DICT|INTERRES
   165   84   85 1    
   166   84  205 1    
   167   85   86 1    
   168   85   87 1    
   169   85  206 1    
   170   86  207 1    
   171   86  208 1    
   172   86  209 1    
   173   87   88 2    
   174   87   89 am   BACKBONE|DICT|INTERRES
   175   89   90 1    
   176   89  210 1    
   177   90   91 1    
   178   90   92 1    
   179   90  211 1    
   180   91  212 1    
   181   91  213 1    
   182   91  214 1    
   183   92   93 2    
   184   92   94 am   BACKBONE|DICT|INTERRES
   185   94   95 1    
   186   94  215 1    
   187   95   96 1    
   188   95   97 1    
   189   95  216 1    
   190   96  217 1    
   191   96  218 1    
   192   96  219 1    
   193   97   98 2    
   194   97   99 am   BACKBONE|DICT|INTERRES
   195   99  100 1    
   196   99  220 1    
   197  100  101 1    
   198  100  102 1    
   199  100  221 1    
   200  101  222 1    
   201  101  223 1    
   202  101  224 1    
   203  102  103 2    
   204  102  104 am   BACKBONE|DICT|INTERRES
   205  104  105 1    
   206  104  225 1    
   207  105  106 1    
   208  105  107 1    
   209  105  226 1    
   210  106  227 1    
   211  106  228 1    
   212  106  229 1    
   213  107  108 2    
   214  107  109 am   BACKBONE|DICT|INTERRES
   215  109  110 1    
   216  109  230 1    
   217  110  111 1    
   218  110  112 1    
   219  110  231 1    
   220  111  232 1    
   221  111  233 1    
   222  111  234 1    
   223  112  113 2    
   224  112  114 am   BACKBONE|DICT|INTERRES
   225  114  115 1    
   226  114  235 1    
   227  115  116 1    
   228  115  117 1    
   229  115  236 1    
   230  116  237 1    
   231  116  238 1    
   232  116  239 1    
   233  117  118 2    
   234  117  119 am   BACKBONE|DICT|INTERRES
   235  119  120 1    
   236  119  240 1    
   237  120  121 1    
   238  120  124 1    
   239  120  241 1    
   240  121  122 am   BACKBONE|DICT|INTERRES
   241  121  123 2    
   242  122  242 1    
   243  122  243 1    
   244  124  125 1    
   245  124  244 1    
   246  124  245 1    
   247  125  126 1    
   248  126  246 1    
   249  126  247 1    
@<TRIPOS>SUBSTRUCTURE
     1 UNK         1 GROUP             0       ****    0 ROOT    
