@<TRIPOS>MOLECULE
3R540
247   249    1
SMALL
USER_CHARGES


@<TRIPOS>ATOM
      1 CA          2.6304  -14.8194  -53.0893 C.3       0 UNK        -0.1800 
      2 C           2.4177  -15.4927  -51.7405 C.2       0 UNK         0.5000 
      3 O           2.4800  -16.7187  -51.6553 O.2       0 UNK        -0.5000 
      4 N           2.1598  -14.6948  -50.6964 N.am      1 UNK        -0.5000 
      5 CA          1.9280  -15.1571  -49.3241 C.3       1 UNK         0.1400 
      6 C6          1.2569  -14.0502  -48.4613 C.3       23 UNK        -0.0398 
      7 S7          0.1072  -14.7274  -47.2105 S.3       23 UNK        -0.2404 
      8 C8         -1.4956  -14.5910  -48.0719 C.3       23 UNK        -0.0205 
      9 C9         -1.5024  -15.4190  -49.3462 C.ar      23 UNK        -0.0193 
     10 C10        -1.4522  -14.7944  -50.5956 C.ar      23 UNK        -0.1150 
     11 C11        -1.3491  -15.5549  -51.7629 C.ar      23 UNK        -0.0193 
     12 C12        -1.2851  -16.9481  -51.6724 C.ar      23 UNK        -0.1150 
     13 C13        -1.3540  -17.5828  -50.4297 C.ar      23 UNK        -0.0193 
     14 C14        -1.4898  -16.8140  -49.2711 C.ar      23 UNK        -0.1150 
     15 C15        -1.2630  -19.0959  -50.3444 C.3       23 UNK        -0.0205 
     16 S16         0.4624  -19.6573  -50.1677 S.3       23 UNK        -0.2404 
     17 C17         0.7234  -19.5459  -48.3587 C.3       23 UNK        -0.0398 
     18 CA          0.7005  -20.9170  -47.6333 C.3       11 UNK         0.1400 
     19 N           0.9346  -20.7813  -46.1971 N.am      11 UNK        -0.5000 
     20 C           1.6426  -21.6508  -45.4621 C.2       10 UNK         0.5000 
     21 O           2.3343  -22.5504  -45.9405 O.2       10 UNK        -0.5000 
     22 CA          1.5328  -21.5239  -43.9276 C.3       10 UNK         0.1400 
     23 CB          2.6701  -20.6586  -43.3633 C.3       10 UNK        -0.1800 
     24 N           0.2527  -20.9802  -43.4681 N.am      10 UNK        -0.5000 
     25 C          -0.9508  -21.5240  -43.6995 C.2       9 UNK         0.5000 
     26 O          -1.1254  -22.5774  -44.3103 O.2       9 UNK        -0.5000 
     27 CA         -2.1738  -20.7243  -43.2205 C.3       9 UNK         0.1400 
     28 CB         -2.5428  -21.1256  -41.7850 C.3       9 UNK        -0.1800 
     29 N          -2.0141  -19.2686  -43.2799 N.am      9 UNK        -0.5000 
     30 C          -1.6311  -18.5207  -44.3241 C.2       8 UNK         0.5000 
     31 O          -1.3009  -18.9920  -45.4150 O.2       8 UNK        -0.5000 
     32 CA         -1.5663  -16.9921  -44.1182 C.3       8 UNK         0.1400 
     33 CB         -2.7818  -16.3033  -44.7639 C.3       8 UNK        -0.1800 
     34 N          -1.3757  -16.5477  -42.7273 N.am      8 UNK        -0.5000 
     35 C          -2.1988  -16.6637  -41.6723 C.2       7 UNK         0.5000 
     36 O          -3.2969  -17.2179  -41.7129 O.2       7 UNK        -0.5000 
     37 CA         -1.6905  -16.1010  -40.3361 C.3       7 UNK         0.1400 
     38 CB         -0.7251  -17.0939  -39.6687 C.3       7 UNK        -0.1800 
     39 N          -1.0174  -14.8184  -40.5266 N.am      7 UNK        -0.5000 
     40 C          -1.6299  -13.6270  -40.4746 C.2       6 UNK         0.5000 
     41 O          -2.8189  -13.4796  -40.1886 O.2       6 UNK        -0.5000 
     42 CA         -0.7740  -12.3857  -40.7956 C.3       6 UNK         0.1400 
     43 CB         -0.1954  -11.7828  -39.5060 C.3       6 UNK        -0.1800 
     44 N           0.3226  -12.6731  -41.7207 N.am      6 UNK        -0.5000 
     45 C           0.1668  -12.9605  -43.0206 C.2       5 UNK         0.5000 
     46 O          -0.9185  -12.9359  -43.6011 O.2       5 UNK        -0.5000 
     47 CA          1.4346  -13.3657  -43.7962 C.3       5 UNK         0.1400 
     48 CB          2.0207  -12.1515  -44.5320 C.3       5 UNK        -0.1800 
     49 N           2.4792  -13.9805  -42.9698 N.am      5 UNK        -0.5000 
     50 C           2.3567  -15.1294  -42.2923 C.2       4 UNK         0.5000 
     51 O           1.2969  -15.7523  -42.2116 O.2       4 UNK        -0.5000 
     52 CA          3.6324  -15.6755  -41.6180 C.3       4 UNK         0.1400 
     53 CB          3.3984  -17.0317  -40.9285 C.3       4 UNK        -0.1800 
     54 N           4.7056  -15.8282  -42.5996 N.am      4 UNK        -0.5000 
     55 C           5.5332  -14.8574  -43.0094 C.2       3 UNK         0.5000 
     56 O           5.5518  -13.7269  -42.5213 O.2       3 UNK        -0.5000 
     57 CA          6.4379  -15.1889  -44.2141 C.3       3 UNK         0.1400 
     58 CB          7.7679  -15.7951  -43.7421 C.3       3 UNK        -0.1800 
     59 N           5.8030  -16.0989  -45.1756 N.am      3 UNK        -0.5000 
     60 C           4.6823  -15.8207  -45.8572 C.2       2 UNK         0.5000 
     61 O           4.0897  -14.7425  -45.7787 O.2       2 UNK        -0.5000 
     62 CA          4.1109  -16.9598  -46.7259 C.3       2 UNK         0.1400 
     63 CB          3.5447  -18.0788  -45.8355 C.3       2 UNK        -0.1800 
     64 N           3.0436  -16.4919  -47.6096 N.am      2 UNK        -0.5000 
     65 C           3.2197  -15.6888  -48.6654 C.2       1 UNK         0.5000 
     66 O           4.3281  -15.3473  -49.0904 O.2       1 UNK        -0.5000 
     67 C          -0.6337  -21.6550  -47.8445 C.2       11 UNK         0.5000 
     68 O          -0.6623  -22.6697  -48.5394 O.2       11 UNK        -0.5000 
     69 N          -1.7179  -21.1139  -47.2675 N.am      12 UNK        -0.5000 
     70 CA         -3.0982  -21.4536  -47.6134 C.3       12 UNK         0.1400 
     71 CB         -4.0691  -20.5153  -46.8844 C.3       12 UNK        -0.1800 
     72 C          -3.4887  -22.9253  -47.4150 C.2       12 UNK         0.5000 
     73 O          -4.2493  -23.4424  -48.2328 O.2       12 UNK        -0.5000 
     74 N          -2.9508  -23.5760  -46.3730 N.am      13 UNK        -0.5000 
     75 CA         -3.1840  -24.9935  -46.0903 C.3       13 UNK         0.1400 
     76 CB         -2.7072  -25.3280  -44.6692 C.3       13 UNK        -0.1800 
     77 C          -2.5075  -25.9182  -47.1183 C.2       13 UNK         0.5000 
     78 O          -3.0930  -26.9314  -47.5008 O.2       13 UNK        -0.5000 
     79 N          -1.2973  -25.5444  -47.5557 N.am      14 UNK        -0.5000 
     80 CA         -0.5220  -26.2669  -48.5641 C.3       14 UNK         0.1400 
     81 CB          0.9537  -25.8493  -48.4673 C.3       14 UNK        -0.1800 
     82 C          -1.0673  -26.0270  -49.9818 C.2       14 UNK         0.5000 
     83 O          -1.1330  -26.9622  -50.7814 O.2       14 UNK        -0.5000 
     84 N          -1.4776  -24.7832  -50.2583 N.am      15 UNK        -0.5000 
     85 CA         -2.0639  -24.3226  -51.5145 C.3       15 UNK         0.1400 
     86 CB         -1.8847  -22.7995  -51.5991 C.3       15 UNK        -0.1800 
     87 C          -3.5344  -24.7673  -51.6639 C.2       15 UNK         0.5000 
     88 O          -4.4453  -23.9337  -51.6929 O.2       15 UNK        -0.5000 
     89 N          -3.7255  -26.0917  -51.7373 N.am      16 UNK        -0.5000 
     90 CA         -4.9772  -26.8246  -51.9676 C.3       16 UNK         0.1400 
     91 CB         -5.5217  -26.5167  -53.3771 C.3       16 UNK        -0.1800 
     92 C          -6.0529  -26.6209  -50.8791 C.2       16 UNK         0.5000 
     93 O          -7.2301  -26.8748  -51.1387 O.2       16 UNK        -0.5000 
     94 N          -5.6376  -26.1550  -49.6912 N.am      17 UNK        -0.5000 
     95 CA         -6.4755  -25.7596  -48.5523 C.3       17 UNK         0.1400 
     96 CB         -7.2163  -26.9772  -47.9608 C.3       17 UNK        -0.1800 
     97 C          -7.4178  -24.5744  -48.8668 C.2       17 UNK         0.5000 
     98 O          -8.4463  -24.4233  -48.2042 O.2       17 UNK        -0.5000 
     99 N          -7.0661  -23.7665  -49.8776 N.am      18 UNK        -0.5000 
    100 CA        -7.9194  -22.7168  -50.4356 C.3       18 UNK         0.1400 
    101 CB        -8.6881  -23.3029  -51.6347 C.3       18 UNK        -0.1800 
    102 C         -7.1419  -21.4521  -50.8422 C.2       18 UNK         0.5000 
    103 O         -7.7561  -20.5355  -51.3897 O.2       18 UNK        -0.5000 
    104 N         -5.8208  -21.4193  -50.6001 N.am      19 UNK        -0.5000 
    105 CA        -4.8818  -20.3847  -51.0590 C.3       19 UNK         0.1400 
    106 CB        -5.1495  -19.0279  -50.3745 C.3       19 UNK        -0.1800 
    107 C         -4.8114  -20.2885  -52.5984 C.2       19 UNK         0.5000 
    108 O         -4.6902  -19.1936  -53.1511 O.2       19 UNK        -0.5000 
    109 N         -4.8701  -21.4532  -53.2634 N.am      20 UNK        -0.5000 
    110 CA        -4.9372  -21.6101  -54.7209 C.3       20 UNK         0.1400 
    111 CB        -5.1034  -23.0991  -55.0546 C.3       20 UNK        -0.1800 
    112 C         -3.7450  -21.0109  -55.4925 C.2       20 UNK         0.5000 
    113 O         -3.9022  -20.6367  -56.6555 O.2       20 UNK        -0.5000 
    114 N         -2.5934  -20.8757  -54.8198 N.am      21 UNK        -0.5000 
    115 CA        -1.3871  -20.2076  -55.3146 C.3       21 UNK         0.1400 
    116 CB        -0.2647  -20.3802  -54.2789 C.3       21 UNK        -0.1800 
    117 C         -1.5921  -18.7135  -55.6457 C.2       21 UNK         0.5000 
    118 O         -0.8344  -18.1691  -56.4495 O.2       21 UNK        -0.5000 
    119 N         -2.6141  -18.0876  -55.0446 N.am      22 UNK        -0.5000 
    120 CA        -3.0635  -16.7226  -55.3534 C.3       22 UNK         0.1400 
    121 C         -4.0140  -16.6265  -56.5855 C.2       22 UNK         0.5000 
    122 N         -4.4006  -17.7231  -57.2292 N.am      22 UNK        -0.7600 
    123 O         -4.4016  -15.5296  -56.9785 O.2       22 UNK        -0.5000 
    124 C124       -3.6564  -16.0316  -54.0905 C.3       23 UNK        -0.0398 
    125 S125       -2.9074  -14.4002  -53.7599 S.3       23 UNK        -0.2404 
    126 C126       -1.2666  -14.8685  -53.1172 C.3       23 UNK        -0.0205 
    127 H127        3.6398  -15.0159  -53.4520 H         1 UNK         0.0600 
    128 H128        1.9221  -15.2119  -53.8192 H         1 UNK         0.0600 
    129 H129        2.4933  -13.7391  -53.0303 H         1 UNK         0.0600 
    130 H130        2.1665  -13.6942  -50.8282 H         1 UNK         0.3000 
    131 H131        1.2444  -16.0046  -49.4041 H         1 UNK         0.0600 
    132 H132        2.0002  -13.4295  -47.9564 H         1 UNK         0.0800 
    133 H133        0.6916  -13.3617  -49.0905 H         1 UNK         0.0800 
    134 H134       -2.2924  -14.9329  -47.4118 H         1 UNK         0.0800 
    135 H135       -1.7042  -13.5415  -48.2853 H         1 UNK         0.0800 
    136 H136       -1.4665  -13.7157  -50.6613 H         1 UNK         0.1150 
    137 H137       -1.1757  -17.5390  -52.5703 H         1 UNK         0.1150 
    138 H138       -1.5392  -17.2918  -48.3034 H         1 UNK         0.1150 
    139 H139       -1.8704  -19.4590  -49.5172 H         1 UNK         0.0800 
    140 H140       -1.6848  -19.5399  -51.2463 H         1 UNK         0.0800 
    141 H141        0.0010  -18.8632  -47.9143 H         1 UNK         0.0800 
    142 H142        1.6963  -19.0785  -48.2115 H         1 UNK         0.0800 
    143 H143        1.4861  -21.5311  -48.0792 H         1 UNK         0.0600 
    144 H144        0.3563  -20.1023  -45.7146 H         1 UNK         0.3000 
    145 H145        1.6316  -22.5300  -43.5147 H         1 UNK         0.0600 
    146 H146        2.6991  -20.7105  -42.2747 H         1 UNK         0.0600 
    147 H147        3.6416  -20.9942  -43.7295 H         1 UNK         0.0600 
    148 H148        2.5539  -19.6116  -43.6421 H         1 UNK         0.0600 
    149 H149        0.2869  -20.1069  -42.9634 H         1 UNK         0.3000 
    150 H150       -3.0096  -20.9906  -43.8662 H         1 UNK         0.0600 
    151 H151       -2.6934  -22.2034  -41.7056 H         1 UNK         0.0600 
    152 H152       -3.4685  -20.6449  -41.4670 H         1 UNK         0.0600 
    153 H153       -1.7609  -20.8486  -41.0765 H         1 UNK         0.0600 
    154 H154       -2.3382  -18.7551  -42.4678 H         1 UNK         0.3000 
    155 H155       -0.6776  -16.6553  -44.6550 H         1 UNK         0.0600 
    156 H156       -2.8835  -16.5968  -45.8094 H         1 UNK         0.0600 
    157 H157       -2.6763  -15.2182  -44.7371 H         1 UNK         0.0600 
    158 H158       -3.7152  -16.5644  -44.2646 H         1 UNK         0.0600 
    159 H159       -0.4566  -16.1494  -42.5452 H         1 UNK         0.3000 
    160 H160       -2.5492  -15.9733  -39.6734 H         1 UNK         0.0600 
    161 H161       -0.3731  -16.7157  -38.7088 H         1 UNK         0.0600 
    162 H162        0.1482  -17.2946  -40.2898 H         1 UNK         0.0600 
    163 H163       -1.2181  -18.0485  -39.4810 H         1 UNK         0.0600 
    164 H164       -0.0525  -14.8581  -40.8285 H         1 UNK         0.3000 
    165 H165       -1.4274  -11.6426  -41.2578 H         1 UNK         0.0600 
    166 H166        0.3553  -10.8648  -39.7117 H         1 UNK         0.0600 
    167 H167       -0.9899  -11.5327  -38.8016 H         1 UNK         0.0600 
    168 H168        0.4812  -12.4764  -39.0049 H         1 UNK         0.0600 
    169 H169        1.2539  -12.7028  -41.3325 H         1 UNK         0.3000 
    170 H170        1.1368  -14.1064  -44.5397 H         1 UNK         0.0600 
    171 H171        1.2758  -11.6947  -45.1849 H         1 UNK         0.0600 
    172 H172        2.3636  -11.3859  -43.8350 H         1 UNK         0.0600 
    173 H173        2.8648  -12.4373  -45.1595 H         1 UNK         0.0600 
    174 H174        3.3930  -13.5464  -42.9996 H         1 UNK         0.3000 
    175 H175        3.9344  -14.9573  -40.8533 H         1 UNK         0.0600 
    176 H176        4.3097  -17.3943  -40.4538 H         1 UNK         0.0600 
    177 H177        2.6402  -16.9483  -40.1488 H         1 UNK         0.0600 
    178 H178        3.0631  -17.7922  -41.6345 H         1 UNK         0.0600 
    179 H179        4.7416  -16.7118  -43.0850 H         1 UNK         0.3000 
    180 H180        6.6531  -14.2520  -44.7320 H         1 UNK         0.0600 
    181 H181        7.6193  -16.7503  -43.2372 H         1 UNK         0.0600 
    182 H182        8.2733  -15.1286  -43.0418 H         1 UNK         0.0600 
    183 H183        8.4466  -15.9590  -44.5795 H         1 UNK         0.0600 
    184 H184        6.2399  -17.0017  -45.2950 H         1 UNK         0.3000 
    185 H185        4.9206  -17.3650  -47.3366 H         1 UNK         0.0600 
    186 H186        3.2125  -18.9273  -46.4320 H         1 UNK         0.0600 
    187 H187        4.2974  -18.4587  -45.1440 H         1 UNK         0.0600 
    188 H188        2.6981  -17.7299  -45.2422 H         1 UNK         0.0600 
    189 H189        2.1003  -16.6525  -47.2883 H         1 UNK         0.3000 
    190 H190       -1.5975  -20.3081  -46.6587 H         1 UNK         0.3000 
    191 H191       -3.2009  -21.2565  -48.6789 H         1 UNK         0.0600 
    192 H192       -4.0416  -20.6608  -45.8067 H         1 UNK         0.0600 
    193 H193       -5.0956  -20.6901  -47.2096 H         1 UNK         0.0600 
    194 H194       -3.8372  -19.4694  -47.0875 H         1 UNK         0.0600 
    195 H195       -2.3065  -23.0900  -45.7548 H         1 UNK         0.3000 
    196 H196       -4.2589  -25.1746  -46.1256 H         1 UNK         0.0600 
    197 H197       -1.6281  -25.2070  -44.5664 H         1 UNK         0.0600 
    198 H198       -2.9461  -26.3607  -44.4121 H         1 UNK         0.0600 
    199 H199       -3.1886  -24.6880  -43.9293 H         1 UNK         0.0600 
    200 H200       -0.9205  -24.6610  -47.2404 H         1 UNK         0.3000 
    201 H201       -0.5863  -27.3370  -48.3554 H         1 UNK         0.0600 
    202 H202        1.0875  -24.7834  -48.6562 H         1 UNK         0.0600 
    203 H203        1.5603  -26.3902  -49.1950 H         1 UNK         0.0600 
    204 H204        1.3606  -26.0663  -47.4794 H         1 UNK         0.0600 
    205 H205       -1.3424  -24.0696  -49.5454 H         1 UNK         0.3000 
    206 H206       -1.5084  -24.7653  -52.3440 H         1 UNK         0.0600 
    207 H207       -0.8287  -22.5275  -51.6025 H         1 UNK         0.0600 
    208 H208       -2.3253  -22.4022  -52.5107 H         1 UNK         0.0600 
    209 H209       -2.3477  -22.3029  -50.7487 H         1 UNK         0.0600 
    210 H210       -2.8979  -26.6705  -51.6235 H         1 UNK         0.3000 
    211 H211       -4.7148  -27.8829  -51.9376 H         1 UNK         0.0600 
    212 H212       -5.9208  -25.5047  -53.4362 H         1 UNK         0.0600 
    213 H213       -6.3288  -27.1999  -53.6442 H         1 UNK         0.0600 
    214 H214       -4.7462  -26.6198  -54.1361 H         1 UNK         0.0600 
    215 H215       -4.6500  -25.9710  -49.5810 H         1 UNK         0.3000 
    216 H216       -5.7956  -25.4044  -47.7821 H         1 UNK         0.0600 
    217 H217       -6.5252  -27.7941  -47.7525 H         1 UNK         0.0600 
    218 H218       -7.7031  -26.7191  -47.0197 H         1 UNK         0.0600 
    219 H219       -7.9881  -27.3518  -48.6337 H         1 UNK         0.0600 
    220 H220       -6.2054  -23.9655  -50.3750 H         1 UNK         0.3000 
    221 H221       -8.6437  -22.3899  -49.6870 H         1 UNK         0.0600 
    222 H222       -8.0075  -23.6263  -52.4238 H         1 UNK         0.0600 
    223 H223       -9.2861  -24.1646  -51.3371 H         1 UNK         0.0600 
    224 H224       -9.3712  -22.5705  -52.0664 H         1 UNK         0.0600 
    225 H225       -5.4042  -22.2213  -50.1451 H         1 UNK         0.3000 
    226 H226       -3.8930  -20.7068  -50.7462 H         1 UNK         0.0600 
    227 H227       -5.1838  -19.1307  -49.2906 H         1 UNK         0.0600 
    228 H228       -4.3607  -18.3110  -50.6065 H         1 UNK         0.0600 
    229 H229       -6.0920  -18.5866  -50.6989 H         1 UNK         0.0600 
    230 H230       -4.9267  -22.3094  -52.7192 H         1 UNK         0.3000 
    231 H231       -5.8313  -21.0842  -55.0615 H         1 UNK         0.0600 
    232 H232       -6.0298  -23.4891  -54.6336 H         1 UNK         0.0600 
    233 H233       -4.2766  -23.6945  -54.6654 H         1 UNK         0.0600 
    234 H234       -5.1470  -23.2596  -56.1327 H         1 UNK         0.0600 
    235 H235       -2.5674  -21.2024  -53.8673 H         1 UNK         0.3000 
    236 H236       -1.0851  -20.7082  -56.2370 H         1 UNK         0.0600 
    237 H237        0.6644  -19.9291  -54.6304 H         1 UNK         0.0600 
    238 H238       -0.5160  -19.9088  -53.3288 H         1 UNK         0.0600 
    239 H239       -0.0600  -21.4339  -54.0878 H         1 UNK         0.0600 
    240 H240       -3.2140  -18.6115  -54.4154 H         1 UNK         0.3000 
    241 H241       -2.1780  -16.1644  -55.6614 H         1 UNK         0.0600 
    242 H242       -4.0959  -18.6459  -56.9402 H         1 UNK         0.3800 
    243 H243       -5.0100  -17.6329  -58.0268 H         1 UNK         0.3800 
    244 H244       -4.7365  -15.8977  -54.1741 H         1 UNK         0.0800 
    245 H245       -3.5331  -16.6496  -53.2013 H         1 UNK         0.0800 
    246 H246       -0.6549  -13.9694  -53.0296 H         1 UNK         0.0800 
    247 H247       -0.7557  -15.5089  -53.8375 H         1 UNK         0.0800 
@<TRIPOS>BOND
     1    1    2 1    
     2    1  127 1    
     3    1  128 1    
     4    1  129 1    
     5    2    3 2    
     6    2    4 am   BACKBONE|DICT|INTERRES
     7    4    5 1    
     8    4  130 1    
     9    5    6 1    
    10    5   65 1    
    11    5  131 1    
    12    6    7 1    
    13    6  132 1    
    14    6  133 1    
    15    7    8 1    
    16    8    9 1    
    17    8  134 1    
    18    8  135 1    
    19    9   10 ar   
    20    9   14 ar   
    21   10   11 ar   
    22   10  136 1    
    23   11   12 ar   
    24   11  126 1    
    25   12   13 ar   
    26   12  137 1    
    27   13   14 ar   
    28   13   15 1    
    29   14  138 1    
    30   15   16 1    
    31   15  139 1    
    32   15  140 1    
    33   16   17 1    
    34   17   18 1    
    35   17  141 1    
    36   17  142 1    
    37   18   19 1    
    38   18   67 1    
    39   18  143 1    
    40   19   20 am   BACKBONE|DICT|INTERRES
    41   19  144 1    
    42   20   21 2    
    43   20   22 1    
    44   22   23 1    
    45   22   24 1    
    46   22  145 1    
    47   23  146 1    
    48   23  147 1    
    49   23  148 1    
    50   24   25 am   BACKBONE|DICT|INTERRES
    51   24  149 1    
    52   25   26 2    
    53   25   27 1    
    54   27   28 1    
    55   27   29 1    
    56   27  150 1    
    57   28  151 1    
    58   28  152 1    
    59   28  153 1    
    60   29   30 am   BACKBONE|DICT|INTERRES
    61   29  154 1    
    62   30   31 2    
    63   30   32 1    
    64   32   33 1    
    65   32   34 1    
    66   32  155 1    
    67   33  156 1    
    68   33  157 1    
    69   33  158 1    
    70   34   35 am   BACKBONE|DICT|INTERRES
    71   34  159 1    
    72   35   36 2    
    73   35   37 1    
    74   37   38 1    
    75   37   39 1    
    76   37  160 1    
    77   38  161 1    
    78   38  162 1    
    79   38  163 1    
    80   39   40 am   BACKBONE|DICT|INTERRES
    81   39  164 1    
    82   40   41 2    
    83   40   42 1    
    84   42   43 1    
    85   42   44 1    
    86   42  165 1    
    87   43  166 1    
    88   43  167 1    
    89   43  168 1    
    90   44   45 am   BACKBONE|DICT|INTERRES
    91   44  169 1    
    92   45   46 2    
    93   45   47 1    
    94   47   48 1    
    95   47   49 1    
    96   47  170 1    
    97   48  171 1    
    98   48  172 1    
    99   48  173 1    
   100   49   50 am   BACKBONE|DICT|INTERRES
   101   49  174 1    
   102   50   51 2    
   103   50   52 1    
   104   52   53 1    
   105   52   54 1    
   106   52  175 1    
   107   53  176 1    
   108   53  177 1    
   109   53  178 1    
   110   54   55 am   BACKBONE|DICT|INTERRES
   111   54  179 1    
   112   55   56 2    
   113   55   57 1    
   114   57   58 1    
   115   57   59 1    
   116   57  180 1    
   117   58  181 1    
   118   58  182 1    
   119   58  183 1    
   120   59   60 am   BACKBONE|DICT|INTERRES
   121   59  184 1    
   122   60   61 2    
   123   60   62 1    
   124   62   63 1    
   125   62   64 1    
   126   62  185 1    
   127   63  186 1    
   128   63  187 1    
   129   63  188 1    
   130   64   65 am   BACKBONE|DICT|INTERRES
   131   64  189 1    
   132   65   66 2    
   133   67   68 2    
   134   67   69 am   BACKBONE|DICT|INTERRES
   135   69   70 1    
   136   69  190 1    
   137   70   71 1    
   138   70   72 1    
   139   70  191 1    
   140   71  192 1    
   141   71  193 1    
   142   71  194 1    
   143   72   73 2    
   144   72   74 am   BACKBONE|DICT|INTERRES
   145   74   75 1    
   146   74  195 1    
   147   75   76 1    
   148   75   77 1    
   149   75  196 1    
   150   76  197 1    
   151   76  198 1    
   152   76  199 1    
   153   77   78 2    
   154   77   79 am   BACKBONE|DICT|INTERRES
   155   79   80 1    
   156   79  200 1    
   157   80   81 1    
   158   80   82 1    
   159   80  201 1    
   160   81  202 1    
   161   81  203 1    
   162   81  204 1    
   163   82   83 2    
   164   82   84 am   BACKBONE|DICT|INTERRES
   165   84   85 1    
   166   84  205 1    
   167   85   86 1    
   168   85   87 1    
   169   85  206 1    
   170   86  207 1    
   171   86  208 1    
   172   86  209 1    
   173   87   88 2    
   174   87   89 am   BACKBONE|DICT|INTERRES
   175   89   90 1    
   176   89  210 1    
   177   90   91 1    
   178   90   92 1    
   179   90  211 1    
   180   91  212 1    
   181   91  213 1    
   182   91  214 1    
   183   92   93 2    
   184   92   94 am   BACKBONE|DICT|INTERRES
   185   94   95 1    
   186   94  215 1    
   187   95   96 1    
   188   95   97 1    
   189   95  216 1    
   190   96  217 1    
   191   96  218 1    
   192   96  219 1    
   193   97   98 2    
   194   97   99 am   BACKBONE|DICT|INTERRES
   195   99  100 1    
   196   99  220 1    
   197  100  101 1    
   198  100  102 1    
   199  100  221 1    
   200  101  222 1    
   201  101  223 1    
   202  101  224 1    
   203  102  103 2    
   204  102  104 am   BACKBONE|DICT|INTERRES
   205  104  105 1    
   206  104  225 1    
   207  105  106 1    
   208  105  107 1    
   209  105  226 1    
   210  106  227 1    
   211  106  228 1    
   212  106  229 1    
   213  107  108 2    
   214  107  109 am   BACKBONE|DICT|INTERRES
   215  109  110 1    
   216  109  230 1    
   217  110  111 1    
   218  110  112 1    
   219  110  231 1    
   220  111  232 1    
   221  111  233 1    
   222  111  234 1    
   223  112  113 2    
   224  112  114 am   BACKBONE|DICT|INTERRES
   225  114  115 1    
   226  114  235 1    
   227  115  116 1    
   228  115  117 1    
   229  115  236 1    
   230  116  237 1    
   231  116  238 1    
   232  116  239 1    
   233  117  118 2    
   234  117  119 am   BACKBONE|DICT|INTERRES
   235  119  120 1    
   236  119  240 1    
   237  120  121 1    
   238  120  124 1    
   239  120  241 1    
   240  121  122 am   BACKBONE|DICT|INTERRES
   241  121  123 2    
   242  122  242 1    
   243  122  243 1    
   244  124  125 1    
   245  124  244 1    
   246  124  245 1    
   247  125  126 1    
   248  126  246 1    
   249  126  247 1    
@<TRIPOS>SUBSTRUCTURE
     1 UNK         1 GROUP             0       ****    0 ROOT    
