@<TRIPOS>MOLECULE
3R540
247   249    1
SMALL
USER_CHARGES


@<TRIPOS>ATOM
      1 CA         -1.9613  -11.0779  -49.5061 C.3       0 UNK        -0.1800 
      2 C          -2.3960  -12.3720  -48.8338 C.2       0 UNK         0.5000 
      3 O          -3.1274  -12.3325  -47.8443 O.2       0 UNK        -0.5000 
      4 N          -1.9368  -13.5179  -49.3557 N.am      1 UNK        -0.5000 
      5 CA         -2.2115  -14.8919  -48.9035 C.3       1 UNK         0.1400 
      6 C6         -3.7289  -15.2366  -48.8500 C.3       23 UNK        -0.0398 
      7 S7         -4.1096  -16.8836  -49.5327 S.3       23 UNK        -0.2404 
      8 C8         -4.8185  -17.7534  -48.0932 C.3       23 UNK        -0.0205 
      9 C9         -5.5210  -19.0604  -48.4604 C.ar      23 UNK        -0.0193 
     10 C10        -6.3774  -19.1297  -49.5659 C.ar      23 UNK        -0.1150 
     11 C11        -7.0504  -20.3136  -49.8797 C.ar      23 UNK        -0.0193 
     12 C12        -6.8674  -21.4393  -49.0729 C.ar      23 UNK        -0.1150 
     13 C13        -6.0293  -21.3866  -47.9556 C.ar      23 UNK        -0.0193 
     14 C14        -5.3627  -20.1934  -47.6535 C.ar      23 UNK        -0.1150 
     15 C15        -5.8937  -22.6073  -47.0550 C.3       23 UNK        -0.0205 
     16 S16        -4.4405  -23.6257  -47.4804 S.3       23 UNK        -0.2404 
     17 C17        -3.3224  -23.2565  -46.0883 C.3       23 UNK        -0.0398 
     18 CA         -2.4248  -22.0247  -46.3670 C.3       11 UNK         0.1400 
     19 N          -2.4470  -21.0649  -45.2617 N.am      11 UNK        -0.5000 
     20 C          -2.1175  -19.7750  -45.4013 C.2       10 UNK         0.5000 
     21 O          -1.6691  -19.3230  -46.4518 O.2       10 UNK        -0.5000 
     22 CA         -2.2857  -18.8202  -44.2023 C.3       10 UNK         0.1400 
     23 CB         -3.1733  -17.6112  -44.5648 C.3       10 UNK        -0.1800 
     24 N          -2.7275  -19.4552  -42.9568 N.am      10 UNK        -0.5000 
     25 C          -3.9194  -19.9921  -42.6635 C.2       9 UNK         0.5000 
     26 O          -4.8881  -19.9936  -43.4238 O.2       9 UNK        -0.5000 
     27 CA         -3.9907  -20.7019  -41.2945 C.3       9 UNK         0.1400 
     28 CB         -5.2860  -21.5178  -41.1013 C.3       9 UNK        -0.1800 
     29 N          -2.8060  -21.5369  -41.0476 N.am      9 UNK        -0.5000 
     30 C          -2.3720  -22.5530  -41.8101 C.2       8 UNK         0.5000 
     31 O          -2.9456  -22.9385  -42.8294 O.2       8 UNK        -0.5000 
     32 CA         -1.0373  -23.1971  -41.3846 C.3       8 UNK         0.1400 
     33 CB         -0.5659  -24.2925  -42.3610 C.3       8 UNK        -0.1800 
     34 N           0.0223  -22.2038  -41.1720 N.am      8 UNK        -0.5000 
     35 C           0.4647  -21.2817  -42.0396 C.2       7 UNK         0.5000 
     36 O           0.0546  -21.1501  -43.1969 O.2       7 UNK        -0.5000 
     37 CA          1.5580  -20.3344  -41.5110 C.3       7 UNK         0.1400 
     38 CB          2.8983  -20.6191  -42.2050 C.3       7 UNK        -0.1800 
     39 N           1.2223  -18.9231  -41.6958 N.am      7 UNK        -0.5000 
     40 C           0.1043  -18.3082  -41.2953 C.2       6 UNK         0.5000 
     41 O          -0.8068  -18.8784  -40.6903 O.2       6 UNK        -0.5000 
     42 CA         -0.0233  -16.8122  -41.6563 C.3       6 UNK         0.1400 
     43 CB         -1.3550  -16.2073  -41.1748 C.3       6 UNK        -0.1800 
     44 N           1.0735  -15.9819  -41.1509 N.am      6 UNK        -0.5000 
     45 C           2.3173  -15.9343  -41.6444 C.2       5 UNK         0.5000 
     46 O           2.7531  -16.7062  -42.5024 O.2       5 UNK        -0.5000 
     47 CA          3.2307  -14.8304  -41.1032 C.3       5 UNK         0.1400 
     48 CB          4.3238  -15.4143  -40.1896 C.3       5 UNK        -0.1800 
     49 N           3.8232  -14.1498  -42.2497 N.am      5 UNK        -0.5000 
     50 C           4.3851  -12.9358  -42.2355 C.2       4 UNK         0.5000 
     51 O           4.4828  -12.2421  -41.2223 O.2       4 UNK        -0.5000 
     52 CA          4.9387  -12.3994  -43.5709 C.3       4 UNK         0.1400 
     53 CB          6.4310  -12.7408  -43.7055 C.3       4 UNK        -0.1800 
     54 N           4.2268  -12.9131  -44.7434 N.am      4 UNK        -0.5000 
     55 C           3.0259  -12.4836  -45.1553 C.2       3 UNK         0.5000 
     56 O           2.4055  -11.5725  -44.6024 O.2       3 UNK        -0.5000 
     57 CA          2.4124  -13.1654  -46.4029 C.3       3 UNK         0.1400 
     58 CB          3.1946  -14.4060  -46.8924 C.3       3 UNK        -0.1800 
     59 N           0.9974  -13.5070  -46.2156 N.am      3 UNK        -0.5000 
     60 C           0.4847  -14.2643  -45.2341 C.2       2 UNK         0.5000 
     61 O           1.1565  -14.7668  -44.3378 O.2       2 UNK        -0.5000 
     62 CA         -1.0330  -14.5148  -45.2430 C.3       2 UNK         0.1400 
     63 CB         -1.7427  -13.5589  -44.2731 C.3       2 UNK        -0.1800 
     64 N          -1.6501  -14.3939  -46.5635 N.am      2 UNK        -0.5000 
     65 C          -1.4825  -15.2410  -47.5872 C.2       1 UNK         0.5000 
     66 O          -0.7640  -16.2364  -47.5340 O.2       1 UNK        -0.5000 
     67 C          -0.9922  -22.4149  -46.7758 C.2       11 UNK         0.5000 
     68 O          -0.7123  -22.5080  -47.9716 O.2       11 UNK        -0.5000 
     69 N          -0.0935  -22.5874  -45.7944 N.am      12 UNK        -0.5000 
     70 CA          1.3267  -22.8503  -46.0431 C.3       12 UNK         0.1400 
     71 CB          1.9796  -23.5255  -44.8290 C.3       12 UNK        -0.1800 
     72 C           2.0774  -21.5690  -46.4384 C.2       12 UNK         0.5000 
     73 O           3.0105  -21.6438  -47.2372 O.2       12 UNK        -0.5000 
     74 N           1.6195  -20.4122  -45.9354 N.am      13 UNK        -0.5000 
     75 CA          2.0812  -19.0863  -46.3599 C.3       13 UNK         0.1400 
     76 CB          1.4658  -18.0130  -45.4544 C.3       13 UNK        -0.1800 
     77 C           1.7662  -18.8085  -47.8445 C.2       13 UNK         0.5000 
     78 O           2.5944  -18.2307  -48.5483 O.2       13 UNK        -0.5000 
     79 N           0.6128  -19.3094  -48.3063 N.am      14 UNK        -0.5000 
     80 CA          0.1765  -19.3299  -49.7009 C.3       14 UNK         0.1400 
     81 CB         -1.3591  -19.3691  -49.7316 C.3       14 UNK        -0.1800 
     82 C           0.7787  -20.4932  -50.5209 C.2       14 UNK         0.5000 
     83 O           0.2921  -20.7567  -51.6214 O.2       14 UNK        -0.5000 
     84 N           1.8063  -21.1741  -49.9897 N.am      15 UNK        -0.5000 
     85 CA          2.5640  -22.2685  -50.6057 C.3       15 UNK         0.1400 
     86 CB          3.3389  -21.7628  -51.8415 C.3       15 UNK        -0.1800 
     87 C           1.6923  -23.5055  -50.8993 C.2       15 UNK         0.5000 
     88 O           1.7227  -24.0353  -52.0094 O.2       15 UNK        -0.5000 
     89 N           0.9021  -23.9194  -49.8982 N.am      16 UNK        -0.5000 
     90 CA         -0.1168  -24.9762  -49.9554 C.3       16 UNK         0.1400 
     91 CB          0.5099  -26.3558  -50.2486 C.3       16 UNK        -0.1800 
     92 C          -1.2600  -24.5969  -50.9183 C.2       16 UNK         0.5000 
     93 O          -1.7115  -25.4231  -51.7126 O.2       16 UNK        -0.5000 
     94 N          -1.6674  -23.3218  -50.8370 N.am      17 UNK        -0.5000 
     95 CA         -2.6650  -22.6322  -51.6613 C.3       17 UNK         0.1400 
     96 CB         -4.0600  -23.2615  -51.4834 C.3       17 UNK        -0.1800 
     97 C          -2.2858  -22.4731  -53.1511 C.2       17 UNK         0.5000 
     98 O          -3.1310  -22.0492  -53.9409 O.2       17 UNK        -0.5000 
     99 N          -1.0304  -22.7583  -53.5261 N.am      18 UNK        -0.5000 
    100 CA        -0.5251  -22.6048  -54.8923 C.3       18 UNK         0.1400 
    101 CB         0.8414  -23.2909  -55.0224 C.3       18 UNK        -0.1800 
    102 C         -0.4340  -21.1340  -55.3380 C.2       18 UNK         0.5000 
    103 O         -0.6749  -20.8448  -56.5104 O.2       18 UNK        -0.5000 
    104 N         -0.1182  -20.2304  -54.3988 N.am      19 UNK        -0.5000 
    105 CA        -0.0985  -18.7847  -54.6299 C.3       19 UNK         0.1400 
    106 CB         0.7634  -18.1062  -53.5547 C.3       19 UNK        -0.1800 
    107 C         -1.5154  -18.1818  -54.6418 C.2       19 UNK         0.5000 
    108 O         -1.7380  -17.1720  -55.3105 O.2       19 UNK        -0.5000 
    109 N         -2.4442  -18.8106  -53.9073 N.am      20 UNK        -0.5000 
    110 CA        -3.8585  -18.4399  -53.8642 C.3       20 UNK         0.1400 
    111 CB        -4.5123  -19.0719  -52.6268 C.3       20 UNK        -0.1800 
    112 C         -4.6021  -18.8644  -55.1431 C.2       20 UNK         0.5000 
    113 O         -5.4576  -18.1201  -55.6227 O.2       20 UNK        -0.5000 
    114 N         -4.2535  -20.0528  -55.6615 N.am      21 UNK        -0.5000 
    115 CA        -4.7974  -20.7094  -56.8561 C.3       21 UNK         0.1400 
    116 CB        -4.4973  -19.8857  -58.1254 C.3       21 UNK        -0.1800 
    117 C         -6.2876  -21.0953  -56.7231 C.2       21 UNK         0.5000 
    118 O         -6.9808  -21.2425  -57.7312 O.2       21 UNK        -0.5000 
    119 N         -6.7491  -21.2645  -55.4787 N.am      22 UNK        -0.5000 
    120 CA        -8.1198  -21.6518  -55.1113 C.3       22 UNK         0.1400 
    121 C         -8.4077  -23.1810  -55.1856 C.2       22 UNK         0.5000 
    122 N         -7.4212  -24.0361  -55.4282 N.am      22 UNK        -0.7600 
    123 O         -9.5535  -23.5988  -55.0398 O.2       22 UNK        -0.5000 
    124 C124       -8.5269  -21.0432  -53.7430 C.3       23 UNK        -0.0398 
    125 S125       -7.3548  -21.4249  -52.3960 S.3       23 UNK        -0.2404 
    126 C126       -8.0002  -20.3659  -51.0681 C.3       23 UNK        -0.0205 
    127 H127       -1.4221  -10.4497  -48.7970 H         1 UNK         0.0600 
    128 H128       -1.3103  -11.2627  -50.3609 H         1 UNK         0.0600 
    129 H129       -2.8340  -10.5266  -49.8562 H         1 UNK         0.0600 
    130 H130       -1.3209  -13.4612  -50.1551 H         1 UNK         0.3000 
    131 H131       -1.7511  -15.5131  -49.6740 H         1 UNK         0.0600 
    132 H132       -4.1377  -15.1319  -47.8433 H         1 UNK         0.0800 
    133 H133       -4.2943  -14.5304  -49.4594 H         1 UNK         0.0800 
    134 H134       -5.5398  -17.1063  -47.5929 H         1 UNK         0.0800 
    135 H135       -4.0127  -17.9432  -47.3838 H         1 UNK         0.0800 
    136 H136       -6.5281  -18.2537  -50.1804 H         1 UNK         0.1150 
    137 H137       -7.3912  -22.3547  -49.3104 H         1 UNK         0.1150 
    138 H138       -4.7353  -20.1421  -46.7758 H         1 UNK         0.1150 
    139 H139       -5.8611  -22.2887  -46.0123 H         1 UNK         0.0800 
    140 H140       -6.7848  -23.2306  -47.1427 H         1 UNK         0.0800 
    141 H141       -3.9346  -23.1053  -45.1995 H         1 UNK         0.0800 
    142 H142       -2.7351  -24.1501  -45.8683 H         1 UNK         0.0800 
    143 H143       -2.8339  -21.4982  -47.2318 H         1 UNK         0.0600 
    144 H144       -2.7659  -21.4058  -44.3627 H         1 UNK         0.3000 
    145 H145       -1.2859  -18.4404  -43.9968 H         1 UNK         0.0600 
    146 H146       -3.2113  -16.8851  -43.7538 H         1 UNK         0.0600 
    147 H147       -2.7885  -17.0954  -45.4441 H         1 UNK         0.0600 
    148 H148       -4.1955  -17.9081  -44.7982 H         1 UNK         0.0600 
    149 H149       -2.0085  -19.5466  -42.2471 H         1 UNK         0.3000 
    150 H150       -3.9790  -19.9139  -40.5399 H         1 UNK         0.0600 
    151 H151       -6.1649  -20.8760  -41.1720 H         1 UNK         0.0600 
    152 H152       -5.3097  -21.9927  -40.1206 H         1 UNK         0.0600 
    153 H153       -5.3915  -22.2990  -41.8548 H         1 UNK         0.0600 
    154 H154       -2.2313  -21.2548  -40.2650 H         1 UNK         0.3000 
    155 H155       -1.2172  -23.6722  -40.4192 H         1 UNK         0.0600 
    156 H156        0.3968  -24.7063  -42.0611 H         1 UNK         0.0600 
    157 H157       -0.4686  -23.9109  -43.3754 H         1 UNK         0.0600 
    158 H158       -1.2795  -25.1165  -42.3936 H         1 UNK         0.0600 
    159 H159        0.4257  -22.2074  -40.2455 H         1 UNK         0.3000 
    160 H160        1.6838  -20.4991  -40.4393 H         1 UNK         0.0600 
    161 H161        2.8445  -20.4292  -43.2776 H         1 UNK         0.0600 
    162 H162        3.1977  -21.6590  -42.0688 H         1 UNK         0.0600 
    163 H163        3.6940  -19.9960  -41.7962 H         1 UNK         0.0600 
    164 H164        1.9175  -18.3469  -42.1638 H         1 UNK         0.3000 
    165 H165       -0.0125  -16.7517  -42.7463 H         1 UNK         0.0600 
    166 H166       -1.4288  -16.2154  -40.0867 H         1 UNK         0.0600 
    167 H167       -1.4665  -15.1766  -41.5092 H         1 UNK         0.0600 
    168 H168       -2.2072  -16.7655  -41.5634 H         1 UNK         0.0600 
    169 H169        0.8246  -15.3335  -40.4182 H         1 UNK         0.3000 
    170 H170        2.6308  -14.1145  -40.5373 H         1 UNK         0.0600 
    171 H171        3.8828  -15.9573  -39.3528 H         1 UNK         0.0600 
    172 H172        4.9686  -16.1087  -40.7297 H         1 UNK         0.0600 
    173 H173        4.9540  -14.6301  -39.7702 H         1 UNK         0.0600 
    174 H174        3.7231  -14.6450  -43.1271 H         1 UNK         0.3000 
    175 H175        4.8424  -11.3116  -43.5545 H         1 UNK         0.0600 
    176 H176        6.5965  -13.8184  -43.7403 H         1 UNK         0.0600 
    177 H177        6.8556  -12.3054  -44.6103 H         1 UNK         0.0600 
    178 H178        6.9988  -12.3490  -42.8605 H         1 UNK         0.0600 
    179 H179        4.6731  -13.6619  -45.2524 H         1 UNK         0.3000 
    180 H180        2.4428  -12.4210  -47.1996 H         1 UNK         0.0600 
    181 H181        4.2004  -14.1379  -47.2179 H         1 UNK         0.0600 
    182 H182        3.2852  -15.1651  -46.1150 H         1 UNK         0.0600 
    183 H183        2.6983  -14.8698  -47.7454 H         1 UNK         0.0600 
    184 H184        0.3549  -13.1126  -46.8861 H         1 UNK         0.3000 
    185 H185       -1.1809  -15.5346  -44.8862 H         1 UNK         0.0600 
    186 H186       -1.6934  -12.5262  -44.6207 H         1 UNK         0.0600 
    187 H187       -2.7934  -13.8253  -44.1564 H         1 UNK         0.0600 
    188 H188       -1.2861  -13.5914  -43.2835 H         1 UNK         0.0600 
    189 H189       -2.2424  -13.5833  -46.7250 H         1 UNK         0.3000 
    190 H190       -0.3612  -22.3898  -44.8363 H         1 UNK         0.3000 
    191 H191        1.4097  -23.5472  -46.8797 H         1 UNK         0.0600 
    192 H192        3.0353  -23.7244  -45.0177 H         1 UNK         0.0600 
    193 H193        1.5079  -24.4832  -44.6109 H         1 UNK         0.0600 
    194 H194        1.9226  -22.9075  -43.9357 H         1 UNK         0.0600 
    195 H195        0.8598  -20.4464  -45.2686 H         1 UNK         0.3000 
    196 H196        3.1654  -19.0567  -46.2332 H         1 UNK         0.0600 
    197 H197        1.9165  -17.0419  -45.6538 H         1 UNK         0.0600 
    198 H198        1.6308  -18.2384  -44.4027 H         1 UNK         0.0600 
    199 H199        0.3944  -17.9068  -45.6156 H         1 UNK         0.0600 
    200 H200       -0.0517  -19.6765  -47.6334 H         1 UNK         0.3000 
    201 H201        0.4978  -18.4006  -50.1740 H         1 UNK         0.0600 
    202 H202       -1.7756  -18.5555  -49.1392 H         1 UNK         0.0600 
    203 H203       -1.7490  -20.3032  -49.3267 H         1 UNK         0.0600 
    204 H204       -1.7398  -19.2587  -50.7471 H         1 UNK         0.0600 
    205 H205        2.1202  -20.9093  -49.0644 H         1 UNK         0.3000 
    206 H206        3.3010  -22.5865  -49.8671 H         1 UNK         0.0600 
    207 H207        3.9790  -20.9189  -51.5848 H         1 UNK         0.0600 
    208 H208        3.9813  -22.5451  -52.2472 H         1 UNK         0.0600 
    209 H209        2.6702  -21.4428  -52.6408 H         1 UNK         0.0600 
    210 H210        0.8640  -23.3490  -49.0622 H         1 UNK         0.3000 
    211 H211       -0.5622  -25.0295  -48.9611 H         1 UNK         0.0600 
    212 H212        0.9095  -26.4185  -51.2609 H         1 UNK         0.0600 
    213 H213       -0.2324  -27.1478  -50.1444 H         1 UNK         0.0600 
    214 H214        1.3196  -26.5764  -49.5532 H         1 UNK         0.0600 
    215 H215       -1.2221  -22.7504  -50.1290 H         1 UNK         0.3000 
    216 H216       -2.7195  -21.6169  -51.2679 H         1 UNK         0.0600 
    217 H217       -4.1033  -24.2804  -51.8677 H         1 UNK         0.0600 
    218 H218       -4.8160  -22.6858  -52.0139 H         1 UNK         0.0600 
    219 H219       -4.3535  -23.2816  -50.4348 H         1 UNK         0.0600 
    220 H220       -0.3683  -23.0644  -52.8255 H         1 UNK         0.3000 
    221 H221       -1.2214  -23.1118  -55.5637 H         1 UNK         0.0600 
    222 H222        1.5952  -22.8048  -54.4028 H         1 UNK         0.0600 
    223 H223        0.7880  -24.3390  -54.7272 H         1 UNK         0.0600 
    224 H224        1.1964  -23.2599  -56.0532 H         1 UNK         0.0600 
    225 H225        0.0631  -20.5444  -53.4468 H         1 UNK         0.3000 
    226 H226        0.3596  -18.5916  -55.6023 H         1 UNK         0.0600 
    227 H227        1.7543  -18.5570  -53.4955 H         1 UNK         0.0600 
    228 H228        0.8981  -17.0471  -53.7775 H         1 UNK         0.0600 
    229 H229        0.3020  -18.1744  -52.5701 H         1 UNK         0.0600 
    230 H230       -2.1734  -19.6452  -53.4107 H         1 UNK         0.3000 
    231 H231       -3.9309  -17.3542  -53.7703 H         1 UNK         0.0600 
    232 H232       -4.5327  -20.1596  -52.6830 H         1 UNK         0.0600 
    233 H233       -3.9830  -18.8002  -51.7154 H         1 UNK         0.0600 
    234 H234       -5.5430  -18.7329  -52.5188 H         1 UNK         0.0600 
    235 H235       -3.6003  -20.6212  -55.1289 H         1 UNK         0.3000 
    236 H236       -4.2547  -21.6515  -56.9450 H         1 UNK         0.0600 
    237 H237       -3.4380  -19.6357  -58.1895 H         1 UNK         0.0600 
    238 H238       -4.7519  -20.4465  -59.0254 H         1 UNK         0.0600 
    239 H239       -5.0647  -18.9552  -58.1498 H         1 UNK         0.0600 
    240 H240       -6.1093  -21.1432  -54.7068 H         1 UNK         0.3000 
    241 H241       -8.7889  -21.2098  -55.8520 H         1 UNK         0.0600 
    242 H242       -6.4766  -23.7071  -55.5447 H         1 UNK         0.3800 
    243 H243       -7.6205  -25.0226  -55.4814 H         1 UNK         0.3800 
    244 H244       -9.5277  -21.3651  -53.4499 H         1 UNK         0.0800 
    245 H245       -8.5825  -19.9584  -53.8431 H         1 UNK         0.0800 
    246 H246       -8.9701  -20.7446  -50.7427 H         1 UNK         0.0800 
    247 H247       -8.1737  -19.3624  -51.4596 H         1 UNK         0.0800 
@<TRIPOS>BOND
     1    1    2 1    
     2    1  127 1    
     3    1  128 1    
     4    1  129 1    
     5    2    3 2    
     6    2    4 am   BACKBONE|DICT|INTERRES
     7    4    5 1    
     8    4  130 1    
     9    5    6 1    
    10    5   65 1    
    11    5  131 1    
    12    6    7 1    
    13    6  132 1    
    14    6  133 1    
    15    7    8 1    
    16    8    9 1    
    17    8  134 1    
    18    8  135 1    
    19    9   10 ar   
    20    9   14 ar   
    21   10   11 ar   
    22   10  136 1    
    23   11   12 ar   
    24   11  126 1    
    25   12   13 ar   
    26   12  137 1    
    27   13   14 ar   
    28   13   15 1    
    29   14  138 1    
    30   15   16 1    
    31   15  139 1    
    32   15  140 1    
    33   16   17 1    
    34   17   18 1    
    35   17  141 1    
    36   17  142 1    
    37   18   19 1    
    38   18   67 1    
    39   18  143 1    
    40   19   20 am   BACKBONE|DICT|INTERRES
    41   19  144 1    
    42   20   21 2    
    43   20   22 1    
    44   22   23 1    
    45   22   24 1    
    46   22  145 1    
    47   23  146 1    
    48   23  147 1    
    49   23  148 1    
    50   24   25 am   BACKBONE|DICT|INTERRES
    51   24  149 1    
    52   25   26 2    
    53   25   27 1    
    54   27   28 1    
    55   27   29 1    
    56   27  150 1    
    57   28  151 1    
    58   28  152 1    
    59   28  153 1    
    60   29   30 am   BACKBONE|DICT|INTERRES
    61   29  154 1    
    62   30   31 2    
    63   30   32 1    
    64   32   33 1    
    65   32   34 1    
    66   32  155 1    
    67   33  156 1    
    68   33  157 1    
    69   33  158 1    
    70   34   35 am   BACKBONE|DICT|INTERRES
    71   34  159 1    
    72   35   36 2    
    73   35   37 1    
    74   37   38 1    
    75   37   39 1    
    76   37  160 1    
    77   38  161 1    
    78   38  162 1    
    79   38  163 1    
    80   39   40 am   BACKBONE|DICT|INTERRES
    81   39  164 1    
    82   40   41 2    
    83   40   42 1    
    84   42   43 1    
    85   42   44 1    
    86   42  165 1    
    87   43  166 1    
    88   43  167 1    
    89   43  168 1    
    90   44   45 am   BACKBONE|DICT|INTERRES
    91   44  169 1    
    92   45   46 2    
    93   45   47 1    
    94   47   48 1    
    95   47   49 1    
    96   47  170 1    
    97   48  171 1    
    98   48  172 1    
    99   48  173 1    
   100   49   50 am   BACKBONE|DICT|INTERRES
   101   49  174 1    
   102   50   51 2    
   103   50   52 1    
   104   52   53 1    
   105   52   54 1    
   106   52  175 1    
   107   53  176 1    
   108   53  177 1    
   109   53  178 1    
   110   54   55 am   BACKBONE|DICT|INTERRES
   111   54  179 1    
   112   55   56 2    
   113   55   57 1    
   114   57   58 1    
   115   57   59 1    
   116   57  180 1    
   117   58  181 1    
   118   58  182 1    
   119   58  183 1    
   120   59   60 am   BACKBONE|DICT|INTERRES
   121   59  184 1    
   122   60   61 2    
   123   60   62 1    
   124   62   63 1    
   125   62   64 1    
   126   62  185 1    
   127   63  186 1    
   128   63  187 1    
   129   63  188 1    
   130   64   65 am   BACKBONE|DICT|INTERRES
   131   64  189 1    
   132   65   66 2    
   133   67   68 2    
   134   67   69 am   BACKBONE|DICT|INTERRES
   135   69   70 1    
   136   69  190 1    
   137   70   71 1    
   138   70   72 1    
   139   70  191 1    
   140   71  192 1    
   141   71  193 1    
   142   71  194 1    
   143   72   73 2    
   144   72   74 am   BACKBONE|DICT|INTERRES
   145   74   75 1    
   146   74  195 1    
   147   75   76 1    
   148   75   77 1    
   149   75  196 1    
   150   76  197 1    
   151   76  198 1    
   152   76  199 1    
   153   77   78 2    
   154   77   79 am   BACKBONE|DICT|INTERRES
   155   79   80 1    
   156   79  200 1    
   157   80   81 1    
   158   80   82 1    
   159   80  201 1    
   160   81  202 1    
   161   81  203 1    
   162   81  204 1    
   163   82   83 2    
   164   82   84 am   BACKBONE|DICT|INTERRES
   165   84   85 1    
   166   84  205 1    
   167   85   86 1    
   168   85   87 1    
   169   85  206 1    
   170   86  207 1    
   171   86  208 1    
   172   86  209 1    
   173   87   88 2    
   174   87   89 am   BACKBONE|DICT|INTERRES
   175   89   90 1    
   176   89  210 1    
   177   90   91 1    
   178   90   92 1    
   179   90  211 1    
   180   91  212 1    
   181   91  213 1    
   182   91  214 1    
   183   92   93 2    
   184   92   94 am   BACKBONE|DICT|INTERRES
   185   94   95 1    
   186   94  215 1    
   187   95   96 1    
   188   95   97 1    
   189   95  216 1    
   190   96  217 1    
   191   96  218 1    
   192   96  219 1    
   193   97   98 2    
   194   97   99 am   BACKBONE|DICT|INTERRES
   195   99  100 1    
   196   99  220 1    
   197  100  101 1    
   198  100  102 1    
   199  100  221 1    
   200  101  222 1    
   201  101  223 1    
   202  101  224 1    
   203  102  103 2    
   204  102  104 am   BACKBONE|DICT|INTERRES
   205  104  105 1    
   206  104  225 1    
   207  105  106 1    
   208  105  107 1    
   209  105  226 1    
   210  106  227 1    
   211  106  228 1    
   212  106  229 1    
   213  107  108 2    
   214  107  109 am   BACKBONE|DICT|INTERRES
   215  109  110 1    
   216  109  230 1    
   217  110  111 1    
   218  110  112 1    
   219  110  231 1    
   220  111  232 1    
   221  111  233 1    
   222  111  234 1    
   223  112  113 2    
   224  112  114 am   BACKBONE|DICT|INTERRES
   225  114  115 1    
   226  114  235 1    
   227  115  116 1    
   228  115  117 1    
   229  115  236 1    
   230  116  237 1    
   231  116  238 1    
   232  116  239 1    
   233  117  118 2    
   234  117  119 am   BACKBONE|DICT|INTERRES
   235  119  120 1    
   236  119  240 1    
   237  120  121 1    
   238  120  124 1    
   239  120  241 1    
   240  121  122 am   BACKBONE|DICT|INTERRES
   241  121  123 2    
   242  122  242 1    
   243  122  243 1    
   244  124  125 1    
   245  124  244 1    
   246  124  245 1    
   247  125  126 1    
   248  126  246 1    
   249  126  247 1    
@<TRIPOS>SUBSTRUCTURE
     1 UNK         1 GROUP             0       ****    0 ROOT    
