@<TRIPOS>MOLECULE
3R540
247   249    1
SMALL
USER_CHARGES


@<TRIPOS>ATOM
      1 CA         -1.1709  -16.5118  -45.4434 C.3       0 UNK        -0.1800 
      2 C          -0.7021  -15.1602  -44.9340 C.2       0 UNK         0.5000 
      3 O           0.4912  -14.9759  -44.7025 O.2       0 UNK        -0.5000 
      4 N          -1.6263  -14.2039  -44.7718 N.am      1 UNK        -0.5000 
      5 CA         -1.3247  -12.8245  -44.3600 C.3       1 UNK         0.1400 
      6 C6         -2.5909  -12.0459  -43.9252 C.3       23 UNK        -0.0398 
      7 S7         -3.2969  -12.6880  -42.3671 S.3       23 UNK        -0.2404 
      8 C8         -4.9881  -13.1572  -42.8526 C.3       23 UNK        -0.0205 
      9 C9         -5.0036  -14.4264  -43.6879 C.ar      23 UNK        -0.0193 
     10 C10        -5.1426  -14.3545  -45.0761 C.ar      23 UNK        -0.1150 
     11 C11        -5.1192  -15.5173  -45.8496 C.ar      23 UNK        -0.0193 
     12 C12        -4.9827  -16.7598  -45.2258 C.ar      23 UNK        -0.1150 
     13 C13        -4.8406  -16.8431  -43.8383 C.ar      23 UNK        -0.0193 
     14 C14        -4.8595  -15.6739  -43.0728 C.ar      23 UNK        -0.1150 
     15 C15        -4.6259  -18.1939  -43.1779 C.3       23 UNK        -0.0205 
     16 S16        -2.8497  -18.5453  -43.0017 S.3       23 UNK        -0.2404 
     17 C17        -2.8768  -20.3463  -42.7387 C.3       23 UNK        -0.0398 
     18 CA         -2.6287  -21.1369  -44.0472 C.3       11 UNK         0.1400 
     19 N          -1.3571  -20.8082  -44.7027 N.am      11 UNK        -0.5000 
     20 C          -1.0464  -21.1409  -45.9642 C.2       10 UNK         0.5000 
     21 O          -1.8296  -21.6970  -46.7335 O.2       10 UNK        -0.5000 
     22 CA          0.3919  -20.8581  -46.4357 C.3       10 UNK         0.1400 
     23 CB          0.5008  -19.4778  -47.0986 C.3       10 UNK        -0.1800 
     24 N           1.3674  -20.9738  -45.3494 N.am      10 UNK        -0.5000 
     25 C           1.7408  -22.1460  -44.8116 C.2       9 UNK         0.5000 
     26 O           1.3357  -23.2352  -45.2158 O.2       9 UNK        -0.5000 
     27 CA          2.6739  -22.1000  -43.5839 C.3       9 UNK         0.1400 
     28 CB          4.1435  -22.0610  -44.0271 C.3       9 UNK        -0.1800 
     29 N           2.4086  -20.9628  -42.7023 N.am      9 UNK        -0.5000 
     30 C           1.2377  -20.7115  -42.1014 C.2       8 UNK         0.5000 
     31 O           0.2905  -21.4966  -42.1195 O.2       8 UNK        -0.5000 
     32 CA          1.0631  -19.3390  -41.4169 C.3       8 UNK         0.1400 
     33 CB          1.0862  -19.4974  -39.8896 C.3       8 UNK        -0.1800 
     34 N           2.0395  -18.3123  -41.8050 N.am      8 UNK        -0.5000 
     35 C           2.2727  -17.8717  -43.0491 C.2       7 UNK         0.5000 
     36 O           1.7243  -18.3337  -44.0554 O.2       7 UNK        -0.5000 
     37 CA          3.3450  -16.7821  -43.1898 C.3       7 UNK         0.1400 
     38 CB          4.7428  -17.3315  -42.8436 C.3       7 UNK        -0.1800 
     39 N           3.3335  -16.3105  -44.5648 N.am      7 UNK        -0.5000 
     40 C           3.8335  -15.1602  -45.0250 C.2       6 UNK         0.5000 
     41 O           4.3772  -14.3140  -44.3118 O.2       6 UNK        -0.5000 
     42 CA          3.7200  -14.9500  -46.5514 C.3       6 UNK         0.1400 
     43 CB          4.6242  -13.8201  -47.0832 C.3       6 UNK        -0.1800 
     44 N           3.9390  -16.1868  -47.3131 N.am      6 UNK        -0.5000 
     45 C           5.0117  -16.9962  -47.2714 C.2       5 UNK         0.5000 
     46 O           6.0262  -16.7634  -46.6132 O.2       5 UNK        -0.5000 
     47 CA          4.9355  -18.3099  -48.0768 C.3       5 UNK         0.1400 
     48 CB          4.5870  -19.4793  -47.1403 C.3       5 UNK        -0.1800 
     49 N           3.9599  -18.2664  -49.1674 N.am      5 UNK        -0.5000 
     50 C           4.1226  -17.5771  -50.3042 C.2       4 UNK         0.5000 
     51 O           5.1540  -16.9656  -50.5892 O.2       4 UNK        -0.5000 
     52 CA          2.9295  -17.5269  -51.2825 C.3       4 UNK         0.1400 
     53 CB          1.7809  -18.5046  -50.9407 C.3       4 UNK        -0.1800 
     54 N           2.4242  -16.1562  -51.4189 N.am      4 UNK        -0.5000 
     55 C           1.9657  -15.3663  -50.4362 C.2       3 UNK         0.5000 
     56 O           1.8593  -15.7377  -49.2647 O.2       3 UNK        -0.5000 
     57 CA          1.5884  -13.9279  -50.8549 C.3       3 UNK         0.1400 
     58 CB          0.4341  -13.9195  -51.8800 C.3       3 UNK        -0.1800 
     59 N           1.2943  -13.0245  -49.7322 N.am      3 UNK        -0.5000 
     60 C           0.2648  -13.0899  -48.8763 C.2       2 UNK         0.5000 
     61 O          -0.6193  -13.9475  -48.9099 O.2       2 UNK        -0.5000 
     62 CA          0.1864  -11.9813  -47.8183 C.3       2 UNK         0.1400 
     63 CB         -0.4689  -10.7132  -48.3939 C.3       2 UNK        -0.1800 
     64 N          -0.5958  -12.4801  -46.6943 N.am      2 UNK        -0.5000 
     65 C          -0.5334  -12.0384  -45.4332 C.2       1 UNK         0.5000 
     66 O           0.1341  -11.0610  -45.0911 O.2       1 UNK        -0.5000 
     67 C          -2.7338  -22.6521  -43.7906 C.2       11 UNK         0.5000 
     68 O          -3.7736  -23.2432  -44.0796 O.2       11 UNK        -0.5000 
     69 N          -1.6417  -23.2612  -43.3048 N.am      12 UNK        -0.5000 
     70 CA         -1.5117  -24.7038  -43.0810 C.3       12 UNK         0.1400 
     71 CB         -0.1859  -24.9898  -42.3603 C.3       12 UNK        -0.1800 
     72 C          -1.6172  -25.5247  -44.3812 C.2       12 UNK         0.5000 
     73 O          -2.2288  -26.5932  -44.3795 O.2       12 UNK        -0.5000 
     74 N          -1.0620  -24.9861  -45.4752 N.am      13 UNK        -0.5000 
     75 CA         -1.1774  -25.5257  -46.8316 C.3       13 UNK         0.1400 
     76 CB         -0.0389  -24.9501  -47.6893 C.3       13 UNK        -0.1800 
     77 C          -2.5403  -25.2418  -47.4979 C.2       13 UNK         0.5000 
     78 O          -2.7701  -25.7275  -48.6060 O.2       13 UNK        -0.5000 
     79 N          -3.4001  -24.4412  -46.8490 N.am      14 UNK        -0.5000 
     80 CA         -4.7163  -23.9860  -47.3073 C.3       14 UNK         0.1400 
     81 CB         -5.7141  -25.1626  -47.3311 C.3       14 UNK        -0.1800 
     82 C          -4.6424  -23.2306  -48.6493 C.2       14 UNK         0.5000 
     83 O          -5.4189  -23.5165  -49.5610 O.2       14 UNK        -0.5000 
     84 N          -3.6691  -22.3134  -48.7586 N.am      15 UNK        -0.5000 
     85 CA         -3.3077  -21.5525  -49.9601 C.3       15 UNK         0.1400 
     86 CB         -4.4219  -20.5526  -50.3285 C.3       15 UNK        -0.1800 
     87 C          -2.9061  -22.4810  -51.1260 C.2       15 UNK         0.5000 
     88 O          -3.3768  -22.3135  -52.2521 O.2       15 UNK        -0.5000 
     89 N          -2.0725  -23.4828  -50.8037 N.am      16 UNK        -0.5000 
     90 CA         -1.6199  -24.5735  -51.6743 C.3       16 UNK         0.1400 
     91 CB         -0.6929  -24.0307  -52.7830 C.3       16 UNK        -0.1800 
     92 C          -2.8033  -25.3985  -52.2221 C.2       16 UNK         0.5000 
     93 O          -2.9056  -25.6064  -53.4304 O.2       16 UNK        -0.5000 
     94 N          -3.7069  -25.8045  -51.3178 N.am      17 UNK        -0.5000 
     95 CA         -4.9947  -26.4565  -51.5897 C.3       17 UNK         0.1400 
     96 CB         -4.7779  -27.8990  -52.0912 C.3       17 UNK        -0.1800 
     97 C          -5.8932  -25.6145  -52.5247 C.2       17 UNK         0.5000 
     98 O          -6.4700  -26.1375  -53.4800 O.2       17 UNK        -0.5000 
     99 N          -5.9577  -24.3088  -52.2314 N.am      18 UNK        -0.5000 
    100 CA        -6.6599  -23.2420  -52.9495 C.3       18 UNK         0.1400 
    101 CB        -8.1854  -23.4670  -52.9005 C.3       18 UNK        -0.1800 
    102 C         -6.1464  -22.9700  -54.3818 C.2       18 UNK         0.5000 
    103 O         -6.8461  -22.3099  -55.1529 O.2       18 UNK        -0.5000 
    104 N         -4.9452  -23.4562  -54.7270 N.am      19 UNK        -0.5000 
    105 CA        -4.3083  -23.2069  -56.0214 C.3       19 UNK         0.1400 
    106 CB        -3.2615  -24.2935  -56.3061 C.3       19 UNK        -0.1800 
    107 C         -3.6635  -21.8117  -56.1027 C.2       19 UNK         0.5000 
    108 O         -3.6025  -21.2435  -57.1944 O.2       19 UNK        -0.5000 
    109 N         -3.1926  -21.2863  -54.9647 N.am      20 UNK        -0.5000 
    110 CA        -2.6157  -19.9509  -54.8471 C.3       20 UNK         0.1400 
    111 CB        -1.4325  -20.0017  -53.8666 C.3       20 UNK        -0.1800 
    112 C         -3.6783  -18.9546  -54.3578 C.2       20 UNK         0.5000 
    113 O         -4.6432  -19.3407  -53.6930 O.2       20 UNK        -0.5000 
    114 N         -3.4626  -17.6730  -54.6703 N.am      21 UNK        -0.5000 
    115 CA        -4.2449  -16.5536  -54.1553 C.3       21 UNK         0.1400 
    116 CB        -4.2384  -15.4200  -55.1968 C.3       21 UNK        -0.1800 
    117 C         -3.6459  -16.1196  -52.8066 C.2       21 UNK         0.5000 
    118 O         -2.8167  -15.2094  -52.7731 O.2       21 UNK        -0.5000 
    119 N         -4.0411  -16.8173  -51.7340 N.am      22 UNK        -0.5000 
    120 CA        -3.4744  -16.6977  -50.3814 C.3       22 UNK         0.1400 
    121 C         -2.0309  -17.2888  -50.3139 C.2       22 UNK         0.5000 
    122 N         -1.0697  -16.6380  -49.6779 N.am      22 UNK        -0.7600 
    123 O         -1.7869  -18.3869  -50.8058 O.2       22 UNK        -0.5000 
    124 C124       -3.6721  -15.2733  -49.7806 C.3       23 UNK        -0.0398 
    125 S125       -3.4633  -15.2070  -47.9718 S.3       23 UNK        -0.2404 
    126 C126       -5.1565  -15.4254  -47.3632 C.3       23 UNK        -0.0205 
    127 H127       -0.8426  -16.6545  -46.4729 H         1 UNK         0.0600 
    128 H128       -2.2550  -16.5978  -45.4188 H         1 UNK         0.0600 
    129 H129       -0.7543  -17.3093  -44.8292 H         1 UNK         0.0600 
    130 H130       -2.5987  -14.4145  -44.9517 H         1 UNK         0.3000 
    131 H131       -0.6645  -12.8855  -43.4918 H         1 UNK         0.0600 
    132 H132       -2.3527  -10.9954  -43.7475 H         1 UNK         0.0800 
    133 H133       -3.3392  -12.0520  -44.7184 H         1 UNK         0.0800 
    134 H134       -5.5811  -13.3144  -41.9504 H         1 UNK         0.0800 
    135 H135       -5.4616  -12.3314  -43.3861 H         1 UNK         0.0800 
    136 H136       -5.2377  -13.3928  -45.5607 H         1 UNK         0.1150 
    137 H137       -4.9404  -17.6588  -45.8248 H         1 UNK         0.1150 
    138 H138       -4.7351  -15.7323  -42.0005 H         1 UNK         0.1150 
    139 H139       -5.1024  -18.2172  -42.1967 H         1 UNK         0.0800 
    140 H140       -5.1002  -18.9753  -43.7737 H         1 UNK         0.0800 
    141 H141       -3.8359  -20.6246  -42.2977 H         1 UNK         0.0800 
    142 H142       -2.1249  -20.5869  -41.9870 H         1 UNK         0.0800 
    143 H143       -3.4295  -20.8752  -44.7427 H         1 UNK         0.0600 
    144 H144       -0.6546  -20.3669  -44.1288 H         1 UNK         0.3000 
    145 H145        0.6338  -21.6042  -47.1952 H         1 UNK         0.0600 
    146 H146        0.4118  -18.6756  -46.3694 H         1 UNK         0.0600 
    147 H147        1.4574  -19.3611  -47.6047 H         1 UNK         0.0600 
    148 H148       -0.2804  -19.3338  -47.8470 H         1 UNK         0.0600 
    149 H149        1.6859  -20.1063  -44.9276 H         1 UNK         0.3000 
    150 H150        2.5115  -23.0134  -43.0085 H         1 UNK         0.0600 
    151 H151        4.3764  -22.9007  -44.6834 H         1 UNK         0.0600 
    152 H152        4.8155  -22.1227  -43.1710 H         1 UNK         0.0600 
    153 H153        4.3754  -21.1446  -44.5706 H         1 UNK         0.0600 
    154 H154        3.1317  -20.2628  -42.6367 H         1 UNK         0.3000 
    155 H155        0.0773  -18.9688  -41.7051 H         1 UNK         0.0600 
    156 H156        0.3475  -20.2296  -39.5600 H         1 UNK         0.0600 
    157 H157        0.8514  -18.5569  -39.3910 H         1 UNK         0.0600 
    158 H158        2.0618  -19.8329  -39.5355 H         1 UNK         0.0600 
    159 H159        2.5544  -17.8917  -41.0448 H         1 UNK         0.3000 
    160 H160        3.0878  -15.9564  -42.5235 H         1 UNK         0.0600 
    161 H161        5.5080  -16.5621  -42.9474 H         1 UNK         0.0600 
    162 H162        5.0184  -18.1617  -43.4955 H         1 UNK         0.0600 
    163 H163        4.7881  -17.6893  -41.8146 H         1 UNK         0.0600 
    164 H164        2.8279  -16.9182  -45.1969 H         1 UNK         0.3000 
    165 H165        2.6853  -14.6574  -46.7380 H         1 UNK         0.0600 
    166 H166        5.6787  -14.0247  -46.8958 H         1 UNK         0.0600 
    167 H167        4.4930  -13.6868  -48.1571 H         1 UNK         0.0600 
    168 H168        4.3834  -12.8694  -46.6064 H         1 UNK         0.0600 
    169 H169        3.1766  -16.4289  -47.9387 H         1 UNK         0.3000 
    170 H170        5.9228  -18.4966  -48.5046 H         1 UNK         0.0600 
    171 H171        3.6375  -19.3201  -46.6287 H         1 UNK         0.0600 
    172 H172        4.5246  -20.4220  -47.6842 H         1 UNK         0.0600 
    173 H173        5.3517  -19.5991  -46.3717 H         1 UNK         0.0600 
    174 H174        3.0797  -18.7331  -49.0105 H         1 UNK         0.3000 
    175 H175        3.3228  -17.8122  -52.2593 H         1 UNK         0.0600 
    176 H176        1.3300  -18.2990  -49.9704 H         1 UNK         0.0600 
    177 H177        0.9877  -18.4474  -51.6867 H         1 UNK         0.0600 
    178 H178        2.1335  -19.5366  -50.9306 H         1 UNK         0.0600 
    179 H179        2.5056  -15.7624  -52.3453 H         1 UNK         0.3000 
    180 H180        2.4692  -13.5083  -51.3431 H         1 UNK         0.0600 
    181 H181       -0.4571  -14.4152  -51.4944 H         1 UNK         0.0600 
    182 H182        0.7133  -14.4343  -52.7994 H         1 UNK         0.0600 
    183 H183        0.1563  -12.9020  -52.1543 H         1 UNK         0.0600 
    184 H184        1.9691  -12.2851  -49.5991 H         1 UNK         0.3000 
    185 H185        1.1993  -11.7544  -47.4788 H         1 UNK         0.0600 
    186 H186       -0.5097   -9.9150  -47.6526 H         1 UNK         0.0600 
    187 H187        0.0937  -10.3335  -49.2475 H         1 UNK         0.0600 
    188 H188       -1.4874  -10.9089  -48.7317 H         1 UNK         0.0600 
    189 H189       -1.1319  -13.3135  -46.9076 H         1 UNK         0.3000 
    190 H190       -0.8445  -22.6872  -43.0413 H         1 UNK         0.3000 
    191 H191       -2.3293  -25.0123  -42.4263 H         1 UNK         0.0600 
    192 H192        0.6725  -24.7073  -42.9695 H         1 UNK         0.0600 
    193 H193       -0.1222  -24.4435  -41.4189 H         1 UNK         0.0600 
    194 H194       -0.0889  -26.0512  -42.1291 H         1 UNK         0.0600 
    195 H195       -0.5037  -24.1455  -45.3713 H         1 UNK         0.3000 
    196 H196       -1.0565  -26.6098  -46.7877 H         1 UNK         0.0600 
    197 H197        0.9347  -25.1704  -47.2510 H         1 UNK         0.0600 
    198 H198       -0.1222  -23.8680  -47.7922 H         1 UNK         0.0600 
    199 H199       -0.0442  -25.3789  -48.6919 H         1 UNK         0.0600 
    200 H200       -3.1193  -24.0814  -45.9455 H         1 UNK         0.3000 
    201 H201       -5.0706  -23.2649  -46.5696 H         1 UNK         0.0600 
    202 H202       -6.7204  -24.8169  -47.5701 H         1 UNK         0.0600 
    203 H203       -5.7628  -25.6551  -46.3599 H         1 UNK         0.0600 
    204 H204       -5.4410  -25.9128  -48.0736 H         1 UNK         0.0600 
    205 H205       -3.0620  -22.1592  -47.9536 H         1 UNK         0.3000 
    206 H206       -2.4178  -20.9745  -49.7060 H         1 UNK         0.0600 
    207 H207       -4.6628  -19.9047  -49.4862 H         1 UNK         0.0600 
    208 H208       -5.3374  -21.0543  -50.6406 H         1 UNK         0.0600 
    209 H209       -4.1043  -19.9115  -51.1501 H         1 UNK         0.0600 
    210 H210       -1.7963  -23.5603  -49.8362 H         1 UNK         0.3000 
    211 H211       -1.0337  -25.2507  -51.0519 H         1 UNK         0.0600 
    212 H212        0.1432  -23.4744  -52.3596 H         1 UNK         0.0600 
    213 H213       -0.2749  -24.8455  -53.3750 H         1 UNK         0.0600 
    214 H214       -1.2215  -23.3678  -53.4688 H         1 UNK         0.0600 
    215 H215       -3.5089  -25.6168  -50.3373 H         1 UNK         0.3000 
    216 H216       -5.5167  -26.5131  -50.6335 H         1 UNK         0.0600 
    217 H217       -5.7280  -28.4258  -52.1863 H         1 UNK         0.0600 
    218 H218       -4.2926  -27.9209  -53.0674 H         1 UNK         0.0600 
    219 H219       -4.1600  -28.4680  -51.3965 H         1 UNK         0.0600 
    220 H220       -5.4839  -24.0003  -51.3852 H         1 UNK         0.3000 
    221 H221       -6.4482  -22.3303  -52.3901 H         1 UNK         0.0600 
    222 H222       -8.4872  -24.3269  -53.4991 H         1 UNK         0.0600 
    223 H223       -8.5263  -23.6320  -51.8784 H         1 UNK         0.0600 
    224 H224       -8.7234  -22.5988  -53.2826 H         1 UNK         0.0600 
    225 H225       -4.4118  -23.9819  -54.0452 H         1 UNK         0.3000 
    226 H226       -5.0699  -23.2696  -56.8015 H         1 UNK         0.0600 
    227 H227       -3.6914  -25.2917  -56.2204 H         1 UNK         0.0600 
    228 H228       -2.8648  -24.1942  -57.3171 H         1 UNK         0.0600 
    229 H229       -2.4175  -24.2287  -55.6189 H         1 UNK         0.0600 
    230 H230       -3.3503  -21.7746  -54.0858 H         1 UNK         0.3000 
    231 H231       -2.2401  -19.6171  -55.8166 H         1 UNK         0.0600 
    232 H232       -0.9348  -19.0334  -53.8013 H         1 UNK         0.0600 
    233 H233       -0.6870  -20.7317  -54.1819 H         1 UNK         0.0600 
    234 H234       -1.7538  -20.2655  -52.8591 H         1 UNK         0.0600 
    235 H235       -2.6305  -17.4287  -55.1878 H         1 UNK         0.3000 
    236 H236       -5.2828  -16.8550  -53.9965 H         1 UNK         0.0600 
    237 H237       -4.7101  -15.7390  -56.1264 H         1 UNK         0.0600 
    238 H238       -4.7919  -14.5540  -54.8319 H         1 UNK         0.0600 
    239 H239       -3.2266  -15.0880  -55.4331 H         1 UNK         0.0600 
    240 H240       -4.6604  -17.6026  -51.8822 H         1 UNK         0.3000 
    241 H241       -4.0724  -17.3773  -49.7738 H         1 UNK         0.0600 
    242 H242       -1.2102  -15.7059  -49.2940 H         1 UNK         0.3800 
    243 H243       -0.1457  -17.0327  -49.6378 H         1 UNK         0.3800 
    244 H244       -2.9740  -14.5656  -50.2294 H         1 UNK         0.0800 
    245 H245       -4.6680  -14.9003  -50.0220 H         1 UNK         0.0800 
    246 H246       -5.5928  -16.3291  -47.7916 H         1 UNK         0.0800 
    247 H247       -5.7783  -14.5875  -47.6819 H         1 UNK         0.0800 
@<TRIPOS>BOND
     1    1    2 1    
     2    1  127 1    
     3    1  128 1    
     4    1  129 1    
     5    2    3 2    
     6    2    4 am   BACKBONE|DICT|INTERRES
     7    4    5 1    
     8    4  130 1    
     9    5    6 1    
    10    5   65 1    
    11    5  131 1    
    12    6    7 1    
    13    6  132 1    
    14    6  133 1    
    15    7    8 1    
    16    8    9 1    
    17    8  134 1    
    18    8  135 1    
    19    9   10 ar   
    20    9   14 ar   
    21   10   11 ar   
    22   10  136 1    
    23   11   12 ar   
    24   11  126 1    
    25   12   13 ar   
    26   12  137 1    
    27   13   14 ar   
    28   13   15 1    
    29   14  138 1    
    30   15   16 1    
    31   15  139 1    
    32   15  140 1    
    33   16   17 1    
    34   17   18 1    
    35   17  141 1    
    36   17  142 1    
    37   18   19 1    
    38   18   67 1    
    39   18  143 1    
    40   19   20 am   BACKBONE|DICT|INTERRES
    41   19  144 1    
    42   20   21 2    
    43   20   22 1    
    44   22   23 1    
    45   22   24 1    
    46   22  145 1    
    47   23  146 1    
    48   23  147 1    
    49   23  148 1    
    50   24   25 am   BACKBONE|DICT|INTERRES
    51   24  149 1    
    52   25   26 2    
    53   25   27 1    
    54   27   28 1    
    55   27   29 1    
    56   27  150 1    
    57   28  151 1    
    58   28  152 1    
    59   28  153 1    
    60   29   30 am   BACKBONE|DICT|INTERRES
    61   29  154 1    
    62   30   31 2    
    63   30   32 1    
    64   32   33 1    
    65   32   34 1    
    66   32  155 1    
    67   33  156 1    
    68   33  157 1    
    69   33  158 1    
    70   34   35 am   BACKBONE|DICT|INTERRES
    71   34  159 1    
    72   35   36 2    
    73   35   37 1    
    74   37   38 1    
    75   37   39 1    
    76   37  160 1    
    77   38  161 1    
    78   38  162 1    
    79   38  163 1    
    80   39   40 am   BACKBONE|DICT|INTERRES
    81   39  164 1    
    82   40   41 2    
    83   40   42 1    
    84   42   43 1    
    85   42   44 1    
    86   42  165 1    
    87   43  166 1    
    88   43  167 1    
    89   43  168 1    
    90   44   45 am   BACKBONE|DICT|INTERRES
    91   44  169 1    
    92   45   46 2    
    93   45   47 1    
    94   47   48 1    
    95   47   49 1    
    96   47  170 1    
    97   48  171 1    
    98   48  172 1    
    99   48  173 1    
   100   49   50 am   BACKBONE|DICT|INTERRES
   101   49  174 1    
   102   50   51 2    
   103   50   52 1    
   104   52   53 1    
   105   52   54 1    
   106   52  175 1    
   107   53  176 1    
   108   53  177 1    
   109   53  178 1    
   110   54   55 am   BACKBONE|DICT|INTERRES
   111   54  179 1    
   112   55   56 2    
   113   55   57 1    
   114   57   58 1    
   115   57   59 1    
   116   57  180 1    
   117   58  181 1    
   118   58  182 1    
   119   58  183 1    
   120   59   60 am   BACKBONE|DICT|INTERRES
   121   59  184 1    
   122   60   61 2    
   123   60   62 1    
   124   62   63 1    
   125   62   64 1    
   126   62  185 1    
   127   63  186 1    
   128   63  187 1    
   129   63  188 1    
   130   64   65 am   BACKBONE|DICT|INTERRES
   131   64  189 1    
   132   65   66 2    
   133   67   68 2    
   134   67   69 am   BACKBONE|DICT|INTERRES
   135   69   70 1    
   136   69  190 1    
   137   70   71 1    
   138   70   72 1    
   139   70  191 1    
   140   71  192 1    
   141   71  193 1    
   142   71  194 1    
   143   72   73 2    
   144   72   74 am   BACKBONE|DICT|INTERRES
   145   74   75 1    
   146   74  195 1    
   147   75   76 1    
   148   75   77 1    
   149   75  196 1    
   150   76  197 1    
   151   76  198 1    
   152   76  199 1    
   153   77   78 2    
   154   77   79 am   BACKBONE|DICT|INTERRES
   155   79   80 1    
   156   79  200 1    
   157   80   81 1    
   158   80   82 1    
   159   80  201 1    
   160   81  202 1    
   161   81  203 1    
   162   81  204 1    
   163   82   83 2    
   164   82   84 am   BACKBONE|DICT|INTERRES
   165   84   85 1    
   166   84  205 1    
   167   85   86 1    
   168   85   87 1    
   169   85  206 1    
   170   86  207 1    
   171   86  208 1    
   172   86  209 1    
   173   87   88 2    
   174   87   89 am   BACKBONE|DICT|INTERRES
   175   89   90 1    
   176   89  210 1    
   177   90   91 1    
   178   90   92 1    
   179   90  211 1    
   180   91  212 1    
   181   91  213 1    
   182   91  214 1    
   183   92   93 2    
   184   92   94 am   BACKBONE|DICT|INTERRES
   185   94   95 1    
   186   94  215 1    
   187   95   96 1    
   188   95   97 1    
   189   95  216 1    
   190   96  217 1    
   191   96  218 1    
   192   96  219 1    
   193   97   98 2    
   194   97   99 am   BACKBONE|DICT|INTERRES
   195   99  100 1    
   196   99  220 1    
   197  100  101 1    
   198  100  102 1    
   199  100  221 1    
   200  101  222 1    
   201  101  223 1    
   202  101  224 1    
   203  102  103 2    
   204  102  104 am   BACKBONE|DICT|INTERRES
   205  104  105 1    
   206  104  225 1    
   207  105  106 1    
   208  105  107 1    
   209  105  226 1    
   210  106  227 1    
   211  106  228 1    
   212  106  229 1    
   213  107  108 2    
   214  107  109 am   BACKBONE|DICT|INTERRES
   215  109  110 1    
   216  109  230 1    
   217  110  111 1    
   218  110  112 1    
   219  110  231 1    
   220  111  232 1    
   221  111  233 1    
   222  111  234 1    
   223  112  113 2    
   224  112  114 am   BACKBONE|DICT|INTERRES
   225  114  115 1    
   226  114  235 1    
   227  115  116 1    
   228  115  117 1    
   229  115  236 1    
   230  116  237 1    
   231  116  238 1    
   232  116  239 1    
   233  117  118 2    
   234  117  119 am   BACKBONE|DICT|INTERRES
   235  119  120 1    
   236  119  240 1    
   237  120  121 1    
   238  120  124 1    
   239  120  241 1    
   240  121  122 am   BACKBONE|DICT|INTERRES
   241  121  123 2    
   242  122  242 1    
   243  122  243 1    
   244  124  125 1    
   245  124  244 1    
   246  124  245 1    
   247  125  126 1    
   248  126  246 1    
   249  126  247 1    
@<TRIPOS>SUBSTRUCTURE
     1 UNK         1 GROUP             0       ****    0 ROOT    
