@<TRIPOS>MOLECULE
3R540
247   249    1
SMALL
USER_CHARGES


@<TRIPOS>ATOM
      1 CA          6.7841  -12.6847  -48.6005 C.3       0 UNK        -0.1800 
      2 C           5.2656  -12.7822  -48.6040 C.2       0 UNK         0.5000 
      3 O           4.6598  -12.8547  -49.6728 O.2       0 UNK        -0.5000 
      4 N           4.6492  -12.7686  -47.4147 N.am      1 UNK        -0.5000 
      5 CA          3.2106  -12.9087  -47.1225 C.3       1 UNK         0.1400 
      6 C6          2.5861  -14.2391  -47.6199 C.3       23 UNK        -0.0398 
      7 S7          3.4018  -15.7020  -46.8905 S.3       23 UNK        -0.2404 
      8 C8          4.2973  -16.4079  -48.3095 C.3       23 UNK        -0.0205 
      9 C9          3.5004  -17.4933  -49.0198 C.ar      23 UNK        -0.0193 
     10 C10         2.4435  -17.1543  -49.8698 C.ar      23 UNK        -0.1150 
     11 C11         1.7326  -18.1450  -50.5534 C.ar      23 UNK        -0.0193 
     12 C12         2.1052  -19.4833  -50.4019 C.ar      23 UNK        -0.1150 
     13 C13         3.1705  -19.8368  -49.5707 C.ar      23 UNK        -0.0193 
     14 C14         3.8533  -18.8389  -48.8682 C.ar      23 UNK        -0.1150 
     15 C15         3.6202  -21.2889  -49.4824 C.3       23 UNK        -0.0205 
     16 S16         2.9240  -22.1520  -48.0428 S.3       23 UNK        -0.2404 
     17 C17         1.1627  -22.2702  -48.4981 C.3       23 UNK        -0.0398 
     18 CA          0.4098  -23.2900  -47.6122 C.3       11 UNK         0.1400 
     19 N           0.3456  -22.8817  -46.2036 N.am      11 UNK        -0.5000 
     20 C          -0.0975  -23.6589  -45.2052 C.2       10 UNK         0.5000 
     21 O          -0.4543  -24.8259  -45.3596 O.2       10 UNK        -0.5000 
     22 CA         -0.2191  -23.0162  -43.8114 C.3       10 UNK         0.1400 
     23 CB          1.1395  -22.9738  -43.0965 C.3       10 UNK        -0.1800 
     24 N          -0.8033  -21.6758  -43.8654 N.am      10 UNK        -0.5000 
     25 C          -2.0613  -21.4195  -44.2523 C.2       9 UNK         0.5000 
     26 O          -2.8778  -22.2970  -44.5322 O.2       9 UNK        -0.5000 
     27 CA         -2.4656  -19.9402  -44.4001 C.3       9 UNK         0.1400 
     28 CB         -2.8791  -19.3457  -43.0462 C.3       9 UNK        -0.1800 
     29 N          -1.4144  -19.1171  -44.9978 N.am      9 UNK        -0.5000 
     30 C          -0.9097  -19.2999  -46.2269 C.2       8 UNK         0.5000 
     31 O          -1.2958  -20.1718  -47.0027 O.2       8 UNK        -0.5000 
     32 CA          0.2766  -18.4050  -46.6241 C.3       8 UNK         0.1400 
     33 CB         -0.2080  -17.0125  -47.0524 C.3       8 UNK        -0.1800 
     34 N           1.2644  -18.2847  -45.5490 N.am      8 UNK        -0.5000 
     35 C           1.9586  -19.3150  -45.0446 C.2       7 UNK         0.5000 
     36 O           1.8597  -20.4694  -45.4540 O.2       7 UNK        -0.5000 
     37 CA          2.8570  -19.0235  -43.8295 C.3       7 UNK         0.1400 
     38 CB          4.1788  -18.3655  -44.2510 C.3       7 UNK        -0.1800 
     39 N           2.1848  -18.1913  -42.8310 N.am      7 UNK        -0.5000 
     40 C           1.1325  -18.5926  -42.1031 C.2       6 UNK         0.5000 
     41 O           0.6538  -19.7247  -42.1613 O.2       6 UNK        -0.5000 
     42 CA          0.4779  -17.5390  -41.1883 C.3       6 UNK         0.1400 
     43 CB          1.1766  -17.5019  -39.8211 C.3       6 UNK        -0.1800 
     44 N           0.4660  -16.1909  -41.7660 N.am      6 UNK        -0.5000 
     45 C          -0.1550  -15.8614  -42.9057 C.2       5 UNK         0.5000 
     46 O          -0.7883  -16.6666  -43.5951 O.2       5 UNK        -0.5000 
     47 CA         -0.0133  -14.4059  -43.3742 C.3       5 UNK         0.1400 
     48 CB          1.4417  -14.1032  -43.7834 C.3       5 UNK        -0.1800 
     49 N          -0.9077  -14.2132  -44.5101 N.am      5 UNK        -0.5000 
     50 C          -1.2556  -13.0501  -45.0633 C.2       4 UNK         0.5000 
     51 O          -0.8893  -11.9480  -44.6485 O.2       4 UNK        -0.5000 
     52 CA         -2.1926  -13.1317  -46.2742 C.3       4 UNK         0.1400 
     53 CB         -3.6599  -12.9499  -45.8431 C.3       4 UNK        -0.1800 
     54 N          -1.8089  -12.0932  -47.2236 N.am      4 UNK        -0.5000 
     55 C          -2.1186  -12.0860  -48.5260 C.2       3 UNK         0.5000 
     56 O          -2.7789  -12.9663  -49.0769 O.2       3 UNK        -0.5000 
     57 CA         -1.5902  -10.9121  -49.3611 C.3       3 UNK         0.1400 
     58 CB         -2.4643   -9.6590  -49.1713 C.3       3 UNK        -0.1800 
     59 N          -0.1980  -10.6236  -49.0274 N.am      3 UNK        -0.5000 
     60 C           0.6830  -10.0086  -49.8202 C.2       2 UNK         0.5000 
     61 O           0.4079   -9.5831  -50.9430 O.2       2 UNK        -0.5000 
     62 CA          2.1197   -9.8437  -49.2841 C.3       2 UNK         0.1400 
     63 CB          2.2204   -8.6323  -48.3377 C.3       2 UNK        -0.1800 
     64 N           2.7006  -11.0472  -48.6712 N.am      2 UNK        -0.5000 
     65 C           2.3485  -11.7006  -47.5557 C.2       1 UNK         0.5000 
     66 O           1.3816  -11.3839  -46.8633 O.2       1 UNK        -0.5000 
     67 C          -0.9880  -23.5939  -48.1893 C.2       11 UNK         0.5000 
     68 O          -1.1402  -24.5822  -48.9077 O.2       11 UNK        -0.5000 
     69 N          -1.9880  -22.7733  -47.8425 N.am      12 UNK        -0.5000 
     70 CA         -3.3920  -22.9760  -48.1964 C.3       12 UNK         0.1400 
     71 CB         -4.2106  -21.7389  -47.8041 C.3       12 UNK        -0.1800 
     72 C          -3.9791  -24.2542  -47.5719 C.2       12 UNK         0.5000 
     73 O          -4.6293  -25.0273  -48.2748 O.2       12 UNK        -0.5000 
     74 N          -3.7016  -24.4816  -46.2796 N.am      13 UNK        -0.5000 
     75 CA         -4.1017  -25.6814  -45.5387 C.3       13 UNK         0.1400 
     76 CB         -3.7935  -25.4895  -44.0462 C.3       13 UNK        -0.1800 
     77 C          -3.4429  -26.9693  -46.0708 C.2       13 UNK         0.5000 
     78 O          -4.0965  -28.0117  -46.1202 O.2       13 UNK        -0.5000 
     79 N          -2.1753  -26.8661  -46.4914 N.am      14 UNK        -0.5000 
     80 CA         -1.4061  -27.9368  -47.1299 C.3       14 UNK         0.1400 
     81 CB          0.0881  -27.5850  -47.0462 C.3       14 UNK        -0.1800 
     82 C          -1.8084  -28.2032  -48.5961 C.2       14 UNK         0.5000 
     83 O          -1.3468  -29.1905  -49.1695 O.2       14 UNK        -0.5000 
     84 N          -2.6298  -27.3173  -49.1802 N.am      15 UNK        -0.5000 
     85 CA         -3.0744  -27.2897  -50.5778 C.3       15 UNK         0.1400 
     86 CB         -3.8999  -28.5445  -50.9312 C.3       15 UNK        -0.1800 
     87 C          -1.9316  -27.0129  -51.5798 C.2       15 UNK         0.5000 
     88 O          -2.0382  -27.3739  -52.7533 O.2       15 UNK        -0.5000 
     89 N          -0.8689  -26.3465  -51.1085 N.am      16 UNK        -0.5000 
     90 CA          0.2124  -25.7998  -51.9294 C.3       16 UNK         0.1400 
     91 CB          1.4673  -25.6351  -51.0576 C.3       16 UNK        -0.1800 
     92 C          -0.1928  -24.4546  -52.5641 C.2       16 UNK         0.5000 
     93 O           0.3425  -24.0857  -53.6097 O.2       16 UNK        -0.5000 
     94 N          -1.1466  -23.7675  -51.9275 N.am      17 UNK        -0.5000 
     95 CA         -1.8487  -22.5881  -52.4177 C.3       17 UNK         0.1400 
     96 CB         -1.4366  -21.3866  -51.5537 C.3       17 UNK        -0.1800 
     97 C          -3.3614  -22.8596  -52.3251 C.2       17 UNK         0.5000 
     98 O          -3.7672  -23.8654  -51.7341 O.2       17 UNK        -0.5000 
     99 N          -4.1777  -21.9728  -52.9064 N.am      18 UNK        -0.5000 
    100 CA        -5.6376  -22.0467  -52.8125 C.3       18 UNK         0.1400 
    101 CB        -6.2658  -21.3030  -54.0010 C.3       18 UNK        -0.1800 
    102 C         -6.1442  -21.4894  -51.4678 C.2       18 UNK         0.5000 
    103 O         -5.4266  -20.7524  -50.7892 O.2       18 UNK        -0.5000 
    104 N         -7.3851  -21.8515  -51.1151 N.am      19 UNK        -0.5000 
    105 CA        -8.0325  -21.5281  -49.8391 C.3       19 UNK         0.1400 
    106 CB        -9.3493  -22.3130  -49.7382 C.3       19 UNK        -0.1800 
    107 C         -8.2868  -20.0260  -49.6027 C.2       19 UNK         0.5000 
    108 O         -8.3664  -19.6016  -48.4486 O.2       19 UNK        -0.5000 
    109 N         -8.4045  -19.2438  -50.6837 N.am      20 UNK        -0.5000 
    110 CA        -8.6057  -17.7934  -50.6691 C.3       20 UNK         0.1400 
    111 CB        -9.2193  -17.3718  -52.0165 C.3       20 UNK        -0.1800 
    112 C         -7.2915  -17.0466  -50.3568 C.2       20 UNK         0.5000 
    113 O         -6.7621  -16.3414  -51.2205 O.2       20 UNK        -0.5000 
    114 N         -6.7639  -17.2671  -49.1442 N.am      21 UNK        -0.5000 
    115 CA        -5.4749  -16.8261  -48.5924 C.3       21 UNK         0.1400 
    116 CB        -5.3759  -15.2911  -48.5129 C.3       21 UNK        -0.1800 
    117 C         -4.2652  -17.4451  -49.3183 C.2       21 UNK         0.5000 
    118 O         -3.4947  -18.1712  -48.6938 O.2       21 UNK        -0.5000 
    119 N         -4.1567  -17.1686  -50.6193 N.am      22 UNK        -0.5000 
    120 CA        -3.2588  -17.8214  -51.5782 C.3       22 UNK         0.1400 
    121 C         -3.9993  -18.2764  -52.8680 C.2       22 UNK         0.5000 
    122 N         -5.2132  -17.8176  -53.1577 N.am      22 UNK        -0.7600 
    123 O         -3.4635  -19.0850  -53.6221 O.2       22 UNK        -0.5000 
    124 C124       -2.0402  -16.9299  -51.9369 C.3       23 UNK        -0.0398 
    125 S125       -0.7686  -16.9330  -50.6320 S.3       23 UNK        -0.2404 
    126 C126        0.5976  -17.7706  -51.4949 C.3       23 UNK        -0.0205 
    127 H127        7.1847  -12.6221  -47.5885 H         1 UNK         0.0600 
    128 H128        7.1048  -11.7993  -49.1495 H         1 UNK         0.0600 
    129 H129        7.2158  -13.5617  -49.0831 H         1 UNK         0.0600 
    130 H130        5.2253  -12.6758  -46.5898 H         1 UNK         0.3000 
    131 H131        3.1548  -12.9201  -46.0331 H         1 UNK         0.0600 
    132 H132        2.6074  -14.2936  -48.7081 H         1 UNK         0.0800 
    133 H133        1.5327  -14.2860  -47.3379 H         1 UNK         0.0800 
    134 H134        4.5665  -15.6264  -49.0200 H         1 UNK         0.0800 
    135 H135        5.2412  -16.8159  -47.9452 H         1 UNK         0.0800 
    136 H136        2.1709  -16.1184  -50.0066 H         1 UNK         0.1150 
    137 H137        1.5842  -20.2522  -50.9521 H         1 UNK         0.1150 
    138 H138        4.6790  -19.1103  -48.2255 H         1 UNK         0.1150 
    139 H139        3.3574  -21.8287  -50.3936 H         1 UNK         0.0800 
    140 H140        4.7085  -21.3260  -49.4161 H         1 UNK         0.0800 
    141 H141        1.1036  -22.5575  -49.5495 H         1 UNK         0.0800 
    142 H142        0.7106  -21.2804  -48.4215 H         1 UNK         0.0800 
    143 H143        0.9661  -24.2292  -47.6450 H         1 UNK         0.0600 
    144 H144        0.6778  -21.9455  -45.9877 H         1 UNK         0.3000 
    145 H145       -0.8870  -23.6433  -43.2172 H         1 UNK         0.0600 
    146 H146        1.0403  -22.5766  -42.0862 H         1 UNK         0.0600 
    147 H147        1.8609  -22.3548  -43.6289 H         1 UNK         0.0600 
    148 H148        1.5658  -23.9741  -43.0130 H         1 UNK         0.0600 
    149 H149       -0.2010  -20.9028  -43.6030 H         1 UNK         0.3000 
    150 H150       -3.3298  -19.8980  -45.0658 H         1 UNK         0.0600 
    151 H151       -3.6998  -19.9133  -42.6060 H         1 UNK         0.0600 
    152 H152       -3.2162  -18.3145  -43.1542 H         1 UNK         0.0600 
    153 H153       -2.0548  -19.3550  -42.3336 H         1 UNK         0.0600 
    154 H154       -1.0565  -18.3513  -44.4335 H         1 UNK         0.3000 
    155 H155        0.7667  -18.8701  -47.4824 H         1 UNK         0.0600 
    156 H156       -1.0664  -17.0860  -47.7205 H         1 UNK         0.0600 
    157 H157        0.5719  -16.4781  -47.5915 H         1 UNK         0.0600 
    158 H158       -0.5123  -16.4057  -46.2031 H         1 UNK         0.0600 
    159 H159        1.3823  -17.3715  -45.1395 H         1 UNK         0.3000 
    160 H160        3.0964  -19.9826  -43.3650 H         1 UNK         0.0600 
    161 H161        4.0288  -17.3440  -44.5970 H         1 UNK         0.0600 
    162 H162        4.6550  -18.9219  -45.0597 H         1 UNK         0.0600 
    163 H163        4.8825  -18.3338  -43.4193 H         1 UNK         0.0600 
    164 H164        2.5166  -17.2449  -42.7211 H         1 UNK         0.3000 
    165 H165       -0.5596  -17.8407  -41.0309 H         1 UNK         0.0600 
    166 H166        0.6651  -16.8271  -39.1346 H         1 UNK         0.0600 
    167 H167        1.1822  -18.4901  -39.3590 H         1 UNK         0.0600 
    168 H168        2.2132  -17.1735  -39.9063 H         1 UNK         0.0600 
    169 H169        0.9662  -15.4780  -41.2547 H         1 UNK         0.3000 
    170 H170       -0.3198  -13.7465  -42.5599 H         1 UNK         0.0600 
    171 H171        1.7703  -14.7560  -44.5914 H         1 UNK         0.0600 
    172 H172        1.5560  -13.0727  -44.1194 H         1 UNK         0.0600 
    173 H173        2.1287  -14.2417  -42.9482 H         1 UNK         0.0600 
    174 H174       -1.3056  -15.0812  -44.8479 H         1 UNK         0.3000 
    175 H175       -2.0709  -14.1078  -46.7497 H         1 UNK         0.0600 
    176 H176       -3.8132  -11.9937  -45.3413 H         1 UNK         0.0600 
    177 H177       -4.3375  -12.9876  -46.6955 H         1 UNK         0.0600 
    178 H178       -3.9634  -13.7372  -45.1522 H         1 UNK         0.0600 
    179 H179       -1.2459  -11.3541  -46.8204 H         1 UNK         0.3000 
    180 H180       -1.6412  -11.2157  -50.4090 H         1 UNK         0.0600 
    181 H181       -2.1572   -8.8556  -49.8409 H         1 UNK         0.0600 
    182 H182       -2.4094   -9.2821  -48.1494 H         1 UNK         0.0600 
    183 H183       -3.5110   -9.8772  -49.3867 H         1 UNK         0.0600 
    184 H184        0.1492  -10.9724  -48.1366 H         1 UNK         0.3000 
    185 H185        2.7489   -9.6299  -50.1495 H         1 UNK         0.0600 
    186 H186        3.2499   -8.4641  -48.0218 H         1 UNK         0.0600 
    187 H187        1.8799   -7.7226  -48.8339 H         1 UNK         0.0600 
    188 H188        1.6114   -8.7605  -47.4424 H         1 UNK         0.0600 
    189 H189        3.4680  -11.4635  -49.1926 H         1 UNK         0.3000 
    190 H190       -1.7684  -21.9304  -47.3149 H         1 UNK         0.3000 
    191 H191       -3.4481  -23.0811  -49.2794 H         1 UNK         0.0600 
    192 H192       -3.8458  -20.8506  -48.3198 H         1 UNK         0.0600 
    193 H193       -4.1707  -21.5448  -46.7333 H         1 UNK         0.0600 
    194 H194       -5.2578  -21.8628  -48.0763 H         1 UNK         0.0600 
    195 H195       -3.1986  -23.7709  -45.7549 H         1 UNK         0.3000 
    196 H196       -5.1821  -25.7941  -45.6495 H         1 UNK         0.0600 
    197 H197       -4.3200  -24.6241  -43.6434 H         1 UNK         0.0600 
    198 H198       -2.7275  -25.3432  -43.8709 H         1 UNK         0.0600 
    199 H199       -4.1059  -26.3593  -43.4672 H         1 UNK         0.0600 
    200 H200       -1.6839  -25.9900  -46.3370 H         1 UNK         0.3000 
    201 H201       -1.5714  -28.8610  -46.5728 H         1 UNK         0.0600 
    202 H202        0.4042  -27.4485  -46.0118 H         1 UNK         0.0600 
    203 H203        0.3145  -26.6672  -47.5897 H         1 UNK         0.0600 
    204 H204        0.7045  -28.3783  -47.4708 H         1 UNK         0.0600 
    205 H205       -2.9437  -26.5346  -48.6202 H         1 UNK         0.3000 
    206 H206       -3.7442  -26.4321  -50.6526 H         1 UNK         0.0600 
    207 H207       -3.2820  -29.4417  -50.9694 H         1 UNK         0.0600 
    208 H208       -4.6931  -28.7120  -50.2024 H         1 UNK         0.0600 
    209 H209       -4.3753  -28.4359  -51.9066 H         1 UNK         0.0600 
    210 H210       -0.9003  -26.0277  -50.1441 H         1 UNK         0.3000 
    211 H211        0.4425  -26.4992  -52.7357 H         1 UNK         0.0600 
    212 H212        1.2976  -24.9480  -50.2288 H         1 UNK         0.0600 
    213 H213        2.3008  -25.2444  -51.6426 H         1 UNK         0.0600 
    214 H214        1.7829  -26.5908  -50.6388 H         1 UNK         0.0600 
    215 H215       -1.5590  -24.1879  -51.1034 H         1 UNK         0.3000 
    216 H216       -1.5931  -22.3958  -53.4616 H         1 UNK         0.0600 
    217 H217       -1.7575  -20.4569  -52.0179 H         1 UNK         0.0600 
    218 H218       -0.3546  -21.3320  -51.4484 H         1 UNK         0.0600 
    219 H219       -1.8689  -21.4298  -50.5530 H         1 UNK         0.0600 
    220 H220       -3.7974  -21.1205  -53.3045 H         1 UNK         0.3000 
    221 H221       -5.9420  -23.0936  -52.8787 H         1 UNK         0.0600 
    222 H222       -6.0241  -20.2429  -53.9906 H         1 UNK         0.0600 
    223 H223       -5.9183  -21.7141  -54.9490 H         1 UNK         0.0600 
    224 H224       -7.3528  -21.3898  -53.9911 H         1 UNK         0.0600 
    225 H225       -7.9110  -22.4479  -51.7377 H         1 UNK         0.3000 
    226 H226       -7.3758  -21.8723  -49.0390 H         1 UNK         0.0600 
    227 H227       -9.1748  -23.3874  -49.7995 H         1 UNK         0.0600 
    228 H228       -9.8476  -22.1214  -48.7868 H         1 UNK         0.0600 
    229 H229      -10.0435  -22.0381  -50.5333 H         1 UNK         0.0600 
    230 H230       -8.2910  -19.6724  -51.5901 H         1 UNK         0.3000 
    231 H231       -9.3212  -17.5405  -49.8839 H         1 UNK         0.0600 
    232 H232       -9.4000  -16.2965  -52.0445 H         1 UNK         0.0600 
    233 H233      -10.1770  -17.8648  -52.1842 H         1 UNK         0.0600 
    234 H234       -8.5649  -17.6178  -52.8538 H         1 UNK         0.0600 
    235 H235       -7.2647  -17.9347  -48.5654 H         1 UNK         0.3000 
    236 H236       -5.4496  -17.2028  -47.5685 H         1 UNK         0.0600 
    237 H237       -5.4149  -14.8195  -49.4949 H         1 UNK         0.0600 
    238 H238       -6.1809  -14.8742  -47.9081 H         1 UNK         0.0600 
    239 H239       -4.4335  -14.9947  -48.0520 H         1 UNK         0.0600 
    240 H240       -4.8859  -16.5884  -51.0182 H         1 UNK         0.3000 
    241 H241       -2.8958  -18.7447  -51.1256 H         1 UNK         0.0600 
    242 H242       -5.6474  -18.1172  -54.0148 H         1 UNK         0.3800 
    243 H243       -5.7178  -17.1876  -52.5441 H         1 UNK         0.3800 
    244 H244       -2.3598  -15.9013  -52.1105 H         1 UNK         0.0800 
    245 H245       -1.5737  -17.2523  -52.8697 H         1 UNK         0.0800 
    246 H246        0.9832  -17.1174  -52.2788 H         1 UNK         0.0800 
    247 H247        0.2102  -18.6608  -51.9930 H         1 UNK         0.0800 
@<TRIPOS>BOND
     1    1    2 1    
     2    1  127 1    
     3    1  128 1    
     4    1  129 1    
     5    2    3 2    
     6    2    4 am   BACKBONE|DICT|INTERRES
     7    4    5 1    
     8    4  130 1    
     9    5    6 1    
    10    5   65 1    
    11    5  131 1    
    12    6    7 1    
    13    6  132 1    
    14    6  133 1    
    15    7    8 1    
    16    8    9 1    
    17    8  134 1    
    18    8  135 1    
    19    9   10 ar   
    20    9   14 ar   
    21   10   11 ar   
    22   10  136 1    
    23   11   12 ar   
    24   11  126 1    
    25   12   13 ar   
    26   12  137 1    
    27   13   14 ar   
    28   13   15 1    
    29   14  138 1    
    30   15   16 1    
    31   15  139 1    
    32   15  140 1    
    33   16   17 1    
    34   17   18 1    
    35   17  141 1    
    36   17  142 1    
    37   18   19 1    
    38   18   67 1    
    39   18  143 1    
    40   19   20 am   BACKBONE|DICT|INTERRES
    41   19  144 1    
    42   20   21 2    
    43   20   22 1    
    44   22   23 1    
    45   22   24 1    
    46   22  145 1    
    47   23  146 1    
    48   23  147 1    
    49   23  148 1    
    50   24   25 am   BACKBONE|DICT|INTERRES
    51   24  149 1    
    52   25   26 2    
    53   25   27 1    
    54   27   28 1    
    55   27   29 1    
    56   27  150 1    
    57   28  151 1    
    58   28  152 1    
    59   28  153 1    
    60   29   30 am   BACKBONE|DICT|INTERRES
    61   29  154 1    
    62   30   31 2    
    63   30   32 1    
    64   32   33 1    
    65   32   34 1    
    66   32  155 1    
    67   33  156 1    
    68   33  157 1    
    69   33  158 1    
    70   34   35 am   BACKBONE|DICT|INTERRES
    71   34  159 1    
    72   35   36 2    
    73   35   37 1    
    74   37   38 1    
    75   37   39 1    
    76   37  160 1    
    77   38  161 1    
    78   38  162 1    
    79   38  163 1    
    80   39   40 am   BACKBONE|DICT|INTERRES
    81   39  164 1    
    82   40   41 2    
    83   40   42 1    
    84   42   43 1    
    85   42   44 1    
    86   42  165 1    
    87   43  166 1    
    88   43  167 1    
    89   43  168 1    
    90   44   45 am   BACKBONE|DICT|INTERRES
    91   44  169 1    
    92   45   46 2    
    93   45   47 1    
    94   47   48 1    
    95   47   49 1    
    96   47  170 1    
    97   48  171 1    
    98   48  172 1    
    99   48  173 1    
   100   49   50 am   BACKBONE|DICT|INTERRES
   101   49  174 1    
   102   50   51 2    
   103   50   52 1    
   104   52   53 1    
   105   52   54 1    
   106   52  175 1    
   107   53  176 1    
   108   53  177 1    
   109   53  178 1    
   110   54   55 am   BACKBONE|DICT|INTERRES
   111   54  179 1    
   112   55   56 2    
   113   55   57 1    
   114   57   58 1    
   115   57   59 1    
   116   57  180 1    
   117   58  181 1    
   118   58  182 1    
   119   58  183 1    
   120   59   60 am   BACKBONE|DICT|INTERRES
   121   59  184 1    
   122   60   61 2    
   123   60   62 1    
   124   62   63 1    
   125   62   64 1    
   126   62  185 1    
   127   63  186 1    
   128   63  187 1    
   129   63  188 1    
   130   64   65 am   BACKBONE|DICT|INTERRES
   131   64  189 1    
   132   65   66 2    
   133   67   68 2    
   134   67   69 am   BACKBONE|DICT|INTERRES
   135   69   70 1    
   136   69  190 1    
   137   70   71 1    
   138   70   72 1    
   139   70  191 1    
   140   71  192 1    
   141   71  193 1    
   142   71  194 1    
   143   72   73 2    
   144   72   74 am   BACKBONE|DICT|INTERRES
   145   74   75 1    
   146   74  195 1    
   147   75   76 1    
   148   75   77 1    
   149   75  196 1    
   150   76  197 1    
   151   76  198 1    
   152   76  199 1    
   153   77   78 2    
   154   77   79 am   BACKBONE|DICT|INTERRES
   155   79   80 1    
   156   79  200 1    
   157   80   81 1    
   158   80   82 1    
   159   80  201 1    
   160   81  202 1    
   161   81  203 1    
   162   81  204 1    
   163   82   83 2    
   164   82   84 am   BACKBONE|DICT|INTERRES
   165   84   85 1    
   166   84  205 1    
   167   85   86 1    
   168   85   87 1    
   169   85  206 1    
   170   86  207 1    
   171   86  208 1    
   172   86  209 1    
   173   87   88 2    
   174   87   89 am   BACKBONE|DICT|INTERRES
   175   89   90 1    
   176   89  210 1    
   177   90   91 1    
   178   90   92 1    
   179   90  211 1    
   180   91  212 1    
   181   91  213 1    
   182   91  214 1    
   183   92   93 2    
   184   92   94 am   BACKBONE|DICT|INTERRES
   185   94   95 1    
   186   94  215 1    
   187   95   96 1    
   188   95   97 1    
   189   95  216 1    
   190   96  217 1    
   191   96  218 1    
   192   96  219 1    
   193   97   98 2    
   194   97   99 am   BACKBONE|DICT|INTERRES
   195   99  100 1    
   196   99  220 1    
   197  100  101 1    
   198  100  102 1    
   199  100  221 1    
   200  101  222 1    
   201  101  223 1    
   202  101  224 1    
   203  102  103 2    
   204  102  104 am   BACKBONE|DICT|INTERRES
   205  104  105 1    
   206  104  225 1    
   207  105  106 1    
   208  105  107 1    
   209  105  226 1    
   210  106  227 1    
   211  106  228 1    
   212  106  229 1    
   213  107  108 2    
   214  107  109 am   BACKBONE|DICT|INTERRES
   215  109  110 1    
   216  109  230 1    
   217  110  111 1    
   218  110  112 1    
   219  110  231 1    
   220  111  232 1    
   221  111  233 1    
   222  111  234 1    
   223  112  113 2    
   224  112  114 am   BACKBONE|DICT|INTERRES
   225  114  115 1    
   226  114  235 1    
   227  115  116 1    
   228  115  117 1    
   229  115  236 1    
   230  116  237 1    
   231  116  238 1    
   232  116  239 1    
   233  117  118 2    
   234  117  119 am   BACKBONE|DICT|INTERRES
   235  119  120 1    
   236  119  240 1    
   237  120  121 1    
   238  120  124 1    
   239  120  241 1    
   240  121  122 am   BACKBONE|DICT|INTERRES
   241  121  123 2    
   242  122  242 1    
   243  122  243 1    
   244  124  125 1    
   245  124  244 1    
   246  124  245 1    
   247  125  126 1    
   248  126  246 1    
   249  126  247 1    
@<TRIPOS>SUBSTRUCTURE
     1 UNK         1 GROUP             0       ****    0 ROOT    
