@<TRIPOS>MOLECULE
3R540
247   249    1
SMALL
USER_CHARGES


@<TRIPOS>ATOM
      1 CA          8.2804  -15.5065  -50.6130 C.3       0 UNK        -0.1800 
      2 C           7.8647  -16.9567  -50.8157 C.2       0 UNK         0.5000 
      3 O           8.6503  -17.8639  -50.5428 O.2       0 UNK        -0.5000 
      4 N           6.6309  -17.1774  -51.2875 N.am      1 UNK        -0.5000 
      5 CA          6.0305  -18.5001  -51.5157 C.3       1 UNK         0.1400 
      6 C6          4.7669  -18.4078  -52.4091 C.3       23 UNK        -0.0398 
      7 S7          3.5001  -17.2323  -51.8040 S.3       23 UNK        -0.2404 
      8 C8          2.2488  -18.3868  -51.1728 C.3       23 UNK        -0.0205 
      9 C9          1.0778  -17.6567  -50.5431 C.ar      23 UNK        -0.0193 
     10 C10        -0.0753  -17.3957  -51.2863 C.ar      23 UNK        -0.1150 
     11 C11        -1.1545  -16.7206  -50.7091 C.ar      23 UNK        -0.0193 
     12 C12        -1.0809  -16.3258  -49.3684 C.ar      23 UNK        -0.1150 
     13 C13         0.0735  -16.5786  -48.6171 C.ar      23 UNK        -0.0193 
     14 C14         1.1485  -17.2406  -49.2128 C.ar      23 UNK        -0.1150 
     15 C15         0.1815  -16.0970  -47.1787 C.3       23 UNK        -0.0205 
     16 S16        -0.4527  -17.3172  -45.9893 S.3       23 UNK        -0.2404 
     17 C17         0.9293  -18.4954  -45.8054 C.3       23 UNK        -0.0398 
     18 CA          0.5333  -19.9857  -45.9533 C.3       11 UNK         0.1400 
     19 N          -0.4665  -20.4073  -44.9630 N.am      11 UNK        -0.5000 
     20 C          -0.8065  -21.6857  -44.7403 C.2       10 UNK         0.5000 
     21 O          -0.2926  -22.6412  -45.3208 O.2       10 UNK        -0.5000 
     22 CA         -1.9355  -21.9448  -43.7346 C.3       10 UNK         0.1400 
     23 CB         -1.4092  -21.8627  -42.2945 C.3       10 UNK        -0.1800 
     24 N          -3.0562  -21.0232  -43.9103 N.am      10 UNK        -0.5000 
     25 C          -3.9426  -21.0889  -44.9129 C.2       9 UNK         0.5000 
     26 O          -3.8603  -21.8902  -45.8424 O.2       9 UNK        -0.5000 
     27 CA         -5.1203  -20.0992  -44.8719 C.3       9 UNK         0.1400 
     28 CB         -6.2708  -20.6688  -44.0288 C.3       9 UNK        -0.1800 
     29 N          -4.7341  -18.7934  -44.3407 N.am      9 UNK        -0.5000 
     30 C          -4.0659  -17.8762  -45.0508 C.2       8 UNK         0.5000 
     31 O          -3.7778  -18.0171  -46.2386 O.2       8 UNK        -0.5000 
     32 CA         -3.6462  -16.5887  -44.3141 C.3       8 UNK         0.1400 
     33 CB         -4.7501  -15.5276  -44.4372 C.3       8 UNK        -0.1800 
     34 N          -3.2941  -16.7486  -42.8976 N.am      8 UNK        -0.5000 
     35 C          -2.4134  -17.6178  -42.3792 C.2       7 UNK         0.5000 
     36 O          -1.8613  -18.5113  -43.0228 O.2       7 UNK        -0.5000 
     37 CA         -2.0739  -17.4052  -40.8951 C.3       7 UNK         0.1400 
     38 CB         -1.2119  -18.5338  -40.3034 C.3       7 UNK        -0.1800 
     39 N          -1.3391  -16.1511  -40.8003 N.am      7 UNK        -0.5000 
     40 C          -1.7151  -15.0673  -40.1095 C.2       6 UNK         0.5000 
     41 O          -2.6914  -15.0382  -39.3596 O.2       6 UNK        -0.5000 
     42 CA         -0.8786  -13.7850  -40.3142 C.3       6 UNK         0.1400 
     43 CB          0.1782  -13.6496  -39.2076 C.3       6 UNK        -0.1800 
     44 N          -0.2107  -13.7391  -41.6174 N.am      6 UNK        -0.5000 
     45 C          -0.8396  -13.6989  -42.8005 C.2       5 UNK         0.5000 
     46 O          -2.0529  -13.5254  -42.9161 O.2       5 UNK        -0.5000 
     47 CA          0.0094  -13.9285  -44.0672 C.3       5 UNK         0.1400 
     48 CB          0.1414  -12.6311  -44.8786 C.3       5 UNK        -0.1800 
     49 N           1.3509  -14.4815  -43.8456 N.am      5 UNK        -0.5000 
     50 C           1.6599  -15.6547  -43.2784 C.2       4 UNK         0.5000 
     51 O           0.8239  -16.3988  -42.7656 O.2       4 UNK        -0.5000 
     52 CA          3.1557  -16.0444  -43.2787 C.3       4 UNK         0.1400 
     53 CB          3.4188  -17.3899  -42.5778 C.3       4 UNK        -0.1800 
     54 N           3.7411  -16.0928  -44.6229 N.am      4 UNK        -0.5000 
     55 C           4.0612  -15.0394  -45.3842 C.2       3 UNK         0.5000 
     56 O           3.8408  -13.8767  -45.0410 O.2       3 UNK        -0.5000 
     57 CA          4.7151  -15.2904  -46.7611 C.3       3 UNK         0.1400 
     58 CB          6.1576  -14.7476  -46.7884 C.3       3 UNK        -0.1800 
     59 N           4.6810  -16.6654  -47.2865 N.am      3 UNK        -0.5000 
     60 C           5.2831  -17.7680  -46.8083 C.2       2 UNK         0.5000 
     61 O           5.8231  -17.8360  -45.7060 O.2       2 UNK        -0.5000 
     62 CA          5.3196  -18.9849  -47.7458 C.3       2 UNK         0.1400 
     63 CB          4.0448  -19.8363  -47.6002 C.3       2 UNK        -0.1800 
     64 N           5.5158  -18.5229  -49.1197 N.am      2 UNK        -0.5000 
     65 C           5.7477  -19.2704  -50.2049 C.2       1 UNK         0.5000 
     66 O           5.7627  -20.5014  -50.2074 O.2       1 UNK        -0.5000 
     67 C           0.1026  -20.3476  -47.3901 C.2       11 UNK         0.5000 
     68 O           0.9207  -20.8177  -48.1814 O.2       11 UNK        -0.5000 
     69 N          -1.1957  -20.1838  -47.6683 N.am      12 UNK        -0.5000 
     70 CA         -1.8267  -20.5590  -48.9236 C.3       12 UNK         0.1400 
     71 CB         -3.2435  -19.9876  -48.9471 C.3       12 UNK        -0.1800 
     72 C          -1.8560  -22.0803  -49.1310 C.2       12 UNK         0.5000 
     73 O          -1.5741  -22.5423  -50.2362 O.2       12 UNK        -0.5000 
     74 N          -2.2017  -22.8369  -48.0796 N.am      13 UNK        -0.5000 
     75 CA         -2.2314  -24.3003  -48.0884 C.3       13 UNK         0.1400 
     76 CB         -2.9035  -24.8197  -46.8097 C.3       13 UNK        -0.1800 
     77 C          -0.8358  -24.9220  -48.2630 C.2       13 UNK         0.5000 
     78 O          -0.6983  -25.8809  -49.0219 O.2       13 UNK        -0.5000 
     79 N           0.1789  -24.3396  -47.6075 N.am      14 UNK        -0.5000 
     80 CA          1.5865  -24.7351  -47.7172 C.3       14 UNK         0.1400 
     81 CB          2.4249  -23.9202  -46.7202 C.3       14 UNK        -0.1800 
     82 C           2.1508  -24.5853  -49.1432 C.2       14 UNK         0.5000 
     83 O           2.9599  -25.4102  -49.5687 O.2       14 UNK        -0.5000 
     84 N           1.6858  -23.5560  -49.8614 N.am      15 UNK        -0.5000 
     85 CA          2.0190  -23.2904  -51.2606 C.3       15 UNK         0.1400 
     86 CB          1.9647  -21.7746  -51.4799 C.3       15 UNK        -0.1800 
     87 C           1.1009  -24.0242  -52.2605 C.2       15 UNK         0.5000 
     88 O           1.3209  -23.9087  -53.4666 O.2       15 UNK        -0.5000 
     89 N           0.0890  -24.7463  -51.7552 N.am      16 UNK        -0.5000 
     90 CA         -0.9455  -25.4853  -52.4888 C.3       16 UNK         0.1400 
     91 CB         -0.3276  -26.6301  -53.3186 C.3       16 UNK        -0.1800 
     92 C          -1.8979  -24.5907  -53.3143 C.2       16 UNK         0.5000 
     93 O          -2.5476  -25.0809  -54.2396 O.2       16 UNK        -0.5000 
     94 N          -1.9931  -23.3051  -52.9512 N.am      17 UNK        -0.5000 
     95 CA         -2.9601  -22.3524  -53.4971 C.3       17 UNK         0.1400 
     96 CB         -2.4120  -20.9256  -53.3327 C.3       17 UNK        -0.1800 
     97 C          -4.3241  -22.4933  -52.7984 C.2       17 UNK         0.5000 
     98 O          -5.3576  -22.4375  -53.4645 O.2       17 UNK        -0.5000 
     99 N          -4.2739  -22.7108  -51.4751 N.am      18 UNK        -0.5000 
    100 CA        -5.3772  -22.8536  -50.5207 C.3       18 UNK         0.1400 
    101 CB        -6.2915  -24.0343  -50.9050 C.3       18 UNK        -0.1800 
    102 C         -6.1919  -21.5627  -50.2974 C.2       18 UNK         0.5000 
    103 O         -6.1388  -20.6148  -51.0867 O.2       18 UNK        -0.5000 
    104 N         -6.9612  -21.5584  -49.2004 N.am      19 UNK        -0.5000 
    105 CA        -7.8269  -20.4516  -48.7797 C.3       19 UNK         0.1400 
    106 CB        -8.4156  -20.7749  -47.3988 C.3       19 UNK        -0.1800 
    107 C         -8.9517  -20.1250  -49.7825 C.2       19 UNK         0.5000 
    108 O         -9.4368  -18.9947  -49.7985 O.2       19 UNK        -0.5000 
    109 N         -9.3155  -21.0988  -50.6288 N.am      20 UNK        -0.5000 
    110 CA       -10.2478  -20.9376  -51.7449 C.3       20 UNK         0.1400 
    111 CB       -10.5080  -22.3125  -52.3792 C.3       20 UNK        -0.1800 
    112 C         -9.7597  -19.9346  -52.8108 C.2       20 UNK         0.5000 
    113 O        -10.5916  -19.2852  -53.4461 O.2       20 UNK        -0.5000 
    114 N         -8.4347  -19.8153  -52.9772 N.am      21 UNK        -0.5000 
    115 CA        -7.8028  -18.8339  -53.8549 C.3       21 UNK         0.1400 
    116 CB        -6.5658  -19.4602  -54.5184 C.3       21 UNK        -0.1800 
    117 C         -7.4097  -17.5721  -53.0717 C.2       21 UNK         0.5000 
    118 O         -7.7010  -16.4632  -53.5221 O.2       21 UNK        -0.5000 
    119 N         -6.7352  -17.7632  -51.9311 N.am      22 UNK        -0.5000 
    120 CA        -6.1062  -16.6814  -51.1541 C.3       22 UNK         0.1400 
    121 C         -7.0512  -15.9186  -50.1832 C.2       22 UNK         0.5000 
    122 N         -8.2557  -16.3910  -49.8940 N.am      22 UNK        -0.7600 
    123 O         -6.6865  -14.8549  -49.6901 O.2       22 UNK        -0.5000 
    124 C124       -4.8385  -17.1852  -50.4241 C.3       23 UNK        -0.0398 
    125 S125       -3.5683  -17.7496  -51.6116 S.3       23 UNK        -0.2404 
    126 C126       -2.3697  -16.3827  -51.5605 C.3       23 UNK        -0.0205 
    127 H127        9.1401  -15.2715  -51.2405 H         1 UNK         0.0600 
    128 H128        7.4759  -14.8149  -50.8644 H         1 UNK         0.0600 
    129 H129        8.5598  -15.3383  -49.5730 H         1 UNK         0.0600 
    130 H130        6.0336  -16.3922  -51.5079 H         1 UNK         0.3000 
    131 H131        6.7656  -19.0944  -52.0629 H         1 UNK         0.0600 
    132 H132        4.3246  -19.3950  -52.5565 H         1 UNK         0.0800 
    133 H133        5.0625  -18.0771  -53.4056 H         1 UNK         0.0800 
    134 H134        2.7030  -19.0444  -50.4319 H         1 UNK         0.0800 
    135 H135        1.8986  -19.0173  -51.9905 H         1 UNK         0.0800 
    136 H136       -0.1286  -17.7053  -52.3207 H         1 UNK         0.1150 
    137 H137       -1.9121  -15.8042  -48.9154 H         1 UNK         0.1150 
    138 H138        2.0471  -17.4245  -48.6460 H         1 UNK         0.1150 
    139 H139        1.2122  -15.8396  -46.9306 H         1 UNK         0.0800 
    140 H140       -0.3917  -15.1758  -47.0668 H         1 UNK         0.0800 
    141 H141        1.3479  -18.3410  -44.8119 H         1 UNK         0.0800 
    142 H142        1.7290  -18.2406  -46.4984 H         1 UNK         0.0800 
    143 H143        1.4332  -20.5703  -45.7507 H         1 UNK         0.0600 
    144 H144       -0.9353  -19.6728  -44.4394 H         1 UNK         0.3000 
    145 H145       -2.3042  -22.9598  -43.8975 H         1 UNK         0.0600 
    146 H146       -2.2067  -22.0243  -41.5692 H         1 UNK         0.0600 
    147 H147       -0.6481  -22.6235  -42.1174 H         1 UNK         0.0600 
    148 H148       -0.9533  -20.8950  -42.0874 H         1 UNK         0.0600 
    149 H149       -3.1086  -20.2504  -43.2604 H         1 UNK         0.3000 
    150 H150       -5.4816  -19.9724  -45.8949 H         1 UNK         0.0600 
    151 H151       -6.5832  -21.6448  -44.4029 H         1 UNK         0.0600 
    152 H152       -7.1429  -20.0154  -44.0606 H         1 UNK         0.0600 
    153 H153       -5.9828  -20.7952  -42.9845 H         1 UNK         0.0600 
    154 H154       -4.9451  -18.6015  -43.3727 H         1 UNK         0.3000 
    155 H155       -2.7619  -16.1977  -44.8162 H         1 UNK         0.0600 
    156 H156       -5.6557  -15.8261  -43.9078 H         1 UNK         0.0600 
    157 H157       -5.0188  -15.3618  -45.4815 H         1 UNK         0.0600 
    158 H158       -4.4241  -14.5692  -44.0328 H         1 UNK         0.0600 
    159 H159       -3.6647  -16.0409  -42.2799 H         1 UNK         0.3000 
    160 H160       -3.0124  -17.3589  -40.3394 H         1 UNK         0.0600 
    161 H161       -0.9632  -18.3316  -39.2616 H         1 UNK         0.0600 
    162 H162       -0.2763  -18.6582  -40.8510 H         1 UNK         0.0600 
    163 H163       -1.7457  -19.4837  -40.3301 H         1 UNK         0.0600 
    164 H164       -0.5427  -16.0819  -41.4299 H         1 UNK         0.3000 
    165 H165       -1.5575  -12.9321  -40.2508 H         1 UNK         0.0600 
    166 H166        0.7307  -12.7145  -39.3012 H         1 UNK         0.0600 
    167 H167       -0.2871  -13.6536  -38.2210 H         1 UNK         0.0600 
    168 H168        0.8966  -14.4700  -39.2351 H         1 UNK         0.0600 
    169 H169        0.7884  -13.8790  -41.6201 H         1 UNK         0.3000 
    170 H170       -0.5414  -14.6504  -44.6705 H         1 UNK         0.0600 
    171 H171       -0.8375  -12.2053  -45.1029 H         1 UNK         0.0600 
    172 H172        0.7128  -11.8768  -44.3363 H         1 UNK         0.0600 
    173 H173        0.6411  -12.8111  -45.8307 H         1 UNK         0.0600 
    174 H174        2.1245  -13.9566  -44.2452 H         1 UNK         0.3000 
    175 H175        3.6790  -15.2744  -42.7082 H         1 UNK         0.0600 
    176 H176        2.9417  -18.2206  -43.0974 H         1 UNK         0.0600 
    177 H177        4.4869  -17.6013  -42.5221 H         1 UNK         0.0600 
    178 H178        3.0386  -17.3807  -41.5554 H         1 UNK         0.0600 
    179 H179        4.0339  -17.0019  -44.9552 H         1 UNK         0.3000 
    180 H180        4.1339  -14.6973  -47.4688 H         1 UNK         0.0600 
    181 H181        6.8051  -15.2821  -46.0928 H         1 UNK         0.0600 
    182 H182        6.1858  -13.6926  -46.5131 H         1 UNK         0.0600 
    183 H183        6.5923  -14.8320  -47.7844 H         1 UNK         0.0600 
    184 H184        4.1982  -16.7547  -48.1683 H         1 UNK         0.3000 
    185 H185        6.1825  -19.5916  -47.4643 H         1 UNK         0.0600 
    186 H186        3.8344  -20.0561  -46.5530 H         1 UNK         0.0600 
    187 H187        3.1764  -19.3304  -48.0162 H         1 UNK         0.0600 
    188 H188        4.1402  -20.7939  -48.1117 H         1 UNK         0.0600 
    189 H189        5.6078  -17.5231  -49.2287 H         1 UNK         0.3000 
    190 H190       -1.7902  -19.7663  -46.9655 H         1 UNK         0.3000 
    191 H191       -1.2571  -20.1089  -49.7400 H         1 UNK         0.0600 
    192 H192       -3.7026  -20.1510  -49.9206 H         1 UNK         0.0600 
    193 H193       -3.8873  -20.4376  -48.1910 H         1 UNK         0.0600 
    194 H194       -3.2209  -18.9132  -48.7683 H         1 UNK         0.0600 
    195 H195       -2.4883  -22.3861  -47.2164 H         1 UNK         0.3000 
    196 H196       -2.8393  -24.6167  -48.9387 H         1 UNK         0.0600 
    197 H197       -2.9285  -25.9100  -46.7953 H         1 UNK         0.0600 
    198 H198       -3.9339  -24.4717  -46.7379 H         1 UNK         0.0600 
    199 H199       -2.3746  -24.4906  -45.9150 H         1 UNK         0.0600 
    200 H200       -0.0286  -23.5860  -46.9566 H         1 UNK         0.3000 
    201 H201        1.6572  -25.7895  -47.4428 H         1 UNK         0.0600 
    202 H202        2.0928  -24.0887  -45.6957 H         1 UNK         0.0600 
    203 H203        2.3605  -22.8502  -46.9211 H         1 UNK         0.0600 
    204 H204        3.4774  -24.2015  -46.7710 H         1 UNK         0.0600 
    205 H205        1.0466  -22.9077  -49.4189 H         1 UNK         0.3000 
    206 H206        3.0404  -23.6215  -51.4589 H         1 UNK         0.0600 
    207 H207        2.6834  -21.2776  -50.8296 H         1 UNK         0.0600 
    208 H208        2.2179  -21.5111  -52.5075 H         1 UNK         0.0600 
    209 H209        0.9744  -21.3700  -51.2648 H         1 UNK         0.0600 
    210 H210        0.0007  -24.7843  -50.7472 H         1 UNK         0.3000 
    211 H211       -1.5717  -25.9451  -51.7232 H         1 UNK         0.0600 
    212 H212        0.2505  -26.2542  -54.1630 H         1 UNK         0.0600 
    213 H213       -1.1018  -27.2844  -53.7205 H         1 UNK         0.0600 
    214 H214        0.3310  -27.2479  -52.7080 H         1 UNK         0.0600 
    215 H215       -1.4734  -23.0036  -52.1330 H         1 UNK         0.3000 
    216 H216       -3.0985  -22.5448  -54.5631 H         1 UNK         0.0600 
    217 H217       -3.1079  -20.1920  -53.7419 H         1 UNK         0.0600 
    218 H218       -1.4641  -20.8043  -53.8570 H         1 UNK         0.0600 
    219 H219       -2.2488  -20.6703  -52.2849 H         1 UNK         0.0600 
    220 H220       -3.3476  -22.7274  -51.0634 H         1 UNK         0.3000 
    221 H221       -4.9048  -23.0947  -49.5673 H         1 UNK         0.0600 
    222 H222       -6.8708  -23.8263  -51.8052 H         1 UNK         0.0600 
    223 H223       -5.7109  -24.9396  -51.0830 H         1 UNK         0.0600 
    224 H224       -7.0017  -24.2600  -50.1090 H         1 UNK         0.0600 
    225 H225       -6.9581  -22.3695  -48.5986 H         1 UNK         0.3000 
    226 H226       -7.2036  -19.5594  -48.6873 H         1 UNK         0.0600 
    227 H227       -9.0556  -21.6575  -47.4309 H         1 UNK         0.0600 
    228 H228       -9.0181  -19.9451  -47.0269 H         1 UNK         0.0600 
    229 H229       -7.6298  -20.9577  -46.6671 H         1 UNK         0.0600 
    230 H230       -8.8694  -21.9989  -50.5385 H         1 UNK         0.3000 
    231 H231      -11.1900  -20.5598  -51.3424 H         1 UNK         0.0600 
    232 H232      -10.9288  -23.0092  -51.6540 H         1 UNK         0.0600 
    233 H233       -9.5919  -22.7519  -52.7764 H         1 UNK         0.0600 
    234 H234      -11.2187  -22.2343  -53.2030 H         1 UNK         0.0600 
    235 H235       -7.8114  -20.3630  -52.3956 H         1 UNK         0.3000 
    236 H236       -8.4919  -18.5405  -54.6498 H         1 UNK         0.0600 
    237 H237       -6.8311  -20.3525  -55.0856 H         1 UNK         0.0600 
    238 H238       -6.0978  -18.7595  -55.2106 H         1 UNK         0.0600 
    239 H239       -5.8121  -19.7450  -53.7832 H         1 UNK         0.0600 
    240 H240       -6.5139  -18.7104  -51.6417 H         1 UNK         0.3000 
    241 H241       -5.7720  -15.9216  -51.8639 H         1 UNK         0.0600 
    242 H242       -8.8475  -15.8649  -49.2717 H         1 UNK         0.3800 
    243 H243       -8.5748  -17.2950  -50.2252 H         1 UNK         0.3800 
    244 H244       -5.1036  -18.0143  -49.7677 H         1 UNK         0.0800 
    245 H245       -4.4128  -16.4152  -49.7785 H         1 UNK         0.0800 
    246 H246       -2.8432  -15.4652  -51.2086 H         1 UNK         0.0800 
    247 H247       -2.0470  -16.1733  -52.5814 H         1 UNK         0.0800 
@<TRIPOS>BOND
     1    1    2 1    
     2    1  127 1    
     3    1  128 1    
     4    1  129 1    
     5    2    3 2    
     6    2    4 am   BACKBONE|DICT|INTERRES
     7    4    5 1    
     8    4  130 1    
     9    5    6 1    
    10    5   65 1    
    11    5  131 1    
    12    6    7 1    
    13    6  132 1    
    14    6  133 1    
    15    7    8 1    
    16    8    9 1    
    17    8  134 1    
    18    8  135 1    
    19    9   10 ar   
    20    9   14 ar   
    21   10   11 ar   
    22   10  136 1    
    23   11   12 ar   
    24   11  126 1    
    25   12   13 ar   
    26   12  137 1    
    27   13   14 ar   
    28   13   15 1    
    29   14  138 1    
    30   15   16 1    
    31   15  139 1    
    32   15  140 1    
    33   16   17 1    
    34   17   18 1    
    35   17  141 1    
    36   17  142 1    
    37   18   19 1    
    38   18   67 1    
    39   18  143 1    
    40   19   20 am   BACKBONE|DICT|INTERRES
    41   19  144 1    
    42   20   21 2    
    43   20   22 1    
    44   22   23 1    
    45   22   24 1    
    46   22  145 1    
    47   23  146 1    
    48   23  147 1    
    49   23  148 1    
    50   24   25 am   BACKBONE|DICT|INTERRES
    51   24  149 1    
    52   25   26 2    
    53   25   27 1    
    54   27   28 1    
    55   27   29 1    
    56   27  150 1    
    57   28  151 1    
    58   28  152 1    
    59   28  153 1    
    60   29   30 am   BACKBONE|DICT|INTERRES
    61   29  154 1    
    62   30   31 2    
    63   30   32 1    
    64   32   33 1    
    65   32   34 1    
    66   32  155 1    
    67   33  156 1    
    68   33  157 1    
    69   33  158 1    
    70   34   35 am   BACKBONE|DICT|INTERRES
    71   34  159 1    
    72   35   36 2    
    73   35   37 1    
    74   37   38 1    
    75   37   39 1    
    76   37  160 1    
    77   38  161 1    
    78   38  162 1    
    79   38  163 1    
    80   39   40 am   BACKBONE|DICT|INTERRES
    81   39  164 1    
    82   40   41 2    
    83   40   42 1    
    84   42   43 1    
    85   42   44 1    
    86   42  165 1    
    87   43  166 1    
    88   43  167 1    
    89   43  168 1    
    90   44   45 am   BACKBONE|DICT|INTERRES
    91   44  169 1    
    92   45   46 2    
    93   45   47 1    
    94   47   48 1    
    95   47   49 1    
    96   47  170 1    
    97   48  171 1    
    98   48  172 1    
    99   48  173 1    
   100   49   50 am   BACKBONE|DICT|INTERRES
   101   49  174 1    
   102   50   51 2    
   103   50   52 1    
   104   52   53 1    
   105   52   54 1    
   106   52  175 1    
   107   53  176 1    
   108   53  177 1    
   109   53  178 1    
   110   54   55 am   BACKBONE|DICT|INTERRES
   111   54  179 1    
   112   55   56 2    
   113   55   57 1    
   114   57   58 1    
   115   57   59 1    
   116   57  180 1    
   117   58  181 1    
   118   58  182 1    
   119   58  183 1    
   120   59   60 am   BACKBONE|DICT|INTERRES
   121   59  184 1    
   122   60   61 2    
   123   60   62 1    
   124   62   63 1    
   125   62   64 1    
   126   62  185 1    
   127   63  186 1    
   128   63  187 1    
   129   63  188 1    
   130   64   65 am   BACKBONE|DICT|INTERRES
   131   64  189 1    
   132   65   66 2    
   133   67   68 2    
   134   67   69 am   BACKBONE|DICT|INTERRES
   135   69   70 1    
   136   69  190 1    
   137   70   71 1    
   138   70   72 1    
   139   70  191 1    
   140   71  192 1    
   141   71  193 1    
   142   71  194 1    
   143   72   73 2    
   144   72   74 am   BACKBONE|DICT|INTERRES
   145   74   75 1    
   146   74  195 1    
   147   75   76 1    
   148   75   77 1    
   149   75  196 1    
   150   76  197 1    
   151   76  198 1    
   152   76  199 1    
   153   77   78 2    
   154   77   79 am   BACKBONE|DICT|INTERRES
   155   79   80 1    
   156   79  200 1    
   157   80   81 1    
   158   80   82 1    
   159   80  201 1    
   160   81  202 1    
   161   81  203 1    
   162   81  204 1    
   163   82   83 2    
   164   82   84 am   BACKBONE|DICT|INTERRES
   165   84   85 1    
   166   84  205 1    
   167   85   86 1    
   168   85   87 1    
   169   85  206 1    
   170   86  207 1    
   171   86  208 1    
   172   86  209 1    
   173   87   88 2    
   174   87   89 am   BACKBONE|DICT|INTERRES
   175   89   90 1    
   176   89  210 1    
   177   90   91 1    
   178   90   92 1    
   179   90  211 1    
   180   91  212 1    
   181   91  213 1    
   182   91  214 1    
   183   92   93 2    
   184   92   94 am   BACKBONE|DICT|INTERRES
   185   94   95 1    
   186   94  215 1    
   187   95   96 1    
   188   95   97 1    
   189   95  216 1    
   190   96  217 1    
   191   96  218 1    
   192   96  219 1    
   193   97   98 2    
   194   97   99 am   BACKBONE|DICT|INTERRES
   195   99  100 1    
   196   99  220 1    
   197  100  101 1    
   198  100  102 1    
   199  100  221 1    
   200  101  222 1    
   201  101  223 1    
   202  101  224 1    
   203  102  103 2    
   204  102  104 am   BACKBONE|DICT|INTERRES
   205  104  105 1    
   206  104  225 1    
   207  105  106 1    
   208  105  107 1    
   209  105  226 1    
   210  106  227 1    
   211  106  228 1    
   212  106  229 1    
   213  107  108 2    
   214  107  109 am   BACKBONE|DICT|INTERRES
   215  109  110 1    
   216  109  230 1    
   217  110  111 1    
   218  110  112 1    
   219  110  231 1    
   220  111  232 1    
   221  111  233 1    
   222  111  234 1    
   223  112  113 2    
   224  112  114 am   BACKBONE|DICT|INTERRES
   225  114  115 1    
   226  114  235 1    
   227  115  116 1    
   228  115  117 1    
   229  115  236 1    
   230  116  237 1    
   231  116  238 1    
   232  116  239 1    
   233  117  118 2    
   234  117  119 am   BACKBONE|DICT|INTERRES
   235  119  120 1    
   236  119  240 1    
   237  120  121 1    
   238  120  124 1    
   239  120  241 1    
   240  121  122 am   BACKBONE|DICT|INTERRES
   241  121  123 2    
   242  122  242 1    
   243  122  243 1    
   244  124  125 1    
   245  124  244 1    
   246  124  245 1    
   247  125  126 1    
   248  126  246 1    
   249  126  247 1    
@<TRIPOS>SUBSTRUCTURE
     1 UNK         1 GROUP             0       ****    0 ROOT    
