@<TRIPOS>MOLECULE
3R540
247   249    1
SMALL
USER_CHARGES


@<TRIPOS>ATOM
      1 CA          1.9173  -12.2501  -49.7316 C.3       0 UNK        -0.1800 
      2 C           3.3173  -12.7398  -49.3949 C.2       0 UNK         0.5000 
      3 O           3.9959  -12.1308  -48.5690 O.2       0 UNK        -0.5000 
      4 N           3.7480  -13.8424  -50.0228 N.am      1 UNK        -0.5000 
      5 CA          5.0937  -14.4311  -49.9197 C.3       1 UNK         0.1400 
      6 C6          5.3004  -15.6197  -50.8981 C.3       23 UNK        -0.0398 
      7 S7          4.6865  -15.2819  -52.5892 S.3       23 UNK        -0.2404 
      8 C8          3.7362  -16.7922  -52.9928 C.3       23 UNK        -0.0205 
      9 C9          2.6915  -17.1838  -51.9496 C.ar      23 UNK        -0.0193 
     10 C10         1.8038  -16.2406  -51.4227 C.ar      23 UNK        -0.1150 
     11 C11         0.8809  -16.6047  -50.4377 C.ar      23 UNK        -0.0193 
     12 C12         0.8128  -17.9354  -50.0138 C.ar      23 UNK        -0.1150 
     13 C13         1.6644  -18.8976  -50.5635 C.ar      23 UNK        -0.0193 
     14 C14         2.6100  -18.5114  -51.5178 C.ar      23 UNK        -0.1150 
     15 C15         1.5413  -20.3616  -50.1676 C.3       23 UNK        -0.0205 
     16 S16         2.5983  -20.7961  -48.7481 S.3       23 UNK        -0.2404 
     17 C17         1.4985  -20.4515  -47.3324 C.3       23 UNK        -0.0398 
     18 CA          0.7803  -21.7159  -46.7920 C.3       11 UNK         0.1400 
     19 N           0.2465  -21.5125  -45.4431 N.am      11 UNK        -0.5000 
     20 C          -0.3338  -22.4527  -44.6832 C.2       10 UNK         0.5000 
     21 O          -0.4309  -23.6341  -45.0119 O.2       10 UNK        -0.5000 
     22 CA         -0.9641  -21.9858  -43.3579 C.3       10 UNK         0.1400 
     23 CB          0.0993  -21.8443  -42.2592 C.3       10 UNK        -0.1800 
     24 N          -1.7047  -20.7309  -43.5016 N.am      10 UNK        -0.5000 
     25 C          -2.7983  -20.5849  -44.2646 C.2       9 UNK         0.5000 
     26 O          -3.3294  -21.5101  -44.8794 O.2       9 UNK        -0.5000 
     27 CA         -3.3635  -19.1595  -44.4081 C.3       9 UNK         0.1400 
     28 CB         -4.2126  -18.7769  -43.1870 C.3       9 UNK        -0.1800 
     29 N          -2.3159  -18.1589  -44.6146 N.am      9 UNK        -0.5000 
     30 C          -1.4995  -18.1259  -45.6777 C.2       8 UNK         0.5000 
     31 O          -1.5790  -18.9034  -46.6283 O.2       8 UNK        -0.5000 
     32 CA         -0.3634  -17.0903  -45.6469 C.3       8 UNK         0.1400 
     33 CB         -0.8771  -15.6993  -46.0453 C.3       8 UNK        -0.1800 
     34 N           0.2953  -17.0200  -44.3415 N.am      8 UNK        -0.5000 
     35 C           0.9577  -18.0315  -43.7627 C.2       7 UNK         0.5000 
     36 O           1.1441  -19.1180  -44.3043 O.2       7 UNK        -0.5000 
     37 CA          1.4524  -17.8189  -42.3220 C.3       7 UNK         0.1400 
     38 CB          2.8059  -17.0970  -42.2917 C.3       7 UNK        -0.1800 
     39 N           0.4804  -17.0811  -41.5195 N.am      7 UNK        -0.5000 
     40 C          -0.6957  -17.5818  -41.1172 C.2       6 UNK         0.5000 
     41 O          -1.0646  -18.7334  -41.3486 O.2       6 UNK        -0.5000 
     42 CA         -1.6299  -16.6143  -40.3692 C.3       6 UNK         0.1400 
     43 CB         -1.2715  -16.5580  -38.8769 C.3       6 UNK        -0.1800 
     44 N          -1.5908  -15.2625  -40.9309 N.am      6 UNK        -0.5000 
     45 C          -2.0557  -14.9407  -42.1462 C.2       5 UNK         0.5000 
     46 O          -2.6016  -15.7446  -42.9020 O.2       5 UNK        -0.5000 
     47 CA         -1.8311  -13.4889  -42.6088 C.3       5 UNK         0.1400 
     48 CB         -2.9463  -12.5747  -42.0802 C.3       5 UNK        -0.1800 
     49 N          -0.5268  -12.9479  -42.2115 N.am      5 UNK        -0.5000 
     50 C           0.6513  -13.4146  -42.6459 C.2       4 UNK         0.5000 
     51 O           0.7652  -14.3882  -43.3922 O.2       4 UNK        -0.5000 
     52 CA          1.9111  -12.7112  -42.1166 C.3       4 UNK         0.1400 
     53 CB          2.4291  -13.4129  -40.8521 C.3       4 UNK        -0.1800 
     54 N           2.9705  -12.7003  -43.1243 N.am      4 UNK        -0.5000 
     55 C           3.0422  -11.8349  -44.1413 C.2       3 UNK         0.5000 
     56 O           2.2245  -10.9316  -44.3234 O.2       3 UNK        -0.5000 
     57 CA          4.2299  -11.9820  -45.1120 C.3       3 UNK         0.1400 
     58 CB          5.5703  -11.6445  -44.4297 C.3       3 UNK        -0.1800 
     59 N           4.2869  -13.2697  -45.8127 N.am      3 UNK        -0.5000 
     60 C           4.5259  -14.4948  -45.3196 C.2       2 UNK         0.5000 
     61 O           4.7371  -14.7207  -44.1274 O.2       2 UNK        -0.5000 
     62 CA          4.5259  -15.6757  -46.3161 C.3       2 UNK         0.1400 
     63 CB          3.3537  -16.6236  -46.0357 C.3       2 UNK        -0.1800 
     64 N           4.4308  -15.2575  -47.7130 N.am      2 UNK        -0.5000 
     65 C           5.4547  -14.8682  -48.4830 C.2       1 UNK         0.5000 
     66 O           6.6263  -14.8360  -48.1054 O.2       1 UNK        -0.5000 
     67 C          -0.3143  -22.2098  -47.7587 C.2       11 UNK         0.5000 
     68 O          -0.1094  -23.2138  -48.4377 O.2       11 UNK        -0.5000 
     69 N          -1.4659  -21.5235  -47.7756 N.am      12 UNK        -0.5000 
     70 CA         -2.6315  -21.8681  -48.5912 C.3       12 UNK         0.1400 
     71 CB         -3.6974  -20.7743  -48.4366 C.3       12 UNK        -0.1800 
     72 C          -3.2169  -23.2541  -48.2631 C.2       12 UNK         0.5000 
     73 O          -3.6169  -23.9737  -49.1769 O.2       12 UNK        -0.5000 
     74 N          -3.2298  -23.6191  -46.9743 N.am      13 UNK        -0.5000 
     75 CA         -3.6263  -24.9448  -46.5037 C.3       13 UNK         0.1400 
     76 CB         -3.8129  -24.9170  -44.9792 C.3       13 UNK        -0.1800 
     77 C          -2.6253  -26.0394  -46.9210 C.2       13 UNK         0.5000 
     78 O          -3.0475  -27.0915  -47.4010 O.2       13 UNK        -0.5000 
     79 N          -1.3236  -25.7692  -46.7473 N.am      14 UNK        -0.5000 
     80 CA         -0.2276  -26.6846  -47.0721 C.3       14 UNK         0.1400 
     81 CB          1.0810  -26.1520  -46.4681 C.3       14 UNK        -0.1800 
     82 C          -0.0655  -26.9303  -48.5831 C.2       14 UNK         0.5000 
     83 O           0.1250  -28.0753  -48.9950 O.2       14 UNK        -0.5000 
     84 N          -0.1529  -25.8580  -49.3810 N.am      15 UNK        -0.5000 
     85 CA         -0.0668  -25.8963  -50.8430 C.3       15 UNK         0.1400 
     86 CB          0.2363  -24.4812  -51.3617 C.3       15 UNK        -0.1800 
     87 C          -1.3398  -26.4485  -51.5140 C.2       15 UNK         0.5000 
     88 O          -1.2740  -26.8568  -52.6746 O.2       15 UNK        -0.5000 
     89 N          -2.4579  -26.4423  -50.7735 N.am      16 UNK        -0.5000 
     90 CA         -3.8266  -26.7616  -51.1851 C.3       16 UNK         0.1400 
     91 CB         -3.9267  -28.1907  -51.7614 C.3       16 UNK        -0.1800 
     92 C          -4.4269  -25.6947  -52.1255 C.2       16 UNK         0.5000 
     93 O          -3.7644  -24.7119  -52.4679 O.2       16 UNK        -0.5000 
     94 N          -5.7025  -25.8958  -52.4914 N.am      17 UNK        -0.5000 
     95 CA         -6.5538  -24.9684  -53.2481 C.3       17 UNK         0.1400 
     96 CB         -6.0374  -24.7736  -54.6895 C.3       17 UNK        -0.1800 
     97 C          -6.7635  -23.6392  -52.4934 C.2       17 UNK         0.5000 
     98 O          -6.6628  -22.5597  -53.0787 O.2       17 UNK        -0.5000 
     99 N          -7.0652  -23.7455  -51.1911 N.am      18 UNK        -0.5000 
    100 CA        -7.2243  -22.6294  -50.2518 C.3       18 UNK         0.1400 
    101 CB        -7.3527  -23.1913  -48.8276 C.3       18 UNK        -0.1800 
    102 C         -8.3850  -21.6627  -50.5733 C.2       18 UNK         0.5000 
    103 O         -8.4202  -20.5638  -50.0210 O.2       18 UNK        -0.5000 
    104 N         -9.2946  -22.0636  -51.4726 N.am      19 UNK        -0.5000 
    105 CA       -10.3159  -21.1970  -52.0635 C.3       19 UNK         0.1400 
    106 CB       -11.3405  -22.0639  -52.8110 C.3       19 UNK        -0.1800 
    107 C         -9.7160  -20.1317  -53.0059 C.2       19 UNK         0.5000 
    108 O        -10.2510  -19.0251  -53.0824 O.2       19 UNK        -0.5000 
    109 N         -8.6155  -20.4771  -53.6897 N.am      20 UNK        -0.5000 
    110 CA        -7.8167  -19.5606  -54.5037 C.3       20 UNK         0.1400 
    111 CB        -7.2522  -20.3143  -55.7187 C.3       20 UNK        -0.1800 
    112 C         -6.6824  -18.9436  -53.6673 C.2       20 UNK         0.5000 
    113 O         -6.4344  -17.7428  -53.7786 O.2       20 UNK        -0.5000 
    114 N         -6.0492  -19.7736  -52.8241 N.am      21 UNK        -0.5000 
    115 CA        -4.9736  -19.4451  -51.8878 C.3       21 UNK         0.1400 
    116 CB        -5.4917  -18.5163  -50.7636 C.3       21 UNK        -0.1800 
    117 C         -3.7059  -18.9343  -52.6056 C.2       21 UNK         0.5000 
    118 O         -3.1633  -19.6525  -53.4469 O.2       21 UNK        -0.5000 
    119 N         -3.2396  -17.7398  -52.2256 N.am      22 UNK        -0.5000 
    120 CA        -2.0178  -17.0707  -52.6941 C.3       22 UNK         0.1400 
    121 C         -1.9565  -16.8762  -54.2349 C.2       22 UNK         0.5000 
    122 N         -0.8136  -17.1393  -54.8544 N.am      22 UNK        -0.7600 
    123 O         -2.9174  -16.4390  -54.8638 O.2       22 UNK        -0.5000 
    124 C124       -1.8391  -15.7064  -51.9813 C.3       23 UNK        -0.0398 
    125 S125       -1.7901  -15.8665  -50.1614 S.3       23 UNK        -0.2404 
    126 C126       -0.0311  -15.5559  -49.8206 C.3       23 UNK        -0.0205 
    127 H127        1.2177  -12.5423  -48.9485 H         1 UNK         0.0600 
    128 H128        1.5688  -12.6546  -50.6818 H         1 UNK         0.0600 
    129 H129        1.9080  -11.1629  -49.8090 H         1 UNK         0.0600 
    130 H130        3.1509  -14.2886  -50.7028 H         1 UNK         0.3000 
    131 H131        5.7979  -13.6447  -50.1992 H         1 UNK         0.0600 
    132 H132        4.8204  -16.5198  -50.5115 H         1 UNK         0.0800 
    133 H133        6.3622  -15.8614  -50.9700 H         1 UNK         0.0800 
    134 H134        3.2340  -16.6436  -53.9494 H         1 UNK         0.0800 
    135 H135        4.4464  -17.6067  -53.1439 H         1 UNK         0.0800 
    136 H136        1.8422  -15.2194  -51.7731 H         1 UNK         0.1150 
    137 H137        0.0801  -18.2206  -49.2719 H         1 UNK         0.1150 
    138 H138        3.2766  -19.2535  -51.9344 H         1 UNK         0.1150 
    139 H139        0.4989  -20.6052  -49.9619 H         1 UNK         0.0800 
    140 H140        1.8273  -20.9915  -51.0114 H         1 UNK         0.0800 
    141 H141        0.7897  -19.6636  -47.5841 H         1 UNK         0.0800 
    142 H142        2.1354  -20.0344  -46.5519 H         1 UNK         0.0800 
    143 H143        1.5223  -22.5127  -46.7076 H         1 UNK         0.0600 
    144 H144        0.3450  -20.5753  -45.0590 H         1 UNK         0.3000 
    145 H145       -1.6734  -22.7534  -43.0414 H         1 UNK         0.0600 
    146 H146       -0.3521  -21.5633  -41.3075 H         1 UNK         0.0600 
    147 H147        0.6260  -22.7867  -42.1045 H         1 UNK         0.0600 
    148 H148        0.8448  -21.0907  -42.5107 H         1 UNK         0.0600 
    149 H149       -1.3542  -19.9303  -42.9866 H         1 UNK         0.3000 
    150 H150       -4.0110  -19.1474  -45.2871 H         1 UNK         0.0600 
    151 H151       -5.0179  -19.4957  -43.0312 H         1 UNK         0.0600 
    152 H152       -4.6715  -17.7968  -43.3187 H         1 UNK         0.0600 
    153 H153       -3.6182  -18.7462  -42.2739 H         1 UNK         0.0600 
    154 H154       -2.2157  -17.4459  -43.8989 H         1 UNK         0.3000 
    155 H155        0.3799  -17.4011  -46.3834 H         1 UNK         0.0600 
    156 H156       -0.0553  -14.9917  -46.1564 H         1 UNK         0.0600 
    157 H157       -1.5657  -15.2964  -45.3045 H         1 UNK         0.0600 
    158 H158       -1.4137  -15.7364  -46.9935 H         1 UNK         0.0600 
    159 H159        0.2608  -16.1234  -43.8631 H         1 UNK         0.3000 
    160 H160        1.5890  -18.8018  -41.8666 H         1 UNK         0.0600 
    161 H161        3.1424  -16.9290  -41.2688 H         1 UNK         0.0600 
    162 H162        2.7611  -16.1316  -42.7959 H         1 UNK         0.0600 
    163 H163        3.5734  -17.6921  -42.7870 H         1 UNK         0.0600 
    164 H164        0.6862  -16.1124  -41.3298 H         1 UNK         0.3000 
    165 H165       -2.6492  -16.9953  -40.4626 H         1 UNK         0.0600 
    166 H166       -1.9726  -15.9301  -38.3268 H         1 UNK         0.0600 
    167 H167       -1.3078  -17.5525  -38.4299 H         1 UNK         0.0600 
    168 H168       -0.2680  -16.1620  -38.7161 H         1 UNK         0.0600 
    169 H169       -1.1602  -14.5424  -40.3700 H         1 UNK         0.3000 
    170 H170       -1.8764  -13.4801  -43.6996 H         1 UNK         0.0600 
    171 H171       -3.9283  -12.9450  -42.3780 H         1 UNK         0.0600 
    172 H172       -2.9356  -12.5117  -40.9913 H         1 UNK         0.0600 
    173 H173       -2.8485  -11.5638  -42.4764 H         1 UNK         0.0600 
    174 H174       -0.5408  -12.1517  -41.5903 H         1 UNK         0.3000 
    175 H175        1.6571  -11.6811  -41.8577 H         1 UNK         0.0600 
    176 H176        2.7306  -14.4403  -41.0530 H         1 UNK         0.0600 
    177 H177        3.2914  -12.8890  -40.4393 H         1 UNK         0.0600 
    178 H178        1.6643  -13.4396  -40.0749 H         1 UNK         0.0600 
    179 H179        3.6313  -13.4715  -43.1178 H         1 UNK         0.3000 
    180 H180        4.0791  -11.2378  -45.8957 H         1 UNK         0.0600 
    181 H181        6.3912  -11.6656  -45.1465 H         1 UNK         0.0600 
    182 H182        5.8114  -12.3391  -43.6248 H         1 UNK         0.0600 
    183 H183        5.5430  -10.6440  -43.9965 H         1 UNK         0.0600 
    184 H184        4.1368  -13.1927  -46.8127 H         1 UNK         0.3000 
    185 H185        5.4562  -16.2294  -46.1733 H         1 UNK         0.0600 
    186 H186        3.3029  -17.4305  -46.7674 H         1 UNK         0.0600 
    187 H187        3.4614  -17.0870  -45.0574 H         1 UNK         0.0600 
    188 H188        2.4028  -16.0911  -46.0512 H         1 UNK         0.0600 
    189 H189        3.5058  -15.2443  -48.1166 H         1 UNK         0.3000 
    190 H190       -1.5467  -20.6841  -47.2059 H         1 UNK         0.3000 
    191 H191       -2.3102  -21.8866  -49.6347 H         1 UNK         0.0600 
    192 H192       -4.5765  -20.9923  -49.0418 H         1 UNK         0.0600 
    193 H193       -3.3106  -19.8055  -48.7522 H         1 UNK         0.0600 
    194 H194       -4.0291  -20.6791  -47.4026 H         1 UNK         0.0600 
    195 H195       -2.9435  -22.9461  -46.2706 H         1 UNK         0.3000 
    196 H196       -4.5911  -25.1872  -46.9544 H         1 UNK         0.0600 
    197 H197       -2.8892  -24.6566  -44.4623 H         1 UNK         0.0600 
    198 H198       -4.5721  -24.1902  -44.6896 H         1 UNK         0.0600 
    199 H199       -4.1346  -25.8905  -44.6075 H         1 UNK         0.0600 
    200 H200       -1.0602  -24.8897  -46.3100 H         1 UNK         0.3000 
    201 H201       -0.4470  -27.6462  -46.6034 H         1 UNK         0.0600 
    202 H202        1.3340  -25.1669  -46.8620 H         1 UNK         0.0600 
    203 H203        1.9150  -26.8196  -46.6881 H         1 UNK         0.0600 
    204 H204        1.0084  -26.0689  -45.3836 H         1 UNK         0.0600 
    205 H205       -0.2608  -24.9359  -48.9600 H         1 UNK         0.3000 
    206 H206        0.7641  -26.5470  -51.1231 H         1 UNK         0.0600 
    207 H207        1.1529  -24.0858  -50.9233 H         1 UNK         0.0600 
    208 H208        0.3656  -24.4803  -52.4447 H         1 UNK         0.0600 
    209 H209       -0.5734  -23.7883  -51.1278 H         1 UNK         0.0600 
    210 H210       -2.3859  -26.0300  -49.8533 H         1 UNK         0.3000 
    211 H211       -4.4150  -26.7300  -50.2668 H         1 UNK         0.0600 
    212 H212       -4.9648  -28.5139  -51.8397 H         1 UNK         0.0600 
    213 H213       -3.4163  -28.9102  -51.1209 H         1 UNK         0.0600 
    214 H214       -3.4909  -28.2605  -52.7584 H         1 UNK         0.0600 
    215 H215       -6.1625  -26.7347  -52.1664 H         1 UNK         0.3000 
    216 H216       -7.5363  -25.4373  -53.3162 H         1 UNK         0.0600 
    217 H217       -6.7459  -24.1919  -55.2805 H         1 UNK         0.0600 
    218 H218       -5.0846  -24.2443  -54.7152 H         1 UNK         0.0600 
    219 H219       -5.9033  -25.7308  -55.1930 H         1 UNK         0.0600 
    220 H220       -7.1312  -24.6708  -50.7932 H         1 UNK         0.3000 
    221 H221       -6.3074  -22.0402  -50.2987 H         1 UNK         0.0600 
    222 H222       -6.4832  -23.7925  -48.5607 H         1 UNK         0.0600 
    223 H223       -8.2407  -23.8152  -48.7206 H         1 UNK         0.0600 
    224 H224       -7.4245  -22.3874  -48.0937 H         1 UNK         0.0600 
    225 H225       -9.2077  -22.9927  -51.8560 H         1 UNK         0.3000 
    226 H226      -10.8335  -20.6752  -51.2556 H         1 UNK         0.0600 
    227 H227      -10.8778  -22.6247  -53.6241 H         1 UNK         0.0600 
    228 H228      -11.8186  -22.7772  -52.1394 H         1 UNK         0.0600 
    229 H229      -12.1296  -21.4480  -53.2445 H         1 UNK         0.0600 
    230 H230       -8.2079  -21.3912  -53.5282 H         1 UNK         0.3000 
    231 H231       -8.4454  -18.7486  -54.8753 H         1 UNK         0.0600 
    232 H232       -6.6044  -21.1399  -55.4215 H         1 UNK         0.0600 
    233 H233       -6.6639  -19.6476  -56.3504 H         1 UNK         0.0600 
    234 H234       -8.0535  -20.7233  -56.3342 H         1 UNK         0.0600 
    235 H235       -6.2827  -20.7618  -52.8813 H         1 UNK         0.3000 
    236 H236       -4.6856  -20.3889  -51.4238 H         1 UNK         0.0600 
    237 H237       -4.7199  -18.3191  -50.0191 H         1 UNK         0.0600 
    238 H238       -5.8351  -17.5549  -51.1465 H         1 UNK         0.0600 
    239 H239       -6.3265  -18.9738  -50.2350 H         1 UNK         0.0600 
    240 H240       -3.7658  -17.2275  -51.5339 H         1 UNK         0.3000 
    241 H241       -1.1847  -17.7145  -52.4051 H         1 UNK         0.0600 
    242 H242       -0.7549  -17.0005  -55.8512 H         1 UNK         0.3800 
    243 H243       -0.0108  -17.4910  -54.3563 H         1 UNK         0.3800 
    244 H244       -2.6603  -15.0345  -52.2375 H         1 UNK         0.0800 
    245 H245       -0.9297  -15.2102  -52.3246 H         1 UNK         0.0800 
    246 H246        0.1331  -15.5408  -48.7440 H         1 UNK         0.0800 
    247 H247        0.2193  -14.5587  -50.1803 H         1 UNK         0.0800 
@<TRIPOS>BOND
     1    1    2 1    
     2    1  127 1    
     3    1  128 1    
     4    1  129 1    
     5    2    3 2    
     6    2    4 am   BACKBONE|DICT|INTERRES
     7    4    5 1    
     8    4  130 1    
     9    5    6 1    
    10    5   65 1    
    11    5  131 1    
    12    6    7 1    
    13    6  132 1    
    14    6  133 1    
    15    7    8 1    
    16    8    9 1    
    17    8  134 1    
    18    8  135 1    
    19    9   10 ar   
    20    9   14 ar   
    21   10   11 ar   
    22   10  136 1    
    23   11   12 ar   
    24   11  126 1    
    25   12   13 ar   
    26   12  137 1    
    27   13   14 ar   
    28   13   15 1    
    29   14  138 1    
    30   15   16 1    
    31   15  139 1    
    32   15  140 1    
    33   16   17 1    
    34   17   18 1    
    35   17  141 1    
    36   17  142 1    
    37   18   19 1    
    38   18   67 1    
    39   18  143 1    
    40   19   20 am   BACKBONE|DICT|INTERRES
    41   19  144 1    
    42   20   21 2    
    43   20   22 1    
    44   22   23 1    
    45   22   24 1    
    46   22  145 1    
    47   23  146 1    
    48   23  147 1    
    49   23  148 1    
    50   24   25 am   BACKBONE|DICT|INTERRES
    51   24  149 1    
    52   25   26 2    
    53   25   27 1    
    54   27   28 1    
    55   27   29 1    
    56   27  150 1    
    57   28  151 1    
    58   28  152 1    
    59   28  153 1    
    60   29   30 am   BACKBONE|DICT|INTERRES
    61   29  154 1    
    62   30   31 2    
    63   30   32 1    
    64   32   33 1    
    65   32   34 1    
    66   32  155 1    
    67   33  156 1    
    68   33  157 1    
    69   33  158 1    
    70   34   35 am   BACKBONE|DICT|INTERRES
    71   34  159 1    
    72   35   36 2    
    73   35   37 1    
    74   37   38 1    
    75   37   39 1    
    76   37  160 1    
    77   38  161 1    
    78   38  162 1    
    79   38  163 1    
    80   39   40 am   BACKBONE|DICT|INTERRES
    81   39  164 1    
    82   40   41 2    
    83   40   42 1    
    84   42   43 1    
    85   42   44 1    
    86   42  165 1    
    87   43  166 1    
    88   43  167 1    
    89   43  168 1    
    90   44   45 am   BACKBONE|DICT|INTERRES
    91   44  169 1    
    92   45   46 2    
    93   45   47 1    
    94   47   48 1    
    95   47   49 1    
    96   47  170 1    
    97   48  171 1    
    98   48  172 1    
    99   48  173 1    
   100   49   50 am   BACKBONE|DICT|INTERRES
   101   49  174 1    
   102   50   51 2    
   103   50   52 1    
   104   52   53 1    
   105   52   54 1    
   106   52  175 1    
   107   53  176 1    
   108   53  177 1    
   109   53  178 1    
   110   54   55 am   BACKBONE|DICT|INTERRES
   111   54  179 1    
   112   55   56 2    
   113   55   57 1    
   114   57   58 1    
   115   57   59 1    
   116   57  180 1    
   117   58  181 1    
   118   58  182 1    
   119   58  183 1    
   120   59   60 am   BACKBONE|DICT|INTERRES
   121   59  184 1    
   122   60   61 2    
   123   60   62 1    
   124   62   63 1    
   125   62   64 1    
   126   62  185 1    
   127   63  186 1    
   128   63  187 1    
   129   63  188 1    
   130   64   65 am   BACKBONE|DICT|INTERRES
   131   64  189 1    
   132   65   66 2    
   133   67   68 2    
   134   67   69 am   BACKBONE|DICT|INTERRES
   135   69   70 1    
   136   69  190 1    
   137   70   71 1    
   138   70   72 1    
   139   70  191 1    
   140   71  192 1    
   141   71  193 1    
   142   71  194 1    
   143   72   73 2    
   144   72   74 am   BACKBONE|DICT|INTERRES
   145   74   75 1    
   146   74  195 1    
   147   75   76 1    
   148   75   77 1    
   149   75  196 1    
   150   76  197 1    
   151   76  198 1    
   152   76  199 1    
   153   77   78 2    
   154   77   79 am   BACKBONE|DICT|INTERRES
   155   79   80 1    
   156   79  200 1    
   157   80   81 1    
   158   80   82 1    
   159   80  201 1    
   160   81  202 1    
   161   81  203 1    
   162   81  204 1    
   163   82   83 2    
   164   82   84 am   BACKBONE|DICT|INTERRES
   165   84   85 1    
   166   84  205 1    
   167   85   86 1    
   168   85   87 1    
   169   85  206 1    
   170   86  207 1    
   171   86  208 1    
   172   86  209 1    
   173   87   88 2    
   174   87   89 am   BACKBONE|DICT|INTERRES
   175   89   90 1    
   176   89  210 1    
   177   90   91 1    
   178   90   92 1    
   179   90  211 1    
   180   91  212 1    
   181   91  213 1    
   182   91  214 1    
   183   92   93 2    
   184   92   94 am   BACKBONE|DICT|INTERRES
   185   94   95 1    
   186   94  215 1    
   187   95   96 1    
   188   95   97 1    
   189   95  216 1    
   190   96  217 1    
   191   96  218 1    
   192   96  219 1    
   193   97   98 2    
   194   97   99 am   BACKBONE|DICT|INTERRES
   195   99  100 1    
   196   99  220 1    
   197  100  101 1    
   198  100  102 1    
   199  100  221 1    
   200  101  222 1    
   201  101  223 1    
   202  101  224 1    
   203  102  103 2    
   204  102  104 am   BACKBONE|DICT|INTERRES
   205  104  105 1    
   206  104  225 1    
   207  105  106 1    
   208  105  107 1    
   209  105  226 1    
   210  106  227 1    
   211  106  228 1    
   212  106  229 1    
   213  107  108 2    
   214  107  109 am   BACKBONE|DICT|INTERRES
   215  109  110 1    
   216  109  230 1    
   217  110  111 1    
   218  110  112 1    
   219  110  231 1    
   220  111  232 1    
   221  111  233 1    
   222  111  234 1    
   223  112  113 2    
   224  112  114 am   BACKBONE|DICT|INTERRES
   225  114  115 1    
   226  114  235 1    
   227  115  116 1    
   228  115  117 1    
   229  115  236 1    
   230  116  237 1    
   231  116  238 1    
   232  116  239 1    
   233  117  118 2    
   234  117  119 am   BACKBONE|DICT|INTERRES
   235  119  120 1    
   236  119  240 1    
   237  120  121 1    
   238  120  124 1    
   239  120  241 1    
   240  121  122 am   BACKBONE|DICT|INTERRES
   241  121  123 2    
   242  122  242 1    
   243  122  243 1    
   244  124  125 1    
   245  124  244 1    
   246  124  245 1    
   247  125  126 1    
   248  126  246 1    
   249  126  247 1    
@<TRIPOS>SUBSTRUCTURE
     1 UNK         1 GROUP             0       ****    0 ROOT    
