@<TRIPOS>MOLECULE
3R540
247   249    1
SMALL
USER_CHARGES


@<TRIPOS>ATOM
      1 CA         -4.5209  -15.3044  -45.3964 C.3       0 UNK        -0.1800 
      2 C          -3.3843  -14.2964  -45.3132 C.2       0 UNK         0.5000 
      3 O          -3.5631  -13.2051  -44.7724 O.2       0 UNK        -0.5000 
      4 N          -2.2056  -14.6661  -45.8289 N.am      1 UNK        -0.5000 
      5 CA         -0.9777  -13.8592  -45.8894 C.3       1 UNK         0.1400 
      6 C6         -0.0153  -14.3830  -46.9872 C.3       23 UNK        -0.0398 
      7 S7         -0.7481  -14.3149  -48.6533 S.3       23 UNK        -0.2404 
      8 C8          0.5828  -15.0489  -49.6618 C.3       23 UNK        -0.0205 
      9 C9          0.3023  -16.4932  -50.0625 C.ar      23 UNK        -0.0193 
     10 C10        -0.8365  -16.7983  -50.8130 C.ar      23 UNK        -0.1150 
     11 C11        -1.0824  -18.1045  -51.2504 C.ar      23 UNK        -0.0193 
     12 C12        -0.1456  -19.1033  -50.9602 C.ar      23 UNK        -0.1150 
     13 C13         1.0093  -18.8145  -50.2241 C.ar      23 UNK        -0.0193 
     14 C14         1.2150  -17.5094  -49.7611 C.ar      23 UNK        -0.1150 
     15 C15         2.0885  -19.8756  -50.0130 C.3       23 UNK        -0.0205 
     16 S16         1.4777  -21.4672  -49.3617 S.3       23 UNK        -0.2404 
     17 C17         1.0809  -21.0256  -47.6372 C.3       23 UNK        -0.0398 
     18 CA         -0.2765  -21.5862  -47.1515 C.3       11 UNK         0.1400 
     19 N          -0.4548  -21.4071  -45.7084 N.am      11 UNK        -0.5000 
     20 C          -1.4911  -21.8651  -44.9901 C.2       10 UNK         0.5000 
     21 O          -2.3939  -22.5622  -45.4535 O.2       10 UNK        -0.5000 
     22 CA         -1.5626  -21.4143  -43.5189 C.3       10 UNK         0.1400 
     23 CB         -0.6397  -22.2639  -42.6330 C.3       10 UNK        -0.1800 
     24 N          -1.2384  -19.9961  -43.3544 N.am      10 UNK        -0.5000 
     25 C          -1.9494  -18.9914  -43.8865 C.2       9 UNK         0.5000 
     26 O          -2.9914  -19.1484  -44.5214 O.2       9 UNK        -0.5000 
     27 CA         -1.3685  -17.5764  -43.7359 C.3       9 UNK         0.1400 
     28 CB         -1.6630  -17.0116  -42.3407 C.3       9 UNK        -0.1800 
     29 N           0.0676  -17.5295  -44.0202 N.am      9 UNK        -0.5000 
     30 C           0.6054  -17.8166  -45.2149 C.2       8 UNK         0.5000 
     31 O          -0.0668  -18.0419  -46.2191 O.2       8 UNK        -0.5000 
     32 CA          2.1386  -17.9336  -45.2978 C.3       8 UNK         0.1400 
     33 CB          2.8010  -16.5844  -45.6037 C.3       8 UNK        -0.1800 
     34 N           2.7056  -18.5001  -44.0759 N.am      8 UNK        -0.5000 
     35 C           2.5922  -19.7884  -43.7241 C.2       7 UNK         0.5000 
     36 O           2.0408  -20.6376  -44.4229 O.2       7 UNK        -0.5000 
     37 CA          3.1473  -20.1816  -42.3425 C.3       7 UNK         0.1400 
     38 CB          4.6468  -20.5001  -42.4342 C.3       7 UNK        -0.1800 
     39 N           2.9346  -19.1362  -41.3404 N.am      7 UNK        -0.5000 
     40 C           1.7321  -18.7589  -40.8821 C.2       6 UNK         0.5000 
     41 O           0.6806  -19.3145  -41.1986 O.2       6 UNK        -0.5000 
     42 CA          1.6995  -17.5148  -39.9703 C.3       6 UNK         0.1400 
     43 CB          1.8655  -17.9180  -38.4982 C.3       6 UNK        -0.1800 
     44 N           2.7265  -16.5283  -40.3264 N.am      6 UNK        -0.5000 
     45 C           2.7523  -15.8614  -41.4877 C.2       5 UNK         0.5000 
     46 O           1.8706  -15.9585  -42.3421 O.2       5 UNK        -0.5000 
     47 CA          4.0132  -15.0392  -41.7810 C.3       5 UNK         0.1400 
     48 CB          5.1491  -15.9885  -42.2221 C.3       5 UNK        -0.1800 
     49 N           3.7342  -14.0531  -42.8252 N.am      5 UNK        -0.5000 
     50 C           4.5724  -13.0798  -43.2091 C.2       4 UNK         0.5000 
     51 O           5.6776  -12.8861  -42.7009 O.2       4 UNK        -0.5000 
     52 CA          4.0908  -12.1424  -44.3274 C.3       4 UNK         0.1400 
     53 CB          3.9743  -12.8738  -45.6753 C.3       4 UNK        -0.1800 
     54 N           2.8107  -11.5392  -43.9692 N.am      4 UNK        -0.5000 
     55 C           2.6855  -10.4184  -43.2421 C.2       3 UNK         0.5000 
     56 O           3.6396   -9.7277  -42.8819 O.2       3 UNK        -0.5000 
     57 CA          1.2596   -9.9889  -42.8398 C.3       3 UNK         0.1400 
     58 CB          0.7124   -8.9475  -43.8279 C.3       3 UNK        -0.1800 
     59 N           0.3225  -11.1086  -42.7642 N.am      3 UNK        -0.5000 
     60 C           0.3785  -12.0966  -41.8608 C.2       2 UNK         0.5000 
     61 O           1.1658  -12.1153  -40.9143 O.2       2 UNK        -0.5000 
     62 CA         -0.5831  -13.2807  -42.0698 C.3       2 UNK         0.1400 
     63 CB         -1.8062  -13.1567  -41.1492 C.3       2 UNK        -0.1800 
     64 N          -1.0441  -13.4469  -43.4534 N.am      2 UNK        -0.5000 
     65 C          -0.2726  -13.7158  -44.5152 C.2       1 UNK         0.5000 
     66 O           0.9526  -13.8120  -44.4347 O.2       1 UNK        -0.5000 
     67 C          -1.4570  -21.0001  -47.9500 C.2       11 UNK         0.5000 
     68 O          -2.0031  -21.6961  -48.8039 O.2       11 UNK        -0.5000 
     69 N          -1.8521  -19.7603  -47.6347 N.am      12 UNK        -0.5000 
     70 CA         -2.9782  -19.0699  -48.2574 C.3       12 UNK         0.1400 
     71 CB         -2.9848  -17.6009  -47.8163 C.3       12 UNK        -0.1800 
     72 C          -4.3306  -19.7450  -47.9739 C.2       12 UNK         0.5000 
     73 O          -5.1347  -19.8899  -48.8939 O.2       12 UNK        -0.5000 
     74 N          -4.5406  -20.1847  -46.7250 N.am      13 UNK        -0.5000 
     75 CA         -5.7363  -20.9063  -46.2841 C.3       13 UNK         0.1400 
     76 CB         -5.7091  -21.0596  -44.7560 C.3       13 UNK        -0.1800 
     77 C          -5.9012  -22.2768  -46.9683 C.2       13 UNK         0.5000 
     78 O          -7.0138  -22.6294  -47.3612 O.2       13 UNK        -0.5000 
     79 N          -4.7910  -23.0104  -47.1243 N.am      14 UNK        -0.5000 
     80 CA         -4.7337  -24.2862  -47.8431 C.3       14 UNK         0.1400 
     81 CB         -3.4972  -25.0629  -47.3627 C.3       14 UNK        -0.1800 
     82 C          -4.6816  -24.1194  -49.3750 C.2       14 UNK         0.5000 
     83 O          -4.8210  -25.1093  -50.0946 O.2       14 UNK        -0.5000 
     84 N          -4.4109  -22.8940  -49.8436 N.am      15 UNK        -0.5000 
     85 CA         -4.1084  -22.5030  -51.2217 C.3       15 UNK         0.1400 
     86 CB         -5.3755  -22.5588  -52.0957 C.3       15 UNK        -0.1800 
     87 C          -2.9230  -23.2917  -51.8122 C.2       15 UNK         0.5000 
     88 O          -2.9890  -23.7447  -52.9551 O.2       15 UNK        -0.5000 
     89 N          -1.8742  -23.4736  -50.9975 N.am      16 UNK        -0.5000 
     90 CA         -0.6863  -24.2995  -51.2493 C.3       16 UNK         0.1400 
     91 CB          0.1942  -23.6626  -52.3420 C.3       16 UNK        -0.1800 
     92 C          -1.0389  -25.7744  -51.5515 C.2       16 UNK         0.5000 
     93 O          -0.4260  -26.3900  -52.4242 O.2       16 UNK        -0.5000 
     94 N          -2.0437  -26.2940  -50.8294 N.am      17 UNK        -0.5000 
     95 CA         -2.7083  -27.5870  -51.0237 C.3       17 UNK         0.1400 
     96 CB         -1.7323  -28.7667  -50.8271 C.3       17 UNK        -0.1800 
     97 C          -3.4788  -27.6310  -52.3602 C.2       17 UNK         0.5000 
     98 O          -3.3019  -28.5582  -53.1527 O.2       17 UNK        -0.5000 
     99 N          -4.3250  -26.6099  -52.5656 N.am      18 UNK        -0.5000 
    100 CA        -5.1966  -26.3817  -53.7239 C.3       18 UNK         0.1400 
    101 CB        -6.3459  -27.4108  -53.7363 C.3       18 UNK        -0.1800 
    102 C         -4.4318  -26.3097  -55.0637 C.2       18 UNK         0.5000 
    103 O         -4.8084  -26.9790  -56.0287 O.2       18 UNK        -0.5000 
    104 N         -3.3642  -25.5039  -55.0909 N.am      19 UNK        -0.5000 
    105 CA        -2.4753  -25.3308  -56.2406 C.3       19 UNK         0.1400 
    106 CB        -1.1603  -26.0787  -55.9692 C.3       19 UNK        -0.1800 
    107 C         -2.1927  -23.8542  -56.5702 C.2       19 UNK         0.5000 
    108 O         -1.9286  -23.5480  -57.7343 O.2       19 UNK        -0.5000 
    109 N         -2.2282  -22.9669  -55.5676 N.am      20 UNK        -0.5000 
    110 CA        -1.9373  -21.5412  -55.7189 C.3       20 UNK         0.1400 
    111 CB        -1.2840  -21.0255  -54.4268 C.3       20 UNK        -0.1800 
    112 C         -3.1953  -20.7227  -56.0597 C.2       20 UNK         0.5000 
    113 O         -4.3225  -21.2093  -55.9306 O.2       20 UNK        -0.5000 
    114 N         -2.9650  -19.4603  -56.4482 N.am      21 UNK        -0.5000 
    115 CA        -3.9651  -18.4748  -56.8783 C.3       21 UNK         0.1400 
    116 CB        -3.2315  -17.2058  -57.3408 C.3       21 UNK        -0.1800 
    117 C         -5.0438  -18.1192  -55.8331 C.2       21 UNK         0.5000 
    118 O         -6.0723  -17.5513  -56.2038 O.2       21 UNK        -0.5000 
    119 N         -4.8089  -18.4695  -54.5620 N.am      22 UNK        -0.5000 
    120 CA        -5.8023  -18.4080  -53.4779 C.3       22 UNK         0.1400 
    121 C         -7.0019  -19.3879  -53.6619 C.2       22 UNK         0.5000 
    122 N         -6.8977  -20.4247  -54.4877 N.am      22 UNK        -0.7600 
    123 O         -8.0465  -19.1991  -53.0452 O.2       22 UNK        -0.5000 
    124 C124       -5.1604  -18.6296  -52.0848 C.3       23 UNK        -0.0398 
    125 S125       -3.8099  -17.4714  -51.6740 S.3       23 UNK        -0.2404 
    126 C126       -2.3222  -18.4589  -52.0712 C.3       23 UNK        -0.0205 
    127 H127       -4.2316  -16.2538  -44.9457 H         1 UNK         0.0600 
    128 H128       -4.7985  -15.4803  -46.4356 H         1 UNK         0.0600 
    129 H129       -5.4010  -14.9367  -44.8686 H         1 UNK         0.0600 
    130 H130       -2.1314  -15.5702  -46.2715 H         1 UNK         0.3000 
    131 H131       -1.2663  -12.8452  -46.1739 H         1 UNK         0.0600 
    132 H132        0.9041  -13.7949  -47.0113 H         1 UNK         0.0800 
    133 H133        0.2750  -15.4114  -46.7812 H         1 UNK         0.0800 
    134 H134        0.6878  -14.4575  -50.5722 H         1 UNK         0.0800 
    135 H135        1.5367  -14.9663  -49.1388 H         1 UNK         0.0800 
    136 H136       -1.5278  -16.0056  -51.0601 H         1 UNK         0.1150 
    137 H137       -0.3037  -20.1090  -51.3245 H         1 UNK         0.1150 
    138 H138        2.1125  -17.2726  -49.2074 H         1 UNK         0.1150 
    139 H139        2.5684  -20.0632  -50.9743 H         1 UNK         0.0800 
    140 H140        2.8729  -19.5054  -49.3510 H         1 UNK         0.0800 
    141 H141        1.1041  -19.9425  -47.5301 H         1 UNK         0.0800 
    142 H142        1.8867  -21.4103  -47.0111 H         1 UNK         0.0800 
    143 H143       -0.2727  -22.6638  -47.3287 H         1 UNK         0.0600 
    144 H144        0.2770  -20.8954  -45.2254 H         1 UNK         0.3000 
    145 H145       -2.5889  -21.5614  -43.1765 H         1 UNK         0.0600 
    146 H146       -0.7312  -21.9809  -41.5842 H         1 UNK         0.0600 
    147 H147       -0.8933  -23.3219  -42.7089 H         1 UNK         0.0600 
    148 H148        0.4070  -22.1565  -42.9167 H         1 UNK         0.0600 
    149 H149       -0.4214  -19.7722  -42.7946 H         1 UNK         0.3000 
    150 H150       -1.8661  -16.9407  -44.4662 H         1 UNK         0.0600 
    151 H151       -2.7373  -16.9091  -42.1839 H         1 UNK         0.0600 
    152 H152       -1.2214  -16.0276  -42.2166 H         1 UNK         0.0600 
    153 H153       -1.2782  -17.6510  -41.5479 H         1 UNK         0.0600 
    154 H154        0.6847  -17.2591  -43.2615 H         1 UNK         0.3000 
    155 H155        2.3784  -18.6060  -46.1230 H         1 UNK         0.0600 
    156 H156        2.5627  -15.8391  -44.8481 H         1 UNK         0.0600 
    157 H157        2.4713  -16.1969  -46.5675 H         1 UNK         0.0600 
    158 H158        3.8860  -16.6774  -45.6501 H         1 UNK         0.0600 
    159 H159        3.1207  -17.8512  -43.4257 H         1 UNK         0.3000 
    160 H160        2.6234  -21.0822  -42.0152 H         1 UNK         0.0600 
    161 H161        5.2279  -19.6281  -42.7373 H         1 UNK         0.0600 
    162 H162        4.8336  -21.2892  -43.1639 H         1 UNK         0.0600 
    163 H163        5.0354  -20.8465  -41.4764 H         1 UNK         0.0600 
    164 H164        3.7514  -18.6414  -41.0156 H         1 UNK         0.3000 
    165 H165        0.7216  -17.0432  -40.0878 H         1 UNK         0.0600 
    166 H166        1.7704  -17.0543  -37.8399 H         1 UNK         0.0600 
    167 H167        1.0998  -18.6364  -38.2022 H         1 UNK         0.0600 
    168 H168        2.8369  -18.3779  -38.3120 H         1 UNK         0.0600 
    169 H169        3.4831  -16.4058  -39.6685 H         1 UNK         0.3000 
    170 H170        4.3010  -14.5128  -40.8689 H         1 UNK         0.0600 
    171 H171        5.3194  -16.7766  -41.4878 H         1 UNK         0.0600 
    172 H172        4.9230  -16.4690  -43.1745 H         1 UNK         0.0600 
    173 H173        6.0957  -15.4612  -42.3355 H         1 UNK         0.0600 
    174 H174        2.8219  -14.1446  -43.2636 H         1 UNK         0.3000 
    175 H175        4.8399  -11.3572  -44.4516 H         1 UNK         0.0600 
    176 H176        3.2345  -13.6716  -45.6503 H         1 UNK         0.0600 
    177 H177        3.6915  -12.1849  -46.4712 H         1 UNK         0.0600 
    178 H178        4.9275  -13.3226  -45.9569 H         1 UNK         0.0600 
    179 H179        1.9856  -12.0905  -44.1755 H         1 UNK         0.3000 
    180 H180        1.3191   -9.5275  -41.8518 H         1 UNK         0.0600 
    181 H181        0.6156   -9.3585  -44.8336 H         1 UNK         0.0600 
    182 H182        1.3739   -8.0823  -43.8892 H         1 UNK         0.0600 
    183 H183       -0.2673   -8.5842  -43.5167 H         1 UNK         0.0600 
    184 H184       -0.3699  -11.1726  -43.4955 H         1 UNK         0.3000 
    185 H185       -0.0304  -14.1775  -41.7892 H         1 UNK         0.0600 
    186 H186       -1.5032  -13.0631  -40.1055 H         1 UNK         0.0600 
    187 H187       -2.4074  -12.2812  -41.3977 H         1 UNK         0.0600 
    188 H188       -2.4475  -14.0351  -41.2226 H         1 UNK         0.0600 
    189 H189       -2.0396  -13.3351  -43.6237 H         1 UNK         0.3000 
    190 H190       -1.3110  -19.2269  -46.9588 H         1 UNK         0.3000 
    191 H191       -2.8239  -19.1013  -49.3350 H         1 UNK         0.0600 
    192 H192       -2.0537  -17.1069  -48.0937 H         1 UNK         0.0600 
    193 H193       -3.7991  -17.0527  -48.2915 H         1 UNK         0.0600 
    194 H194       -3.1038  -17.5128  -46.7375 H         1 UNK         0.0600 
    195 H195       -3.8444  -19.9811  -46.0121 H         1 UNK         0.3000 
    196 H196       -6.6047  -20.2991  -46.5476 H         1 UNK         0.0600 
    197 H197       -6.5999  -21.5776  -44.3985 H         1 UNK         0.0600 
    198 H198       -5.6779  -20.0877  -44.2633 H         1 UNK         0.0600 
    199 H199       -4.8411  -21.6299  -44.4242 H         1 UNK         0.0600 
    200 H200       -3.9206  -22.6780  -46.7177 H         1 UNK         0.3000 
    201 H201       -5.6230  -24.8725  -47.6034 H         1 UNK         0.0600 
    202 H202       -3.5285  -25.2241  -46.2850 H         1 UNK         0.0600 
    203 H203       -2.5739  -24.5287  -47.5924 H         1 UNK         0.0600 
    204 H204       -3.4386  -26.0442  -47.8352 H         1 UNK         0.0600 
    205 H205       -4.2678  -22.1654  -49.1564 H         1 UNK         0.3000 
    206 H206       -3.7738  -21.4684  -51.1707 H         1 UNK         0.0600 
    207 H207       -6.1497  -21.8995  -51.7032 H         1 UNK         0.0600 
    208 H208       -5.1641  -22.2398  -53.1170 H         1 UNK         0.0600 
    209 H209       -5.7907  -23.5644  -52.1435 H         1 UNK         0.0600 
    210 H210       -1.9024  -22.9946  -50.0986 H         1 UNK         0.3000 
    211 H211       -0.1128  -24.3014  -50.3213 H         1 UNK         0.0600 
    212 H212       -0.2768  -23.7237  -53.3230 H         1 UNK         0.0600 
    213 H213        1.1567  -24.1703  -52.4114 H         1 UNK         0.0600 
    214 H214        0.3966  -22.6140  -52.1247 H         1 UNK         0.0600 
    215 H215       -2.5052  -25.6769  -50.1767 H         1 UNK         0.3000 
    216 H216       -3.4617  -27.6604  -50.2379 H         1 UNK         0.0600 
    217 H217       -2.2685  -29.7162  -50.8345 H         1 UNK         0.0600 
    218 H218       -1.2138  -28.6941  -49.8713 H         1 UNK         0.0600 
    219 H219       -0.9804  -28.8148  -51.6149 H         1 UNK         0.0600 
    220 H220       -4.4049  -25.9205  -51.8233 H         1 UNK         0.3000 
    221 H221       -5.6435  -25.3977  -53.5830 H         1 UNK         0.0600 
    222 H222       -5.9801  -28.4249  -53.9001 H         1 UNK         0.0600 
    223 H223       -6.8933  -27.4001  -52.7937 H         1 UNK         0.0600 
    224 H224       -7.0620  -27.1884  -54.5283 H         1 UNK         0.0600 
    225 H225       -3.1457  -24.9676  -54.2534 H         1 UNK         0.3000 
    226 H226       -2.9305  -25.7618  -57.1346 H         1 UNK         0.0600 
    227 H227       -1.3397  -27.1392  -55.7906 H         1 UNK         0.0600 
    228 H228       -0.4809  -26.0003  -56.8187 H         1 UNK         0.0600 
    229 H229       -0.6449  -25.6764  -55.0963 H         1 UNK         0.0600 
    230 H230       -2.5089  -23.2689  -54.6390 H         1 UNK         0.3000 
    231 H231       -1.2212  -21.4025  -56.5318 H         1 UNK         0.0600 
    232 H232       -1.9361  -21.1547  -53.5644 H         1 UNK         0.0600 
    233 H233       -1.0332  -19.9674  -54.5006 H         1 UNK         0.0600 
    234 H234       -0.3506  -21.5495  -54.2283 H         1 UNK         0.0600 
    235 H235       -2.0056  -19.1504  -56.5063 H         1 UNK         0.3000 
    236 H236       -4.4878  -18.8990  -57.7379 H         1 UNK         0.0600 
    237 H237       -2.5396  -17.4227  -58.1549 H         1 UNK         0.0600 
    238 H238       -3.9346  -16.4567  -57.7076 H         1 UNK         0.0600 
    239 H239       -2.6639  -16.7521  -56.5273 H         1 UNK         0.0600 
    240 H240       -3.9385  -18.9288  -54.3507 H         1 UNK         0.3000 
    241 H241       -6.2246  -17.4014  -53.4886 H         1 UNK         0.0600 
    242 H242       -7.6843  -21.0434  -54.6014 H         1 UNK         0.3800 
    243 H243       -6.0405  -20.6073  -54.9985 H         1 UNK         0.3800 
    244 H244       -5.9166  -18.5147  -51.3057 H         1 UNK         0.0800 
    245 H245       -4.8058  -19.6535  -51.9926 H         1 UNK         0.0800 
    246 H246       -2.0893  -18.3251  -53.1272 H         1 UNK         0.0800 
    247 H247       -2.5461  -19.5149  -51.9245 H         1 UNK         0.0800 
@<TRIPOS>BOND
     1    1    2 1    
     2    1  127 1    
     3    1  128 1    
     4    1  129 1    
     5    2    3 2    
     6    2    4 am   BACKBONE|DICT|INTERRES
     7    4    5 1    
     8    4  130 1    
     9    5    6 1    
    10    5   65 1    
    11    5  131 1    
    12    6    7 1    
    13    6  132 1    
    14    6  133 1    
    15    7    8 1    
    16    8    9 1    
    17    8  134 1    
    18    8  135 1    
    19    9   10 ar   
    20    9   14 ar   
    21   10   11 ar   
    22   10  136 1    
    23   11   12 ar   
    24   11  126 1    
    25   12   13 ar   
    26   12  137 1    
    27   13   14 ar   
    28   13   15 1    
    29   14  138 1    
    30   15   16 1    
    31   15  139 1    
    32   15  140 1    
    33   16   17 1    
    34   17   18 1    
    35   17  141 1    
    36   17  142 1    
    37   18   19 1    
    38   18   67 1    
    39   18  143 1    
    40   19   20 am   BACKBONE|DICT|INTERRES
    41   19  144 1    
    42   20   21 2    
    43   20   22 1    
    44   22   23 1    
    45   22   24 1    
    46   22  145 1    
    47   23  146 1    
    48   23  147 1    
    49   23  148 1    
    50   24   25 am   BACKBONE|DICT|INTERRES
    51   24  149 1    
    52   25   26 2    
    53   25   27 1    
    54   27   28 1    
    55   27   29 1    
    56   27  150 1    
    57   28  151 1    
    58   28  152 1    
    59   28  153 1    
    60   29   30 am   BACKBONE|DICT|INTERRES
    61   29  154 1    
    62   30   31 2    
    63   30   32 1    
    64   32   33 1    
    65   32   34 1    
    66   32  155 1    
    67   33  156 1    
    68   33  157 1    
    69   33  158 1    
    70   34   35 am   BACKBONE|DICT|INTERRES
    71   34  159 1    
    72   35   36 2    
    73   35   37 1    
    74   37   38 1    
    75   37   39 1    
    76   37  160 1    
    77   38  161 1    
    78   38  162 1    
    79   38  163 1    
    80   39   40 am   BACKBONE|DICT|INTERRES
    81   39  164 1    
    82   40   41 2    
    83   40   42 1    
    84   42   43 1    
    85   42   44 1    
    86   42  165 1    
    87   43  166 1    
    88   43  167 1    
    89   43  168 1    
    90   44   45 am   BACKBONE|DICT|INTERRES
    91   44  169 1    
    92   45   46 2    
    93   45   47 1    
    94   47   48 1    
    95   47   49 1    
    96   47  170 1    
    97   48  171 1    
    98   48  172 1    
    99   48  173 1    
   100   49   50 am   BACKBONE|DICT|INTERRES
   101   49  174 1    
   102   50   51 2    
   103   50   52 1    
   104   52   53 1    
   105   52   54 1    
   106   52  175 1    
   107   53  176 1    
   108   53  177 1    
   109   53  178 1    
   110   54   55 am   BACKBONE|DICT|INTERRES
   111   54  179 1    
   112   55   56 2    
   113   55   57 1    
   114   57   58 1    
   115   57   59 1    
   116   57  180 1    
   117   58  181 1    
   118   58  182 1    
   119   58  183 1    
   120   59   60 am   BACKBONE|DICT|INTERRES
   121   59  184 1    
   122   60   61 2    
   123   60   62 1    
   124   62   63 1    
   125   62   64 1    
   126   62  185 1    
   127   63  186 1    
   128   63  187 1    
   129   63  188 1    
   130   64   65 am   BACKBONE|DICT|INTERRES
   131   64  189 1    
   132   65   66 2    
   133   67   68 2    
   134   67   69 am   BACKBONE|DICT|INTERRES
   135   69   70 1    
   136   69  190 1    
   137   70   71 1    
   138   70   72 1    
   139   70  191 1    
   140   71  192 1    
   141   71  193 1    
   142   71  194 1    
   143   72   73 2    
   144   72   74 am   BACKBONE|DICT|INTERRES
   145   74   75 1    
   146   74  195 1    
   147   75   76 1    
   148   75   77 1    
   149   75  196 1    
   150   76  197 1    
   151   76  198 1    
   152   76  199 1    
   153   77   78 2    
   154   77   79 am   BACKBONE|DICT|INTERRES
   155   79   80 1    
   156   79  200 1    
   157   80   81 1    
   158   80   82 1    
   159   80  201 1    
   160   81  202 1    
   161   81  203 1    
   162   81  204 1    
   163   82   83 2    
   164   82   84 am   BACKBONE|DICT|INTERRES
   165   84   85 1    
   166   84  205 1    
   167   85   86 1    
   168   85   87 1    
   169   85  206 1    
   170   86  207 1    
   171   86  208 1    
   172   86  209 1    
   173   87   88 2    
   174   87   89 am   BACKBONE|DICT|INTERRES
   175   89   90 1    
   176   89  210 1    
   177   90   91 1    
   178   90   92 1    
   179   90  211 1    
   180   91  212 1    
   181   91  213 1    
   182   91  214 1    
   183   92   93 2    
   184   92   94 am   BACKBONE|DICT|INTERRES
   185   94   95 1    
   186   94  215 1    
   187   95   96 1    
   188   95   97 1    
   189   95  216 1    
   190   96  217 1    
   191   96  218 1    
   192   96  219 1    
   193   97   98 2    
   194   97   99 am   BACKBONE|DICT|INTERRES
   195   99  100 1    
   196   99  220 1    
   197  100  101 1    
   198  100  102 1    
   199  100  221 1    
   200  101  222 1    
   201  101  223 1    
   202  101  224 1    
   203  102  103 2    
   204  102  104 am   BACKBONE|DICT|INTERRES
   205  104  105 1    
   206  104  225 1    
   207  105  106 1    
   208  105  107 1    
   209  105  226 1    
   210  106  227 1    
   211  106  228 1    
   212  106  229 1    
   213  107  108 2    
   214  107  109 am   BACKBONE|DICT|INTERRES
   215  109  110 1    
   216  109  230 1    
   217  110  111 1    
   218  110  112 1    
   219  110  231 1    
   220  111  232 1    
   221  111  233 1    
   222  111  234 1    
   223  112  113 2    
   224  112  114 am   BACKBONE|DICT|INTERRES
   225  114  115 1    
   226  114  235 1    
   227  115  116 1    
   228  115  117 1    
   229  115  236 1    
   230  116  237 1    
   231  116  238 1    
   232  116  239 1    
   233  117  118 2    
   234  117  119 am   BACKBONE|DICT|INTERRES
   235  119  120 1    
   236  119  240 1    
   237  120  121 1    
   238  120  124 1    
   239  120  241 1    
   240  121  122 am   BACKBONE|DICT|INTERRES
   241  121  123 2    
   242  122  242 1    
   243  122  243 1    
   244  124  125 1    
   245  124  244 1    
   246  124  245 1    
   247  125  126 1    
   248  126  246 1    
   249  126  247 1    
@<TRIPOS>SUBSTRUCTURE
     1 UNK         1 GROUP             0       ****    0 ROOT    
