@<TRIPOS>MOLECULE
3R540
247   249    1
SMALL
USER_CHARGES


@<TRIPOS>ATOM
      1 CA          4.4575  -10.3058  -52.1646 C.3       0 UNK        -0.1800 
      2 C           3.8516  -10.4666  -50.7772 C.2       0 UNK         0.5000 
      3 O           3.1432   -9.5739  -50.3104 O.2       0 UNK        -0.5000 
      4 N           4.1349  -11.5942  -50.1150 N.am      1 UNK        -0.5000 
      5 CA          3.5787  -11.9663  -48.8111 C.3       1 UNK         0.1400 
      6 C6          4.4637  -13.0306  -48.1115 C.3       23 UNK        -0.0398 
      7 S7          4.5762  -14.6415  -48.9735 S.3       23 UNK        -0.2404 
      8 C8          3.5962  -15.7147  -47.8756 C.3       23 UNK        -0.0205 
      9 C9          2.7278  -16.6718  -48.6726 C.ar      23 UNK        -0.0193 
     10 C10         1.4978  -16.2342  -49.1673 C.ar      23 UNK        -0.1150 
     11 C11         0.6586  -17.1013  -49.8687 C.ar      23 UNK        -0.0193 
     12 C12         1.0699  -18.4173  -50.0885 C.ar      23 UNK        -0.1150 
     13 C13         2.2989  -18.8711  -49.5987 C.ar      23 UNK        -0.0193 
     14 C14         3.1267  -17.9933  -48.8915 C.ar      23 UNK        -0.1150 
     15 C15         2.7143  -20.3187  -49.8130 C.3       23 UNK        -0.0205 
     16 S16         2.3286  -21.3542  -48.3652 S.3       23 UNK        -0.2404 
     17 C17         0.5318  -21.0892  -48.2138 C.3       23 UNK        -0.0398 
     18 CA         -0.1660  -22.1465  -47.3346 C.3       11 UNK         0.1400 
     19 N           0.3653  -22.1723  -45.9727 N.am      11 UNK        -0.5000 
     20 C           0.0924  -23.0959  -45.0443 C.2       10 UNK         0.5000 
     21 O          -0.6711  -24.0407  -45.2410 O.2       10 UNK        -0.5000 
     22 CA          0.7282  -22.9083  -43.6521 C.3       10 UNK         0.1400 
     23 CB          1.2543  -24.2325  -43.0634 C.3       10 UNK        -0.1800 
     24 N           1.7445  -21.8497  -43.5991 N.am      10 UNK        -0.5000 
     25 C           2.9598  -21.8251  -44.1698 C.2       9 UNK         0.5000 
     26 O           3.4364  -22.7626  -44.8092 O.2       9 UNK        -0.5000 
     27 CA          3.7757  -20.5213  -44.0315 C.3       9 UNK         0.1400 
     28 CB          3.8755  -19.8062  -45.3890 C.3       9 UNK        -0.1800 
     29 N           3.2212  -19.5858  -43.0502 N.am      9 UNK        -0.5000 
     30 C           3.2830  -19.7434  -41.7208 C.2       8 UNK         0.5000 
     31 O           3.8878  -20.6629  -41.1687 O.2       8 UNK        -0.5000 
     32 CA          2.4994  -18.7285  -40.8675 C.3       8 UNK         0.1400 
     33 CB          3.3492  -17.4764  -40.6064 C.3       8 UNK        -0.1800 
     34 N           1.2158  -18.3405  -41.4627 N.am      8 UNK        -0.5000 
     35 C           0.1884  -19.1763  -41.6775 C.2       7 UNK         0.5000 
     36 O           0.2124  -20.3724  -41.3909 O.2       7 UNK        -0.5000 
     37 CA         -1.0562  -18.5991  -42.3741 C.3       7 UNK         0.1400 
     38 CB         -1.9192  -17.7861  -41.3984 C.3       7 UNK        -0.1800 
     39 N          -0.7046  -17.7743  -43.5270 N.am      7 UNK        -0.5000 
     40 C          -0.1904  -18.2436  -44.6722 C.2       6 UNK         0.5000 
     41 O          -0.0634  -19.4414  -44.9288 O.2       6 UNK        -0.5000 
     42 CA          0.2781  -17.1930  -45.6931 C.3       6 UNK         0.1400 
     43 CB         -0.8834  -16.7838  -46.6121 C.3       6 UNK        -0.1800 
     44 N           0.8367  -16.0088  -45.0343 N.am      6 UNK        -0.5000 
     45 C           2.0076  -15.9983  -44.3790 C.2       5 UNK         0.5000 
     46 O           2.7589  -16.9694  -44.3156 O.2       5 UNK        -0.5000 
     47 CA          2.3866  -14.7073  -43.6314 C.3       5 UNK         0.1400 
     48 CB          3.1584  -13.7515  -44.5466 C.3       5 UNK        -0.1800 
     49 N           1.2209  -14.0214  -43.0770 N.am      5 UNK        -0.5000 
     50 C           0.5396  -14.4673  -42.0121 C.2       4 UNK         0.5000 
     51 O           0.8498  -15.4786  -41.3847 O.2       4 UNK        -0.5000 
     52 CA         -0.7276  -13.6920  -41.6076 C.3       4 UNK         0.1400 
     53 CB         -0.3853  -12.5963  -40.5878 C.3       4 UNK        -0.1800 
     54 N          -1.4349  -13.0931  -42.7403 N.am      4 UNK        -0.5000 
     55 C          -1.9321  -13.7689  -43.7847 C.2       3 UNK         0.5000 
     56 O          -1.8443  -14.9915  -43.9051 O.2       3 UNK        -0.5000 
     57 CA         -2.6136  -12.9506  -44.8989 C.3       3 UNK         0.1400 
     58 CB         -2.9357  -11.4928  -44.4990 C.3       3 UNK        -0.1800 
     59 N          -1.8543  -12.9678  -46.1543 N.am      3 UNK        -0.5000 
     60 C          -0.5820  -12.5880  -46.3440 C.2       2 UNK         0.5000 
     61 O           0.1922  -12.2701  -45.4363 O.2       2 UNK        -0.5000 
     62 CA         -0.1131  -12.5290  -47.8068 C.3       2 UNK         0.1400 
     63 CB         -0.8979  -11.4534  -48.5880 C.3       2 UNK        -0.1800 
     64 N           1.3199  -12.2384  -47.8597 N.am      2 UNK        -0.5000 
     65 C           2.0955  -12.3916  -48.9404 C.2       1 UNK         0.5000 
     66 O           1.6795  -12.8483  -50.0087 O.2       1 UNK        -0.5000 
     67 C          -1.6845  -21.9028  -47.3381 C.2       11 UNK         0.5000 
     68 O          -2.3957  -22.5283  -48.1235 O.2       11 UNK        -0.5000 
     69 N          -2.1556  -21.0227  -46.4416 N.am      12 UNK        -0.5000 
     70 CA         -3.5765  -20.7266  -46.2524 C.3       12 UNK         0.1400 
     71 CB         -3.7346  -19.5602  -45.2661 C.3       12 UNK        -0.1800 
     72 C          -4.3667  -21.9612  -45.7798 C.2       12 UNK         0.5000 
     73 O          -5.4462  -22.2333  -46.3068 O.2       12 UNK        -0.5000 
     74 N          -3.7796  -22.7066  -44.8313 N.am      13 UNK        -0.5000 
     75 CA         -4.3084  -23.9655  -44.3059 C.3       13 UNK         0.1400 
     76 CB         -3.5189  -24.3684  -43.0509 C.3       13 UNK        -0.1800 
     77 C          -4.2898  -25.0930  -45.3537 C.2       13 UNK         0.5000 
     78 O          -5.2480  -25.8626  -45.4348 O.2       13 UNK        -0.5000 
     79 N          -3.2317  -25.1404  -46.1745 N.am      14 UNK        -0.5000 
     80 CA         -3.0548  -26.0525  -47.3069 C.3       14 UNK         0.1400 
     81 CB         -1.5556  -26.1451  -47.6417 C.3       14 UNK        -0.1800 
     82 C          -3.9086  -25.6549  -48.5324 C.2       14 UNK         0.5000 
     83 O          -3.3846  -25.5372  -49.6419 O.2       14 UNK        -0.5000 
     84 N          -5.2149  -25.4610  -48.3046 N.am      15 UNK        -0.5000 
     85 CA         -6.2667  -25.1701  -49.2822 C.3       15 UNK         0.1400 
     86 CB         -6.5617  -26.4285  -50.1257 C.3       15 UNK        -0.1800 
     87 C          -5.9806  -23.9276  -50.1503 C.2       15 UNK         0.5000 
     88 O          -6.1789  -23.9766  -51.3649 O.2       15 UNK        -0.5000 
     89 N          -5.5056  -22.8439  -49.5169 N.am      16 UNK        -0.5000 
     90 CA         -5.1477  -21.5633  -50.1420 C.3       16 UNK         0.1400 
     91 CB         -6.4161  -20.8416  -50.6396 C.3       16 UNK        -0.1800 
     92 C          -4.0715  -21.7282  -51.2376 C.2       16 UNK         0.5000 
     93 O          -4.2627  -21.2971  -52.3784 O.2       16 UNK        -0.5000 
     94 N          -2.9726  -22.3896  -50.8518 N.am      17 UNK        -0.5000 
     95 CA         -1.8363  -22.8134  -51.6695 C.3       17 UNK         0.1400 
     96 CB         -1.0520  -21.5979  -52.2019 C.3       17 UNK        -0.1800 
     97 C          -2.2521  -23.8080  -52.7704 C.2       17 UNK         0.5000 
     98 O          -1.9688  -23.5854  -53.9474 O.2       17 UNK        -0.5000 
     99 N          -2.9210  -24.8924  -52.3534 N.am      18 UNK        -0.5000 
    100 CA        -3.3799  -26.0197  -53.1707 C.3       18 UNK         0.1400 
    101 CB        -2.1771  -26.8421  -53.6784 C.3       18 UNK        -0.1800 
    102 C         -4.3441  -25.5940  -54.2972 C.2       18 UNK         0.5000 
    103 O         -4.1291  -25.9293  -55.4635 O.2       18 UNK        -0.5000 
    104 N         -5.3909  -24.8520  -53.9116 N.am      19 UNK        -0.5000 
    105 CA        -6.4742  -24.3273  -54.7479 C.3       19 UNK         0.1400 
    106 CB        -7.2637  -25.4659  -55.4281 C.3       19 UNK        -0.1800 
    107 C         -6.0372  -23.2233  -55.7332 C.2       19 UNK         0.5000 
    108 O         -6.7581  -22.9468  -56.6936 O.2       19 UNK        -0.5000 
    109 N         -4.8977  -22.5702  -55.4621 N.am      20 UNK        -0.5000 
    110 CA        -4.4330  -21.3853  -56.1909 C.3       20 UNK         0.1400 
    111 CB        -2.9247  -21.2129  -55.9665 C.3       20 UNK        -0.1800 
    112 C         -5.1847  -20.1011  -55.7838 C.2       20 UNK         0.5000 
    113 O         -5.0809  -19.0965  -56.4885 O.2       20 UNK        -0.5000 
    114 N         -5.9140  -20.1602  -54.6589 N.am      21 UNK        -0.5000 
    115 CA        -6.6753  -19.0831  -54.0216 C.3       21 UNK         0.1400 
    116 CB        -7.7798  -18.5392  -54.9528 C.3       21 UNK        -0.1800 
    117 C         -5.7652  -17.9837  -53.4371 C.2       21 UNK         0.5000 
    118 O         -6.1363  -16.8083  -53.4429 O.2       21 UNK        -0.5000 
    119 N         -4.5910  -18.3867  -52.9324 N.am      22 UNK        -0.5000 
    120 CA        -3.6568  -17.5101  -52.2178 C.3       22 UNK         0.1400 
    121 C         -4.1564  -17.2407  -50.7722 C.2       22 UNK         0.5000 
    122 N         -4.4118  -15.9910  -50.4114 N.am      22 UNK        -0.7600 
    123 O         -4.2777  -18.1587  -49.9651 O.2       22 UNK        -0.5000 
    124 C124       -2.2156  -18.0842  -52.2311 C.3       23 UNK        -0.0398 
    125 S125       -0.9502  -16.7710  -52.1278 S.3       23 UNK        -0.2404 
    126 C126       -0.7120  -16.6259  -50.3271 C.3       23 UNK        -0.0205 
    127 H127        5.0863   -9.4161  -52.1992 H         1 UNK         0.0600 
    128 H128        3.6679  -10.1961  -52.9079 H         1 UNK         0.0600 
    129 H129        5.0685  -11.1651  -52.4422 H         1 UNK         0.0600 
    130 H130        4.6868  -12.3104  -50.5653 H         1 UNK         0.3000 
    131 H131        3.5996  -11.0724  -48.1835 H         1 UNK         0.0600 
    132 H132        5.4790  -12.6420  -48.0205 H         1 UNK         0.0800 
    133 H133        4.1343  -13.1764  -47.0860 H         1 UNK         0.0800 
    134 H134        4.2642  -16.2620  -47.2084 H         1 UNK         0.0800 
    135 H135        2.9472  -15.1174  -47.2354 H         1 UNK         0.0800 
    136 H136        1.1859  -15.2174  -48.9867 H         1 UNK         0.1150 
    137 H137        0.4222  -19.0916  -50.6277 H         1 UNK         0.1150 
    138 H138        4.0718  -18.3434  -48.5007 H         1 UNK         0.1150 
    139 H139        2.2223  -20.7315  -50.6951 H         1 UNK         0.0800 
    140 H140        3.7862  -20.3687  -50.0099 H         1 UNK         0.0800 
    141 H141        0.1029  -21.1006  -49.2161 H         1 UNK         0.0800 
    142 H142        0.3664  -20.0875  -47.8117 H         1 UNK         0.0800 
    143 H143        0.0119  -23.1278  -47.7780 H         1 UNK         0.0600 
    144 H144        0.9439  -21.3886  -45.7040 H         1 UNK         0.3000 
    145 H145       -0.0823  -22.5685  -43.0064 H         1 UNK         0.0600 
    146 H146        1.6947  -24.0785  -42.0783 H         1 UNK         0.0600 
    147 H147        0.4459  -24.9553  -42.9470 H         1 UNK         0.0600 
    148 H148        2.0085  -24.6919  -43.7026 H         1 UNK         0.0600 
    149 H149        1.4590  -21.0261  -43.0844 H         1 UNK         0.3000 
    150 H150        4.7837  -20.7976  -43.7159 H         1 UNK         0.0600 
    151 H151        4.3224  -20.4546  -46.1433 H         1 UNK         0.0600 
    152 H152        4.4985  -18.9143  -45.3216 H         1 UNK         0.0600 
    153 H153        2.8946  -19.5014  -45.7567 H         1 UNK         0.0600 
    154 H154        2.7745  -18.7542  -43.4246 H         1 UNK         0.3000 
    155 H155        2.2876  -19.2002  -39.9058 H         1 UNK         0.0600 
    156 H156        4.2958  -17.7386  -40.1324 H         1 UNK         0.0600 
    157 H157        2.8356  -16.7813  -39.9420 H         1 UNK         0.0600 
    158 H158        3.5808  -16.9492  -41.5317 H         1 UNK         0.0600 
    159 H159        1.0951  -17.3521  -41.6663 H         1 UNK         0.3000 
    160 H160       -1.6529  -19.4414  -42.7277 H         1 UNK         0.0600 
    161 H161       -1.3784  -16.9323  -40.9914 H         1 UNK         0.0600 
    162 H162       -2.2395  -18.4018  -40.5571 H         1 UNK         0.0600 
    163 H163       -2.8177  -17.4098  -41.8881 H         1 UNK         0.0600 
    164 H164       -0.8461  -16.7744  -43.4394 H         1 UNK         0.3000 
    165 H165        1.0596  -17.6439  -46.3089 H         1 UNK         0.0600 
    166 H166       -0.5967  -15.9742  -47.2812 H         1 UNK         0.0600 
    167 H167       -1.1987  -17.6252  -47.2304 H         1 UNK         0.0600 
    168 H168       -1.7555  -16.4521  -46.0491 H         1 UNK         0.0600 
    169 H169        0.2361  -15.1992  -44.9690 H         1 UNK         0.3000 
    170 H170        3.0477  -14.9814  -42.8070 H         1 UNK         0.0600 
    171 H171        4.0630  -14.2280  -44.9265 H         1 UNK         0.0600 
    172 H172        2.5558  -13.4464  -45.4005 H         1 UNK         0.0600 
    173 H173        3.4640  -12.8520  -44.0120 H         1 UNK         0.0600 
    174 H174        0.8811  -13.2090  -43.5794 H         1 UNK         0.3000 
    175 H175       -1.4080  -14.4013  -41.1323 H         1 UNK         0.0600 
    176 H176        0.2696  -11.8371  -41.0174 H         1 UNK         0.0600 
    177 H177       -1.2851  -12.0989  -40.2254 H         1 UNK         0.0600 
    178 H178        0.1241  -13.0166  -39.7195 H         1 UNK         0.0600 
    179 H179       -1.5250  -12.0876  -42.7358 H         1 UNK         0.3000 
    180 H180       -3.5610  -13.4522  -45.1013 H         1 UNK         0.0600 
    181 H181       -2.0355  -10.9017  -44.3266 H         1 UNK         0.0600 
    182 H182       -3.5413  -11.4556  -43.5924 H         1 UNK         0.0600 
    183 H183       -3.5068  -10.9948  -45.2826 H         1 UNK         0.0600 
    184 H184       -2.3895  -13.2464  -46.9643 H         1 UNK         0.3000 
    185 H185       -0.2950  -13.5081  -48.2533 H         1 UNK         0.0600 
    186 H186       -0.6048  -11.4240  -49.6373 H         1 UNK         0.0600 
    187 H187       -1.9711  -11.6450  -48.5679 H         1 UNK         0.0600 
    188 H188       -0.7343  -10.4593  -48.1700 H         1 UNK         0.0600 
    189 H189        1.6981  -11.8848  -46.9895 H         1 UNK         0.3000 
    190 H190       -1.4942  -20.5470  -45.8358 H         1 UNK         0.3000 
    191 H191       -3.9846  -20.4110  -47.2137 H         1 UNK         0.0600 
    192 H192       -3.2119  -18.6707  -45.6175 H         1 UNK         0.0600 
    193 H193       -4.7851  -19.2922  -45.1468 H         1 UNK         0.0600 
    194 H194       -3.3476  -19.8110  -44.2792 H         1 UNK         0.0600 
    195 H195       -2.8747  -22.4208  -44.4906 H         1 UNK         0.3000 
    196 H196       -5.3478  -23.7991  -44.0152 H         1 UNK         0.0600 
    197 H197       -3.9177  -25.2873  -42.6194 H         1 UNK         0.0600 
    198 H198       -3.5784  -23.5973  -42.2826 H         1 UNK         0.0600 
    199 H199       -2.4653  -24.5419  -43.2714 H         1 UNK         0.0600 
    200 H200       -2.4664  -24.4956  -46.0069 H         1 UNK         0.3000 
    201 H201       -3.3846  -27.0471  -47.0007 H         1 UNK         0.0600 
    202 H202       -0.9745  -26.4536  -46.7726 H         1 UNK         0.0600 
    203 H203       -1.1637  -25.1876  -47.9841 H         1 UNK         0.0600 
    204 H204       -1.3733  -26.8762  -48.4301 H         1 UNK         0.0600 
    205 H205       -5.5242  -25.5686  -47.3430 H         1 UNK         0.3000 
    206 H206       -7.1649  -24.9379  -48.7087 H         1 UNK         0.0600 
    207 H207       -6.8052  -27.2800  -49.4904 H         1 UNK         0.0600 
    208 H208       -7.4124  -26.2676  -50.7890 H         1 UNK         0.0600 
    209 H209       -5.7101  -26.7074  -50.7464 H         1 UNK         0.0600 
    210 H210       -5.3511  -22.9043  -48.5178 H         1 UNK         0.3000 
    211 H211       -4.7017  -20.9461  -49.3626 H         1 UNK         0.0600 
    212 H212       -6.8836  -21.3649  -51.4740 H         1 UNK         0.0600 
    213 H213       -6.1806  -19.8315  -50.9709 H         1 UNK         0.0600 
    214 H214       -7.1551  -20.7525  -49.8435 H         1 UNK         0.0600 
    215 H215       -2.9210  -22.6721  -49.8745 H         1 UNK         0.3000 
    216 H216       -1.1711  -23.3610  -51.0001 H         1 UNK         0.0600 
    217 H217       -0.1490  -21.9140  -52.7251 H         1 UNK         0.0600 
    218 H218       -0.7444  -20.9441  -51.3891 H         1 UNK         0.0600 
    219 H219       -1.6426  -21.0065  -52.8984 H         1 UNK         0.0600 
    220 H220       -3.1124  -24.9836  -51.3560 H         1 UNK         0.3000 
    221 H221       -3.9551  -26.6635  -52.5041 H         1 UNK         0.0600 
    222 H222       -1.5597  -26.2726  -54.3738 H         1 UNK         0.0600 
    223 H223       -1.5430  -27.1623  -52.8518 H         1 UNK         0.0600 
    224 H224       -2.5106  -27.7412  -54.1979 H         1 UNK         0.0600 
    225 H225       -5.4752  -24.6042  -52.9263 H         1 UNK         0.3000 
    226 H226       -7.1582  -23.8374  -54.0535 H         1 UNK         0.0600 
    227 H227       -7.5649  -26.2237  -54.7048 H         1 UNK         0.0600 
    228 H228       -8.1736  -25.0863  -55.8944 H         1 UNK         0.0600 
    229 H229       -6.6808  -25.9566  -56.2077 H         1 UNK         0.0600 
    230 H230       -4.3447  -22.8593  -54.6657 H         1 UNK         0.3000 
    231 H231       -4.6002  -21.5408  -57.2587 H         1 UNK         0.0600 
    232 H232       -2.3739  -22.0995  -56.2810 H         1 UNK         0.0600 
    233 H233       -2.6997  -21.0306  -54.9167 H         1 UNK         0.0600 
    234 H234       -2.5360  -20.3686  -56.5370 H         1 UNK         0.0600 
    235 H235       -5.8475  -21.0164  -54.1250 H         1 UNK         0.3000 
    236 H236       -7.1792  -19.5386  -53.1695 H         1 UNK         0.0600 
    237 H237       -8.3895  -19.3478  -55.3559 H         1 UNK         0.0600 
    238 H238       -8.4484  -17.8685  -54.4121 H         1 UNK         0.0600 
    239 H239       -7.3679  -17.9778  -55.7917 H         1 UNK         0.0600 
    240 H240       -4.3898  -19.3818  -52.9088 H         1 UNK         0.3000 
    241 H241       -3.6384  -16.5622  -52.7602 H         1 UNK         0.0600 
    242 H242       -4.7317  -15.8103  -49.4734 H         1 UNK         0.3800 
    243 H243       -4.3306  -15.2270  -51.0641 H         1 UNK         0.3800 
    244 H244       -2.0640  -18.8324  -51.4512 H         1 UNK         0.0800 
    245 H245       -2.0359  -18.6015  -53.1745 H         1 UNK         0.0800 
    246 H246       -1.4697  -17.1927  -49.7865 H         1 UNK         0.0800 
    247 H247       -0.8662  -15.5815  -50.0519 H         1 UNK         0.0800 
@<TRIPOS>BOND
     1    1    2 1    
     2    1  127 1    
     3    1  128 1    
     4    1  129 1    
     5    2    3 2    
     6    2    4 am   BACKBONE|DICT|INTERRES
     7    4    5 1    
     8    4  130 1    
     9    5    6 1    
    10    5   65 1    
    11    5  131 1    
    12    6    7 1    
    13    6  132 1    
    14    6  133 1    
    15    7    8 1    
    16    8    9 1    
    17    8  134 1    
    18    8  135 1    
    19    9   10 ar   
    20    9   14 ar   
    21   10   11 ar   
    22   10  136 1    
    23   11   12 ar   
    24   11  126 1    
    25   12   13 ar   
    26   12  137 1    
    27   13   14 ar   
    28   13   15 1    
    29   14  138 1    
    30   15   16 1    
    31   15  139 1    
    32   15  140 1    
    33   16   17 1    
    34   17   18 1    
    35   17  141 1    
    36   17  142 1    
    37   18   19 1    
    38   18   67 1    
    39   18  143 1    
    40   19   20 am   BACKBONE|DICT|INTERRES
    41   19  144 1    
    42   20   21 2    
    43   20   22 1    
    44   22   23 1    
    45   22   24 1    
    46   22  145 1    
    47   23  146 1    
    48   23  147 1    
    49   23  148 1    
    50   24   25 am   BACKBONE|DICT|INTERRES
    51   24  149 1    
    52   25   26 2    
    53   25   27 1    
    54   27   28 1    
    55   27   29 1    
    56   27  150 1    
    57   28  151 1    
    58   28  152 1    
    59   28  153 1    
    60   29   30 am   BACKBONE|DICT|INTERRES
    61   29  154 1    
    62   30   31 2    
    63   30   32 1    
    64   32   33 1    
    65   32   34 1    
    66   32  155 1    
    67   33  156 1    
    68   33  157 1    
    69   33  158 1    
    70   34   35 am   BACKBONE|DICT|INTERRES
    71   34  159 1    
    72   35   36 2    
    73   35   37 1    
    74   37   38 1    
    75   37   39 1    
    76   37  160 1    
    77   38  161 1    
    78   38  162 1    
    79   38  163 1    
    80   39   40 am   BACKBONE|DICT|INTERRES
    81   39  164 1    
    82   40   41 2    
    83   40   42 1    
    84   42   43 1    
    85   42   44 1    
    86   42  165 1    
    87   43  166 1    
    88   43  167 1    
    89   43  168 1    
    90   44   45 am   BACKBONE|DICT|INTERRES
    91   44  169 1    
    92   45   46 2    
    93   45   47 1    
    94   47   48 1    
    95   47   49 1    
    96   47  170 1    
    97   48  171 1    
    98   48  172 1    
    99   48  173 1    
   100   49   50 am   BACKBONE|DICT|INTERRES
   101   49  174 1    
   102   50   51 2    
   103   50   52 1    
   104   52   53 1    
   105   52   54 1    
   106   52  175 1    
   107   53  176 1    
   108   53  177 1    
   109   53  178 1    
   110   54   55 am   BACKBONE|DICT|INTERRES
   111   54  179 1    
   112   55   56 2    
   113   55   57 1    
   114   57   58 1    
   115   57   59 1    
   116   57  180 1    
   117   58  181 1    
   118   58  182 1    
   119   58  183 1    
   120   59   60 am   BACKBONE|DICT|INTERRES
   121   59  184 1    
   122   60   61 2    
   123   60   62 1    
   124   62   63 1    
   125   62   64 1    
   126   62  185 1    
   127   63  186 1    
   128   63  187 1    
   129   63  188 1    
   130   64   65 am   BACKBONE|DICT|INTERRES
   131   64  189 1    
   132   65   66 2    
   133   67   68 2    
   134   67   69 am   BACKBONE|DICT|INTERRES
   135   69   70 1    
   136   69  190 1    
   137   70   71 1    
   138   70   72 1    
   139   70  191 1    
   140   71  192 1    
   141   71  193 1    
   142   71  194 1    
   143   72   73 2    
   144   72   74 am   BACKBONE|DICT|INTERRES
   145   74   75 1    
   146   74  195 1    
   147   75   76 1    
   148   75   77 1    
   149   75  196 1    
   150   76  197 1    
   151   76  198 1    
   152   76  199 1    
   153   77   78 2    
   154   77   79 am   BACKBONE|DICT|INTERRES
   155   79   80 1    
   156   79  200 1    
   157   80   81 1    
   158   80   82 1    
   159   80  201 1    
   160   81  202 1    
   161   81  203 1    
   162   81  204 1    
   163   82   83 2    
   164   82   84 am   BACKBONE|DICT|INTERRES
   165   84   85 1    
   166   84  205 1    
   167   85   86 1    
   168   85   87 1    
   169   85  206 1    
   170   86  207 1    
   171   86  208 1    
   172   86  209 1    
   173   87   88 2    
   174   87   89 am   BACKBONE|DICT|INTERRES
   175   89   90 1    
   176   89  210 1    
   177   90   91 1    
   178   90   92 1    
   179   90  211 1    
   180   91  212 1    
   181   91  213 1    
   182   91  214 1    
   183   92   93 2    
   184   92   94 am   BACKBONE|DICT|INTERRES
   185   94   95 1    
   186   94  215 1    
   187   95   96 1    
   188   95   97 1    
   189   95  216 1    
   190   96  217 1    
   191   96  218 1    
   192   96  219 1    
   193   97   98 2    
   194   97   99 am   BACKBONE|DICT|INTERRES
   195   99  100 1    
   196   99  220 1    
   197  100  101 1    
   198  100  102 1    
   199  100  221 1    
   200  101  222 1    
   201  101  223 1    
   202  101  224 1    
   203  102  103 2    
   204  102  104 am   BACKBONE|DICT|INTERRES
   205  104  105 1    
   206  104  225 1    
   207  105  106 1    
   208  105  107 1    
   209  105  226 1    
   210  106  227 1    
   211  106  228 1    
   212  106  229 1    
   213  107  108 2    
   214  107  109 am   BACKBONE|DICT|INTERRES
   215  109  110 1    
   216  109  230 1    
   217  110  111 1    
   218  110  112 1    
   219  110  231 1    
   220  111  232 1    
   221  111  233 1    
   222  111  234 1    
   223  112  113 2    
   224  112  114 am   BACKBONE|DICT|INTERRES
   225  114  115 1    
   226  114  235 1    
   227  115  116 1    
   228  115  117 1    
   229  115  236 1    
   230  116  237 1    
   231  116  238 1    
   232  116  239 1    
   233  117  118 2    
   234  117  119 am   BACKBONE|DICT|INTERRES
   235  119  120 1    
   236  119  240 1    
   237  120  121 1    
   238  120  124 1    
   239  120  241 1    
   240  121  122 am   BACKBONE|DICT|INTERRES
   241  121  123 2    
   242  122  242 1    
   243  122  243 1    
   244  124  125 1    
   245  124  244 1    
   246  124  245 1    
   247  125  126 1    
   248  126  246 1    
   249  126  247 1    
@<TRIPOS>SUBSTRUCTURE
     1 UNK         1 GROUP             0       ****    0 ROOT    
