@<TRIPOS>MOLECULE
3R540
247   249    1
SMALL
USER_CHARGES


@<TRIPOS>ATOM
      1 CA          4.7484  -15.9917  -44.8326 C.3       0 UNK        -0.1800 
      2 C           4.1026  -15.9343  -46.2092 C.2       0 UNK         0.5000 
      3 O           2.9144  -16.2136  -46.3431 O.2       0 UNK        -0.5000 
      4 N           4.8857  -15.5774  -47.2339 N.am      1 UNK        -0.5000 
      5 CA          4.4420  -15.4585  -48.6283 C.3       1 UNK         0.1400 
      6 C6          5.6707  -15.4900  -49.5757 C.3       23 UNK        -0.0398 
      7 S7          5.2990  -15.5284  -51.3639 S.3       23 UNK        -0.2404 
      8 C8          5.2022  -17.3205  -51.7084 C.3       23 UNK        -0.0205 
      9 C9          3.9277  -17.9999  -51.2080 C.ar      23 UNK        -0.0193 
     10 C10         2.6977  -17.3319  -51.1902 C.ar      23 UNK        -0.1150 
     11 C11         1.5387  -17.9740  -50.7488 C.ar      23 UNK        -0.0193 
     12 C12         1.6019  -19.3114  -50.3524 C.ar      23 UNK        -0.1150 
     13 C13         2.8200  -19.9970  -50.3714 C.ar      23 UNK        -0.0193 
     14 C14         3.9769  -19.3354  -50.7961 C.ar      23 UNK        -0.1150 
     15 C15         2.8854  -21.4595  -49.9589 C.3       23 UNK        -0.0205 
     16 S16         3.4342  -21.6734  -48.2339 S.3       23 UNK        -0.2404 
     17 C17         1.9872  -21.1003  -47.2785 C.3       23 UNK        -0.0398 
     18 CA          1.0607  -22.2536  -46.8217 C.3       11 UNK         0.1400 
     19 N           0.2197  -21.8620  -45.6888 N.am      11 UNK        -0.5000 
     20 C          -0.5551  -22.6954  -44.9809 C.2       10 UNK         0.5000 
     21 O          -0.6024  -23.9099  -45.1700 O.2       10 UNK        -0.5000 
     22 CA         -1.4680  -22.0619  -43.9155 C.3       10 UNK         0.1400 
     23 CB         -0.6922  -21.7924  -42.6182 C.3       10 UNK        -0.1800 
     24 N          -2.1066  -20.8299  -44.3830 N.am      10 UNK        -0.5000 
     25 C          -2.9801  -20.7748  -45.3992 C.2       9 UNK         0.5000 
     26 O          -3.3745  -21.7657  -46.0123 O.2       9 UNK        -0.5000 
     27 CA         -3.4654  -19.3825  -45.8358 C.3       9 UNK         0.1400 
     28 CB         -4.5869  -18.8794  -44.9155 C.3       9 UNK        -0.1800 
     29 N          -2.3869  -18.3974  -45.8876 N.am      9 UNK        -0.5000 
     30 C          -1.3342  -18.4609  -46.7160 C.2       8 UNK         0.5000 
     31 O          -1.1735  -19.3431  -47.5602 O.2       8 UNK        -0.5000 
     32 CA         -0.2415  -17.3955  -46.5181 C.3       8 UNK         0.1400 
     33 CB         -0.6580  -16.0523  -47.1365 C.3       8 UNK        -0.1800 
     34 N           0.0933  -17.2060  -45.1062 N.am      8 UNK        -0.5000 
     35 C           0.5963  -18.1582  -44.3081 C.2       7 UNK         0.5000 
     36 O           0.8784  -19.2931  -44.6885 O.2       7 UNK        -0.5000 
     37 CA          0.7495  -17.8086  -42.8192 C.3       7 UNK         0.1400 
     38 CB          2.0666  -17.0664  -42.5576 C.3       7 UNK        -0.1800 
     39 N          -0.3788  -17.0158  -42.3322 N.am      7 UNK        -0.5000 
     40 C          -1.6130  -17.5045  -42.1447 C.2       6 UNK         0.5000 
     41 O          -1.9157  -18.6831  -42.3290 O.2       6 UNK        -0.5000 
     42 CA         -2.6984  -16.5002  -41.7153 C.3       6 UNK         0.1400 
     43 CB         -2.6677  -16.2861  -40.1947 C.3       6 UNK        -0.1800 
     44 N          -2.5681  -15.2082  -42.3905 N.am      6 UNK        -0.5000 
     45 C          -2.7538  -15.0228  -43.7049 C.2       5 UNK         0.5000 
     46 O          -3.0973  -15.9168  -44.4772 O.2       5 UNK        -0.5000 
     47 CA         -2.4606  -13.6137  -44.2559 C.3       5 UNK         0.1400 
     48 CB         -3.7099  -12.7261  -44.1586 C.3       5 UNK        -0.1800 
     49 N          -1.3349  -12.9395  -43.6005 N.am      5 UNK        -0.5000 
     50 C          -0.0812  -13.4080  -43.5475 C.2       4 UNK         0.5000 
     51 O           0.2613  -14.4887  -44.0285 O.2       4 UNK        -0.5000 
     52 CA          0.9589  -12.5036  -42.8647 C.3       4 UNK         0.1400 
     53 CB          2.1321  -13.3035  -42.2748 C.3       4 UNK        -0.1800 
     54 N           1.4851  -11.5443  -43.8280 N.am      4 UNK        -0.5000 
     55 C           0.8854  -10.4121  -44.2067 C.2       3 UNK         0.5000 
     56 O          -0.1760  -10.0120  -43.7261 O.2       3 UNK        -0.5000 
     57 CA          1.5708   -9.5964  -45.3198 C.3       3 UNK         0.1400 
     58 CB          2.7847   -8.8169  -44.7782 C.3       3 UNK        -0.1800 
     59 N           1.9166  -10.3750  -46.5189 N.am      3 UNK        -0.5000 
     60 C           2.8271  -11.3478  -46.6666 C.2       2 UNK         0.5000 
     61 O           3.5477  -11.7735  -45.7587 O.2       2 UNK        -0.5000 
     62 CA          2.9497  -11.9344  -48.0797 C.3       2 UNK         0.1400 
     63 CB          3.6501  -10.9512  -49.0349 C.3       2 UNK        -0.1800 
     64 N           3.7078  -13.1797  -48.0289 N.am      2 UNK        -0.5000 
     65 C           3.5354  -14.2217  -48.8509 C.2       1 UNK         0.5000 
     66 O           2.6883  -14.2371  -49.7449 O.2       1 UNK        -0.5000 
     67 C           0.2149  -22.8105  -47.9854 C.2       11 UNK         0.5000 
     68 O           0.5435  -23.8709  -48.5169 O.2       11 UNK        -0.5000 
     69 N          -0.8799  -22.1169  -48.3323 N.am      12 UNK        -0.5000 
     70 CA         -1.8479  -22.5535  -49.3398 C.3       12 UNK         0.1400 
     71 CB         -2.8967  -21.4558  -49.5668 C.3       12 UNK        -0.1800 
     72 C          -2.5167  -23.8917  -48.9761 C.2       12 UNK         0.5000 
     73 O          -2.5959  -24.7747  -49.8286 O.2       12 UNK        -0.5000 
     74 N          -2.9280  -24.0423  -47.7091 N.am      13 UNK        -0.5000 
     75 CA         -3.4933  -25.2761  -47.1623 C.3       13 UNK         0.1400 
     76 CB         -4.0173  -25.0237  -45.7410 C.3       13 UNK        -0.1800 
     77 C          -2.4989  -26.4519  -47.1818 C.2       13 UNK         0.5000 
     78 O          -2.8836  -27.5570  -47.5634 O.2       13 UNK        -0.5000 
     79 N          -1.2330  -26.1921  -46.8227 N.am      14 UNK        -0.5000 
     80 CA         -0.1326  -27.1594  -46.8836 C.3       14 UNK         0.1400 
     81 CB          1.1072  -26.5752  -46.1900 C.3       14 UNK        -0.1800 
     82 C           0.2022  -27.5995  -48.3224 C.2       14 UNK         0.5000 
     83 O           0.5158  -28.7695  -48.5438 O.2       14 UNK        -0.5000 
     84 N           0.0855  -26.6676  -49.2776 N.am      15 UNK        -0.5000 
     85 CA          0.2077  -26.9090  -50.7172 C.3       15 UNK         0.1400 
     86 CB          0.5053  -25.5719  -51.4164 C.3       15 UNK        -0.1800 
     87 C          -1.0352  -27.5856  -51.3388 C.2       15 UNK         0.5000 
     88 O          -0.9910  -27.9464  -52.5156 O.2       15 UNK        -0.5000 
     89 N          -2.1125  -27.7367  -50.5529 N.am      16 UNK        -0.5000 
     90 CA         -3.4247  -28.2846  -50.9099 C.3       16 UNK         0.1400 
     91 CB         -3.3169  -29.7713  -51.3095 C.3       16 UNK        -0.1800 
     92 C          -4.1851  -27.4286  -51.9454 C.2       16 UNK         0.5000 
     93 O          -4.9743  -27.9637  -52.7269 O.2       16 UNK        -0.5000 
     94 N          -3.9499  -26.1114  -51.9251 N.am      17 UNK        -0.5000 
     95 CA         -4.6487  -25.1260  -52.7409 C.3       17 UNK         0.1400 
     96 CB         -3.6810  -23.9795  -53.0762 C.3       17 UNK        -0.1800 
     97 C          -5.8692  -24.5903  -51.9764 C.2       17 UNK         0.5000 
     98 O          -5.7879  -24.3620  -50.7673 O.2       17 UNK        -0.5000 
     99 N          -6.9696  -24.3593  -52.7022 N.am      18 UNK        -0.5000 
    100 CA        -8.1934  -23.7527  -52.1682 C.3       18 UNK         0.1400 
    101 CB        -9.3686  -24.1064  -53.0926 C.3       18 UNK        -0.1800 
    102 C         -8.0793  -22.2234  -52.0056 C.2       18 UNK         0.5000 
    103 O         -8.8471  -21.6316  -51.2451 O.2       18 UNK        -0.5000 
    104 N         -7.1314  -21.6081  -52.7255 N.am      19 UNK        -0.5000 
    105 CA        -6.8474  -20.1758  -52.7285 C.3       19 UNK         0.1400 
    106 CB        -6.0789  -19.8296  -54.0170 C.3       19 UNK        -0.1800 
    107 C         -6.0878  -19.7408  -51.4602 C.2       19 UNK         0.5000 
    108 O         -4.9088  -19.3939  -51.5332 O.2       19 UNK        -0.5000 
    109 N         -6.7804  -19.7459  -50.3139 N.am      20 UNK        -0.5000 
    110 CA        -6.2618  -19.3041  -49.0133 C.3       20 UNK         0.1400 
    111 CB        -7.2925  -19.6270  -47.9222 C.3       20 UNK        -0.1800 
    112 C         -5.8749  -17.8104  -48.9750 C.2       20 UNK         0.5000 
    113 O         -5.0045  -17.4252  -48.1968 O.2       20 UNK        -0.5000 
    114 N         -6.5001  -17.0056  -49.8449 N.am      21 UNK        -0.5000 
    115 CA        -6.1650  -15.6009  -50.0880 C.3       21 UNK         0.1400 
    116 CB        -7.3829  -14.9171  -50.7307 C.3       21 UNK        -0.1800 
    117 C         -4.9070  -15.4105  -50.9665 C.2       21 UNK         0.5000 
    118 O         -4.4768  -14.2712  -51.1526 O.2       21 UNK        -0.5000 
    119 N         -4.3449  -16.5082  -51.4921 N.am      22 UNK        -0.5000 
    120 CA        -3.2250  -16.5571  -52.4413 C.3       22 UNK         0.1400 
    121 C         -3.6065  -16.0811  -53.8772 C.2       22 UNK         0.5000 
    122 N         -2.6383  -15.9279  -54.7705 N.am      22 UNK        -0.7600 
    123 O         -4.7739  -15.8846  -54.2099 O.2       22 UNK        -0.5000 
    124 C124       -1.9325  -15.8938  -51.8794 C.3       23 UNK        -0.0398 
    125 S125       -0.4242  -16.8191  -52.3275 S.3       23 UNK        -0.2404 
    126 C126        0.2297  -17.2074  -50.6758 C.3       23 UNK        -0.0205 
    127 H127        4.2549  -15.2938  -44.1575 H         1 UNK         0.0600 
    128 H128        5.8073  -15.7352  -44.8696 H         1 UNK         0.0600 
    129 H129        4.6572  -16.9954  -44.4184 H         1 UNK         0.0600 
    130 H130        5.8574  -15.3636  -47.0595 H         1 UNK         0.3000 
    131 H131        3.8329  -16.3378  -48.8440 H         1 UNK         0.0600 
    132 H132        6.3025  -14.6194  -49.3918 H         1 UNK         0.0800 
    133 H133        6.2909  -16.3566  -49.3423 H         1 UNK         0.0800 
    134 H134        6.0850  -17.8088  -51.2930 H         1 UNK         0.0800 
    135 H135        5.2548  -17.4626  -52.7884 H         1 UNK         0.0800 
    136 H136        2.6329  -16.3025  -51.5127 H         1 UNK         0.1150 
    137 H137        0.7038  -19.8158  -50.0229 H         1 UNK         0.1150 
    138 H138        4.9169  -19.8692  -50.8154 H         1 UNK         0.1150 
    139 H139        1.9206  -21.9435  -50.1116 H         1 UNK         0.0800 
    140 H140        3.5848  -21.9850  -50.6107 H         1 UNK         0.0800 
    141 H141        2.3961  -20.5977  -46.4016 H         1 UNK         0.0800 
    142 H142        1.4354  -20.3310  -47.8173 H         1 UNK         0.0800 
    143 H143        1.6930  -23.0686  -46.4628 H         1 UNK         0.0600 
    144 H144        0.2445  -20.8792  -45.4260 H         1 UNK         0.3000 
    145 H145       -2.2595  -22.7793  -43.6899 H         1 UNK         0.0600 
    146 H146       -1.3497  -21.4084  -41.8382 H         1 UNK         0.0600 
    147 H147       -0.2379  -22.7085  -42.2387 H         1 UNK         0.0600 
    148 H148        0.1079  -21.0681  -42.7684 H         1 UNK         0.0600 
    149 H149       -1.8687  -19.9760  -43.8891 H         1 UNK         0.3000 
    150 H150       -3.8712  -19.4801  -46.8435 H         1 UNK         0.0600 
    151 H151       -5.4031  -19.6008  -44.8625 H         1 UNK         0.0600 
    152 H152       -5.0040  -17.9419  -45.2842 H         1 UNK         0.0600 
    153 H153       -4.2298  -18.7099  -43.8995 H         1 UNK         0.0600 
    154 H154       -2.4678  -17.6037  -45.2589 H         1 UNK         0.3000 
    155 H155        0.6574  -17.7427  -47.0320 H         1 UNK         0.0600 
    156 H156       -1.5088  -15.6158  -46.6159 H         1 UNK         0.0600 
    157 H157        0.1620  -15.3342  -47.1028 H         1 UNK         0.0600 
    158 H158       -0.9487  -16.1725  -48.1794 H         1 UNK         0.0600 
    159 H159       -0.0373  -16.2743  -44.7232 H         1 UNK         0.3000 
    160 H160        0.7757  -18.7426  -42.2542 H         1 UNK         0.0600 
    161 H161        2.1431  -16.1615  -43.1589 H         1 UNK         0.0600 
    162 H162        2.9190  -17.6978  -42.8094 H         1 UNK         0.0600 
    163 H163        2.1663  -16.7872  -41.5087 H         1 UNK         0.0600 
    164 H164       -0.2265  -16.0228  -42.2355 H         1 UNK         0.3000 
    165 H165       -3.6686  -16.9259  -41.9805 H         1 UNK         0.0600 
    166 H166       -3.4813  -15.6364  -39.8717 H         1 UNK         0.0600 
    167 H167       -2.7802  -17.2335  -39.6657 H         1 UNK         0.0600 
    168 H168       -1.7288  -15.8372  -39.8682 H         1 UNK         0.0600 
    169 H169       -2.2879  -14.4196  -41.8264 H         1 UNK         0.3000 
    170 H170       -2.2046  -13.7217  -45.3114 H         1 UNK         0.0600 
    171 H171       -4.5598  -13.1917  -44.6597 H         1 UNK         0.0600 
    172 H172       -3.9972  -12.5470  -43.1218 H         1 UNK         0.0600 
    173 H173       -3.5445  -11.7588  -44.6334 H         1 UNK         0.0600 
    174 H174       -1.5158  -12.0167  -43.2284 H         1 UNK         0.3000 
    175 H175        0.4709  -11.9714  -42.0453 H         1 UNK         0.0600 
    176 H176        2.7092  -13.8031  -43.0531 H         1 UNK         0.0600 
    177 H177        2.8121  -12.6532  -41.7245 H         1 UNK         0.0600 
    178 H178        1.7781  -14.0663  -41.5805 H         1 UNK         0.0600 
    179 H179        2.3332  -11.8079  -44.3231 H         1 UNK         0.3000 
    180 H180        0.8404   -8.8579  -45.6544 H         1 UNK         0.0600 
    181 H181        3.5642   -9.4790  -44.4006 H         1 UNK         0.0600 
    182 H182        2.4899   -8.1631  -43.9565 H         1 UNK         0.0600 
    183 H183        3.2253   -8.1878  -45.5516 H         1 UNK         0.0600 
    184 H184        1.3709  -10.1319  -47.3342 H         1 UNK         0.3000 
    185 H185        1.9389  -12.1354  -48.4412 H         1 UNK         0.0600 
    186 H186        3.1037  -10.0102  -49.1069 H         1 UNK         0.0600 
    187 H187        4.6617  -10.7196  -48.6993 H         1 UNK         0.0600 
    188 H188        3.7184  -11.3616  -50.0426 H         1 UNK         0.0600 
    189 H189        4.3485  -13.2549  -47.2494 H         1 UNK         0.3000 
    190 H190       -1.0689  -21.2280  -47.8759 H         1 UNK         0.3000 
    191 H191       -1.3060  -22.6998  -50.2763 H         1 UNK         0.0600 
    192 H192       -3.4334  -21.2227  -48.6485 H         1 UNK         0.0600 
    193 H193       -3.6348  -21.7633  -50.3089 H         1 UNK         0.0600 
    194 H194       -2.4367  -20.5352  -49.9270 H         1 UNK         0.0600 
    195 H195       -2.8716  -23.2479  -47.0767 H         1 UNK         0.3000 
    196 H196       -4.3427  -25.5524  -47.7908 H         1 UNK         0.0600 
    197 H197       -4.4675  -25.9256  -45.3246 H         1 UNK         0.0600 
    198 H198       -4.7814  -24.2461  -45.7357 H         1 UNK         0.0600 
    199 H199       -3.2199  -24.7126  -45.0661 H         1 UNK         0.0600 
    200 H200       -1.0050  -25.2676  -46.4662 H         1 UNK         0.3000 
    201 H201       -0.4417  -28.0487  -46.3308 H         1 UNK         0.0600 
    202 H202        0.8985  -26.3346  -45.1475 H         1 UNK         0.0600 
    203 H203        1.4522  -25.6647  -46.6802 H         1 UNK         0.0600 
    204 H204        1.9331  -27.2874  -46.2006 H         1 UNK         0.0600 
    205 H205       -0.1070  -25.7104  -48.9976 H         1 UNK         0.3000 
    206 H206        1.0566  -27.5748  -50.8849 H         1 UNK         0.0600 
    207 H207        1.4042  -25.1061  -51.0117 H         1 UNK         0.0600 
    208 H208        0.6667  -25.7144  -52.4855 H         1 UNK         0.0600 
    209 H209       -0.3172  -24.8659  -51.3007 H         1 UNK         0.0600 
    210 H210       -2.0461  -27.3859  -49.6058 H         1 UNK         0.3000 
    211 H211       -4.0217  -28.2384  -49.9984 H         1 UNK         0.0600 
    212 H212       -2.8002  -29.9006  -52.2607 H         1 UNK         0.0600 
    213 H213       -4.3052  -30.2208  -51.4124 H         1 UNK         0.0600 
    214 H214       -2.7792  -30.3439  -50.5538 H         1 UNK         0.0600 
    215 H215       -3.3565  -25.7311  -51.1892 H         1 UNK         0.3000 
    216 H216       -4.9771  -25.5834  -53.6767 H         1 UNK         0.0600 
    217 H217       -4.1589  -23.2366  -53.7158 H         1 UNK         0.0600 
    218 H218       -2.8027  -24.3490  -53.6059 H         1 UNK         0.0600 
    219 H219       -3.3360  -23.4658  -52.1784 H         1 UNK         0.0600 
    220 H220       -6.9701  -24.5841  -53.6872 H         1 UNK         0.3000 
    221 H221       -8.3975  -24.1748  -51.1818 H         1 UNK         0.0600 
    222 H222       -9.2234  -23.7121  -54.0992 H         1 UNK         0.0600 
    223 H223       -9.4986  -25.1861  -53.1697 H         1 UNK         0.0600 
    224 H224      -10.3038  -23.6947  -52.7107 H         1 UNK         0.0600 
    225 H225       -6.5362  -22.1807  -53.3040 H         1 UNK         0.3000 
    226 H226       -7.7927  -19.6294  -52.7498 H         1 UNK         0.0600 
    227 H227       -6.6627  -20.0786  -54.9033 H         1 UNK         0.0600 
    228 H228       -5.8575  -18.7623  -54.0655 H         1 UNK         0.0600 
    229 H229       -5.1303  -20.3647  -54.0790 H         1 UNK         0.0600 
    230 H230       -7.7264  -20.1114  -50.3345 H         1 UNK         0.3000 
    231 H231       -5.3574  -19.8773  -48.8064 H         1 UNK         0.0600 
    232 H232       -6.9289  -19.3261  -46.9390 H         1 UNK         0.0600 
    233 H233       -7.4973  -20.6969  -47.8784 H         1 UNK         0.0600 
    234 H234       -8.2370  -19.1100  -48.0959 H         1 UNK         0.0600 
    235 H235       -7.2104  -17.4077  -50.4383 H         1 UNK         0.3000 
    236 H236       -5.9680  -15.1168  -49.1291 H         1 UNK         0.0600 
    237 H237       -8.2656  -15.0046  -50.0969 H         1 UNK         0.0600 
    238 H238       -7.2001  -13.8527  -50.8836 H         1 UNK         0.0600 
    239 H239       -7.6207  -15.3516  -51.7025 H         1 UNK         0.0600 
    240 H240       -4.7615  -17.4113  -51.2970 H         1 UNK         0.3000 
    241 H241       -3.0395  -17.6264  -52.5487 H         1 UNK         0.0600 
    242 H242       -1.6752  -16.1065  -54.5271 H         1 UNK         0.3800 
    243 H243       -2.8716  -15.6354  -55.7066 H         1 UNK         0.3800 
    244 H244       -1.8366  -14.8596  -52.2145 H         1 UNK         0.0800 
    245 H245       -1.9843  -15.8358  -50.7913 H         1 UNK         0.0800 
    246 H246        0.4013  -16.2771  -50.1319 H         1 UNK         0.0800 
    247 H247       -0.5163  -17.7720  -50.1132 H         1 UNK         0.0800 
@<TRIPOS>BOND
     1    1    2 1    
     2    1  127 1    
     3    1  128 1    
     4    1  129 1    
     5    2    3 2    
     6    2    4 am   BACKBONE|DICT|INTERRES
     7    4    5 1    
     8    4  130 1    
     9    5    6 1    
    10    5   65 1    
    11    5  131 1    
    12    6    7 1    
    13    6  132 1    
    14    6  133 1    
    15    7    8 1    
    16    8    9 1    
    17    8  134 1    
    18    8  135 1    
    19    9   10 ar   
    20    9   14 ar   
    21   10   11 ar   
    22   10  136 1    
    23   11   12 ar   
    24   11  126 1    
    25   12   13 ar   
    26   12  137 1    
    27   13   14 ar   
    28   13   15 1    
    29   14  138 1    
    30   15   16 1    
    31   15  139 1    
    32   15  140 1    
    33   16   17 1    
    34   17   18 1    
    35   17  141 1    
    36   17  142 1    
    37   18   19 1    
    38   18   67 1    
    39   18  143 1    
    40   19   20 am   BACKBONE|DICT|INTERRES
    41   19  144 1    
    42   20   21 2    
    43   20   22 1    
    44   22   23 1    
    45   22   24 1    
    46   22  145 1    
    47   23  146 1    
    48   23  147 1    
    49   23  148 1    
    50   24   25 am   BACKBONE|DICT|INTERRES
    51   24  149 1    
    52   25   26 2    
    53   25   27 1    
    54   27   28 1    
    55   27   29 1    
    56   27  150 1    
    57   28  151 1    
    58   28  152 1    
    59   28  153 1    
    60   29   30 am   BACKBONE|DICT|INTERRES
    61   29  154 1    
    62   30   31 2    
    63   30   32 1    
    64   32   33 1    
    65   32   34 1    
    66   32  155 1    
    67   33  156 1    
    68   33  157 1    
    69   33  158 1    
    70   34   35 am   BACKBONE|DICT|INTERRES
    71   34  159 1    
    72   35   36 2    
    73   35   37 1    
    74   37   38 1    
    75   37   39 1    
    76   37  160 1    
    77   38  161 1    
    78   38  162 1    
    79   38  163 1    
    80   39   40 am   BACKBONE|DICT|INTERRES
    81   39  164 1    
    82   40   41 2    
    83   40   42 1    
    84   42   43 1    
    85   42   44 1    
    86   42  165 1    
    87   43  166 1    
    88   43  167 1    
    89   43  168 1    
    90   44   45 am   BACKBONE|DICT|INTERRES
    91   44  169 1    
    92   45   46 2    
    93   45   47 1    
    94   47   48 1    
    95   47   49 1    
    96   47  170 1    
    97   48  171 1    
    98   48  172 1    
    99   48  173 1    
   100   49   50 am   BACKBONE|DICT|INTERRES
   101   49  174 1    
   102   50   51 2    
   103   50   52 1    
   104   52   53 1    
   105   52   54 1    
   106   52  175 1    
   107   53  176 1    
   108   53  177 1    
   109   53  178 1    
   110   54   55 am   BACKBONE|DICT|INTERRES
   111   54  179 1    
   112   55   56 2    
   113   55   57 1    
   114   57   58 1    
   115   57   59 1    
   116   57  180 1    
   117   58  181 1    
   118   58  182 1    
   119   58  183 1    
   120   59   60 am   BACKBONE|DICT|INTERRES
   121   59  184 1    
   122   60   61 2    
   123   60   62 1    
   124   62   63 1    
   125   62   64 1    
   126   62  185 1    
   127   63  186 1    
   128   63  187 1    
   129   63  188 1    
   130   64   65 am   BACKBONE|DICT|INTERRES
   131   64  189 1    
   132   65   66 2    
   133   67   68 2    
   134   67   69 am   BACKBONE|DICT|INTERRES
   135   69   70 1    
   136   69  190 1    
   137   70   71 1    
   138   70   72 1    
   139   70  191 1    
   140   71  192 1    
   141   71  193 1    
   142   71  194 1    
   143   72   73 2    
   144   72   74 am   BACKBONE|DICT|INTERRES
   145   74   75 1    
   146   74  195 1    
   147   75   76 1    
   148   75   77 1    
   149   75  196 1    
   150   76  197 1    
   151   76  198 1    
   152   76  199 1    
   153   77   78 2    
   154   77   79 am   BACKBONE|DICT|INTERRES
   155   79   80 1    
   156   79  200 1    
   157   80   81 1    
   158   80   82 1    
   159   80  201 1    
   160   81  202 1    
   161   81  203 1    
   162   81  204 1    
   163   82   83 2    
   164   82   84 am   BACKBONE|DICT|INTERRES
   165   84   85 1    
   166   84  205 1    
   167   85   86 1    
   168   85   87 1    
   169   85  206 1    
   170   86  207 1    
   171   86  208 1    
   172   86  209 1    
   173   87   88 2    
   174   87   89 am   BACKBONE|DICT|INTERRES
   175   89   90 1    
   176   89  210 1    
   177   90   91 1    
   178   90   92 1    
   179   90  211 1    
   180   91  212 1    
   181   91  213 1    
   182   91  214 1    
   183   92   93 2    
   184   92   94 am   BACKBONE|DICT|INTERRES
   185   94   95 1    
   186   94  215 1    
   187   95   96 1    
   188   95   97 1    
   189   95  216 1    
   190   96  217 1    
   191   96  218 1    
   192   96  219 1    
   193   97   98 2    
   194   97   99 am   BACKBONE|DICT|INTERRES
   195   99  100 1    
   196   99  220 1    
   197  100  101 1    
   198  100  102 1    
   199  100  221 1    
   200  101  222 1    
   201  101  223 1    
   202  101  224 1    
   203  102  103 2    
   204  102  104 am   BACKBONE|DICT|INTERRES
   205  104  105 1    
   206  104  225 1    
   207  105  106 1    
   208  105  107 1    
   209  105  226 1    
   210  106  227 1    
   211  106  228 1    
   212  106  229 1    
   213  107  108 2    
   214  107  109 am   BACKBONE|DICT|INTERRES
   215  109  110 1    
   216  109  230 1    
   217  110  111 1    
   218  110  112 1    
   219  110  231 1    
   220  111  232 1    
   221  111  233 1    
   222  111  234 1    
   223  112  113 2    
   224  112  114 am   BACKBONE|DICT|INTERRES
   225  114  115 1    
   226  114  235 1    
   227  115  116 1    
   228  115  117 1    
   229  115  236 1    
   230  116  237 1    
   231  116  238 1    
   232  116  239 1    
   233  117  118 2    
   234  117  119 am   BACKBONE|DICT|INTERRES
   235  119  120 1    
   236  119  240 1    
   237  120  121 1    
   238  120  124 1    
   239  120  241 1    
   240  121  122 am   BACKBONE|DICT|INTERRES
   241  121  123 2    
   242  122  242 1    
   243  122  243 1    
   244  124  125 1    
   245  124  244 1    
   246  124  245 1    
   247  125  126 1    
   248  126  246 1    
   249  126  247 1    
@<TRIPOS>SUBSTRUCTURE
     1 UNK         1 GROUP             0       ****    0 ROOT    
