@<TRIPOS>MOLECULE
3R540
247   249    1
SMALL
USER_CHARGES


@<TRIPOS>ATOM
      1 CA         -4.8964  -14.3430  -50.4140 C.3       0 UNK        -0.1800 
      2 C          -3.6615  -13.6655  -49.8362 C.2       0 UNK         0.5000 
      3 O          -3.7667  -12.5553  -49.3127 O.2       0 UNK        -0.5000 
      4 N          -2.4937  -14.3102  -49.9455 N.am      1 UNK        -0.5000 
      5 CA         -1.2184  -13.8179  -49.4095 C.3       1 UNK         0.1400 
      6 C6         -0.0114  -14.6004  -49.9794 C.3       23 UNK        -0.0398 
      7 S7          0.2695  -14.2669  -51.7438 S.3       23 UNK        -0.2404 
      8 C8          1.6347  -15.4276  -52.0714 C.3       23 UNK        -0.0205 
      9 C9          1.1632  -16.8739  -52.0548 C.ar      23 UNK        -0.0193 
     10 C10         0.2719  -17.3145  -53.0337 C.ar      23 UNK        -0.1150 
     11 C11        -0.1737  -18.6365  -53.0485 C.ar      23 UNK        -0.0193 
     12 C12         0.2884  -19.5262  -52.0757 C.ar      23 UNK        -0.1150 
     13 C13         1.1660  -19.0974  -51.0727 C.ar      23 UNK        -0.0193 
     14 C14         1.6048  -17.7677  -51.0726 C.ar      23 UNK        -0.1150 
     15 C15         1.6550  -20.0708  -50.0039 C.3       23 UNK        -0.0205 
     16 S16         0.2884  -20.9873  -49.2115 S.3       23 UNK        -0.2404 
     17 C17         0.5001  -20.6056  -47.4392 C.3       23 UNK        -0.0398 
     18 CA         -0.1380  -21.6801  -46.5188 C.3       11 UNK         0.1400 
     19 N           0.6123  -21.8170  -45.2670 N.am      11 UNK        -0.5000 
     20 C           0.9513  -22.9872  -44.7091 C.2       10 UNK         0.5000 
     21 O           0.6511  -24.0839  -45.1816 O.2       10 UNK        -0.5000 
     22 CA          1.7437  -22.9309  -43.3898 C.3       10 UNK         0.1400 
     23 CB          3.2508  -23.0162  -43.6710 C.3       10 UNK        -0.1800 
     24 N           1.4632  -21.7475  -42.5703 N.am      10 UNK        -0.5000 
     25 C           0.2706  -21.4813  -42.0146 C.2       9 UNK         0.5000 
     26 O          -0.7279  -22.1689  -42.2291 O.2       9 UNK        -0.5000 
     27 CA          0.1561  -20.2451  -41.0942 C.3       9 UNK         0.1400 
     28 CB         -0.9159  -20.4139  -39.9987 C.3       9 UNK        -0.1800 
     29 N           1.4247  -19.8048  -40.5102 N.am      9 UNK        -0.5000 
     30 C           2.2567  -20.4940  -39.7157 C.2       8 UNK         0.5000 
     31 O           2.0109  -21.6150  -39.2676 O.2       8 UNK        -0.5000 
     32 CA          3.6113  -19.8114  -39.4111 C.3       8 UNK         0.1400 
     33 CB          4.7255  -20.8275  -39.0860 C.3       8 UNK        -0.1800 
     34 N           4.0520  -18.8928  -40.4735 N.am      8 UNK        -0.5000 
     35 C           4.2410  -19.1825  -41.7708 C.2       7 UNK         0.5000 
     36 O           4.0842  -20.3086  -42.2417 O.2       7 UNK        -0.5000 
     37 CA          4.5808  -18.0014  -42.7012 C.3       7 UNK         0.1400 
     38 CB          4.4906  -18.3797  -44.1916 C.3       7 UNK        -0.1800 
     39 N           3.6941  -16.8636  -42.4442 N.am      7 UNK        -0.5000 
     40 C           3.9330  -15.8919  -41.5547 C.2       6 UNK         0.5000 
     41 O           4.9375  -15.8530  -40.8441 O.2       6 UNK        -0.5000 
     42 CA          2.8575  -14.8027  -41.4051 C.3       6 UNK         0.1400 
     43 CB          3.1412  -13.6397  -42.3683 C.3       6 UNK        -0.1800 
     44 N           1.4871  -15.2785  -41.6158 N.am      6 UNK        -0.5000 
     45 C           0.8323  -16.1218  -40.8057 C.2       5 UNK         0.5000 
     46 O           1.3687  -16.7245  -39.8761 O.2       5 UNK        -0.5000 
     47 CA         -0.6657  -16.3345  -41.0758 C.3       5 UNK         0.1400 
     48 CB         -1.4898  -15.1319  -40.5885 C.3       5 UNK        -0.1800 
     49 N          -0.9358  -16.5767  -42.4924 N.am      5 UNK        -0.5000 
     50 C          -1.8215  -17.4717  -42.9538 C.2       4 UNK         0.5000 
     51 O          -2.5480  -18.1388  -42.2193 O.2       4 UNK        -0.5000 
     52 CA         -1.9213  -17.6829  -44.4811 C.3       4 UNK         0.1400 
     53 CB         -3.2313  -17.0918  -45.0196 C.3       4 UNK        -0.1800 
     54 N          -0.8085  -17.1092  -45.2345 N.am      4 UNK        -0.5000 
     55 C           0.4666  -17.5148  -45.1685 C.2       3 UNK         0.5000 
     56 O           0.8235  -18.5370  -44.5801 O.2       3 UNK        -0.5000 
     57 CA          1.5265  -16.6064  -45.8319 C.3       3 UNK         0.1400 
     58 CB          2.0499  -17.2517  -47.1236 C.3       3 UNK        -0.1800 
     59 N           1.0715  -15.2443  -46.1387 N.am      3 UNK        -0.5000 
     60 C           0.5641  -14.3484  -45.2769 C.2       2 UNK         0.5000 
     61 O           0.4510  -14.5595  -44.0703 O.2       2 UNK        -0.5000 
     62 CA          0.0433  -13.0185  -45.8573 C.3       2 UNK         0.1400 
     63 CB          1.0560  -11.8944  -45.5943 C.3       2 UNK        -0.1800 
     64 N          -0.2598  -13.0679  -47.2919 N.am      2 UNK        -0.5000 
     65 C          -1.1761  -13.8617  -47.8668 C.2       1 UNK         0.5000 
     66 O          -1.8880  -14.6457  -47.2341 O.2       1 UNK        -0.5000 
     67 C          -1.6487  -21.4505  -46.2672 C.2       11 UNK         0.5000 
     68 O          -2.3929  -21.2280  -47.2222 O.2       11 UNK        -0.5000 
     69 N          -2.1107  -21.5309  -45.0066 N.am      12 UNK        -0.5000 
     70 CA         -3.5226  -21.3589  -44.6373 C.3       12 UNK         0.1400 
     71 CB         -3.6726  -21.3772  -43.1109 C.3       12 UNK        -0.1800 
     72 C          -4.4456  -22.4177  -45.2669 C.2       12 UNK         0.5000 
     73 O          -5.5522  -22.0892  -45.6970 O.2       12 UNK        -0.5000 
     74 N          -3.9450  -23.6581  -45.3500 N.am      13 UNK        -0.5000 
     75 CA         -4.6260  -24.8078  -45.9473 C.3       13 UNK         0.1400 
     76 CB         -3.8188  -26.0774  -45.6374 C.3       13 UNK        -0.1800 
     77 C          -4.8544  -24.6738  -47.4654 C.2       13 UNK         0.5000 
     78 O          -5.7719  -25.3006  -47.9956 O.2       13 UNK        -0.5000 
     79 N          -4.0510  -23.8388  -48.1381 N.am      14 UNK        -0.5000 
     80 CA         -4.1322  -23.5492  -49.5687 C.3       14 UNK         0.1400 
     81 CB         -2.7339  -23.1559  -50.0688 C.3       14 UNK        -0.1800 
     82 C          -5.1849  -22.4655  -49.8764 C.2       14 UNK         0.5000 
     83 O          -4.8919  -21.5196  -50.6120 O.2       14 UNK        -0.5000 
     84 N          -6.3846  -22.6179  -49.2981 N.am      15 UNK        -0.5000 
     85 CA         -7.5425  -21.7221  -49.3969 C.3       15 UNK         0.1400 
     86 CB         -8.1221  -21.7521  -50.8270 C.3       15 UNK        -0.1800 
     87 C          -7.2311  -20.2915  -48.9083 C.2       15 UNK         0.5000 
     88 O          -7.6372  -19.3223  -49.5499 O.2       15 UNK        -0.5000 
     89 N          -6.4928  -20.1949  -47.7912 N.am      16 UNK        -0.5000 
     90 CA         -5.9171  -18.9697  -47.2286 C.3       16 UNK         0.1400 
     91 CB         -7.0138  -18.0053  -46.7299 C.3       16 UNK        -0.1800 
     92 C          -4.9115  -18.3155  -48.1982 C.2       16 UNK         0.5000 
     93 O          -5.0219  -17.1266  -48.4983 O.2       16 UNK        -0.5000 
     94 N          -3.9458  -19.1275  -48.6546 N.am      17 UNK        -0.5000 
     95 CA         -2.8372  -18.7848  -49.5480 C.3       17 UNK         0.1400 
     96 CB         -1.8385  -17.8703  -48.8152 C.3       17 UNK        -0.1800 
     97 C          -3.3079  -18.2128  -50.9002 C.2       17 UNK         0.5000 
     98 O          -2.8540  -17.1425  -51.3120 O.2       17 UNK        -0.5000 
     99 N          -4.2325  -18.9352  -51.5468 N.am      18 UNK        -0.5000 
    100 CA        -4.8793  -18.5424  -52.7994 C.3       18 UNK         0.1400 
    101 CB        -6.2881  -18.0146  -52.4887 C.3       18 UNK        -0.1800 
    102 C         -4.9492  -19.6802  -53.8361 C.2       18 UNK         0.5000 
    103 O         -5.1778  -19.3863  -55.0116 O.2       18 UNK        -0.5000 
    104 N         -4.7662  -20.9427  -53.4197 N.am      19 UNK        -0.5000 
    105 CA        -4.9095  -22.1121  -54.2923 C.3       19 UNK         0.1400 
    106 CB        -5.6614  -23.2231  -53.5415 C.3       19 UNK        -0.1800 
    107 C         -3.5673  -22.6464  -54.8211 C.2       19 UNK         0.5000 
    108 O         -3.4451  -22.8688  -56.0260 O.2       19 UNK        -0.5000 
    109 N         -2.6069  -22.8856  -53.9150 N.am      20 UNK        -0.5000 
    110 CA        -1.3630  -23.6273  -54.1627 C.3       20 UNK         0.1400 
    111 CB        -0.6129  -23.8370  -52.8364 C.3       20 UNK        -0.1800 
    112 C         -0.4547  -22.9757  -55.2215 C.2       20 UNK         0.5000 
    113 O          0.2596  -22.0246  -54.9064 O.2       20 UNK        -0.5000 
    114 N         -0.5229  -23.5013  -56.4543 N.am      21 UNK        -0.5000 
    115 CA         0.1320  -23.0043  -57.6721 C.3       21 UNK         0.1400 
    116 CB         1.6677  -23.1128  -57.5607 C.3       21 UNK        -0.1800 
    117 C         -0.3452  -21.5933  -58.0857 C.2       21 UNK         0.5000 
    118 O          0.3990  -20.8581  -58.7378 O.2       21 UNK        -0.5000 
    119 N         -1.5797  -21.2501  -57.7016 N.am      22 UNK        -0.5000 
    120 CA        -2.2200  -19.9502  -57.9128 C.3       22 UNK         0.1400 
    121 C         -3.5861  -20.1761  -58.6179 C.2       22 UNK         0.5000 
    122 N         -4.7243  -19.9640  -57.9640 N.am      22 UNK        -0.7600 
    123 O         -3.6194  -20.5243  -59.7956 O.2       22 UNK        -0.5000 
    124 C124       -2.3254  -19.1425  -56.5950 C.3       23 UNK        -0.0398 
    125 S125       -0.7374  -18.7524  -55.7900 S.3       23 UNK        -0.2404 
    126 C126       -1.2160  -19.0771  -54.0618 C.3       23 UNK        -0.0205 
    127 H127       -4.6552  -15.2917  -50.8914 H         1 UNK         0.0600 
    128 H128       -5.6196  -14.5397  -49.6226 H         1 UNK         0.0600 
    129 H129       -5.3672  -13.6999  -51.1574 H         1 UNK         0.0600 
    130 H130       -2.4744  -15.2273  -50.3795 H         1 UNK         0.3000 
    131 H131       -1.1183  -12.7708  -49.7041 H         1 UNK         0.0600 
    132 H132       -0.1495  -15.6713  -49.8346 H         1 UNK         0.0800 
    133 H133        0.9140  -14.3381  -49.4637 H         1 UNK         0.0800 
    134 H134        2.4353  -15.2667  -51.3478 H         1 UNK         0.0800 
    135 H135        2.0584  -15.2053  -53.0517 H         1 UNK         0.0800 
    136 H136       -0.0921  -16.6188  -53.7766 H         1 UNK         0.1150 
    137 H137       -0.0553  -20.5505  -52.0831 H         1 UNK         0.1150 
    138 H138        2.2911  -17.4279  -50.3100 H         1 UNK         0.1150 
    139 H139        2.3319  -20.7880  -50.4695 H         1 UNK         0.0800 
    140 H140        2.2395  -19.5439  -49.2493 H         1 UNK         0.0800 
    141 H141        1.5730  -20.5565  -47.2490 H         1 UNK         0.0800 
    142 H142        0.1127  -19.6111  -47.2263 H         1 UNK         0.0800 
    143 H143       -0.0827  -22.6308  -47.0532 H         1 UNK         0.0600 
    144 H144        0.8811  -20.9573  -44.8042 H         1 UNK         0.3000 
    145 H145        1.4610  -23.8083  -42.8045 H         1 UNK         0.0600 
    146 H146        3.8228  -23.0624  -42.7440 H         1 UNK         0.0600 
    147 H147        3.4927  -23.9108  -44.2463 H         1 UNK         0.0600 
    148 H148        3.6021  -22.1544  -44.2399 H         1 UNK         0.0600 
    149 H149        2.2565  -21.1484  -42.3630 H         1 UNK         0.3000 
    150 H150       -0.1599  -19.4330  -41.7456 H         1 UNK         0.0600 
    151 H151       -1.9016  -20.5769  -40.4353 H         1 UNK         0.0600 
    152 H152       -0.9854  -19.5232  -39.3746 H         1 UNK         0.0600 
    153 H153       -0.7006  -21.2635  -39.3502 H         1 UNK         0.0600 
    154 H154        1.7258  -18.8764  -40.7729 H         1 UNK         0.3000 
    155 H155        3.4486  -19.1988  -38.5233 H         1 UNK         0.0600 
    156 H156        4.4691  -21.4247  -38.2102 H         1 UNK         0.0600 
    157 H157        5.6672  -20.3238  -38.8684 H         1 UNK         0.0600 
    158 H158        4.8971  -21.5171  -39.9132 H         1 UNK         0.0600 
    159 H159        4.1876  -17.9302  -40.1908 H         1 UNK         0.3000 
    160 H160        5.6149  -17.7170  -42.4959 H         1 UNK         0.0600 
    161 H161        3.4988  -18.7455  -44.4569 H         1 UNK         0.0600 
    162 H162        5.2035  -19.1678  -44.4370 H         1 UNK         0.0600 
    163 H163        4.7198  -17.5277  -44.8316 H         1 UNK         0.0600 
    164 H164        2.8164  -16.8496  -42.9400 H         1 UNK         0.3000 
    165 H165        2.9202  -14.4193  -40.3846 H         1 UNK         0.0600 
    166 H166        4.1298  -13.2155  -42.1880 H         1 UNK         0.0600 
    167 H167        3.1085  -13.9616  -43.4098 H         1 UNK         0.0600 
    168 H168        2.4154  -12.8360  -42.2429 H         1 UNK         0.0600 
    169 H169        0.9934  -14.8574  -42.4000 H         1 UNK         0.3000 
    170 H170       -0.9626  -17.2066  -40.4894 H         1 UNK         0.0600 
    171 H171       -1.2876  -14.9172  -39.5383 H         1 UNK         0.0600 
    172 H172       -1.2636  -14.2309  -41.1601 H         1 UNK         0.0600 
    173 H173       -2.5585  -15.3261  -40.6805 H         1 UNK         0.0600 
    174 H174       -0.4028  -16.0258  -43.1577 H         1 UNK         0.3000 
    175 H175       -1.9262  -18.7578  -44.6624 H         1 UNK         0.0600 
    176 H176       -3.3004  -16.0219  -44.8183 H         1 UNK         0.0600 
    177 H177       -3.3078  -17.2280  -46.0969 H         1 UNK         0.0600 
    178 H178       -4.0979  -17.5719  -44.5635 H         1 UNK         0.0600 
    179 H179       -1.0172  -16.2698  -45.7610 H         1 UNK         0.3000 
    180 H180        2.3568  -16.5160  -45.1307 H         1 UNK         0.0600 
    181 H181        1.2590  -17.3648  -47.8662 H         1 UNK         0.0600 
    182 H182        2.8468  -16.6560  -47.5693 H         1 UNK         0.0600 
    183 H183        2.4637  -18.2412  -46.9262 H         1 UNK         0.0600 
    184 H184        1.1294  -14.9688  -47.1062 H         1 UNK         0.3000 
    185 H185       -0.8822  -12.7782  -45.3302 H         1 UNK         0.0600 
    186 H186        0.6674  -10.9287  -45.9179 H         1 UNK         0.0600 
    187 H187        1.2808  -11.8112  -44.5299 H         1 UNK         0.0600 
    188 H188        1.9980  -12.0705  -46.1153 H         1 UNK         0.0600 
    189 H189        0.2852  -12.4498  -47.8764 H         1 UNK         0.3000 
    190 H190       -1.4690  -21.7532  -44.2547 H         1 UNK         0.3000 
    191 H191       -3.8393  -20.3791  -44.9958 H         1 UNK         0.0600 
    192 H192       -4.6984  -21.1526  -42.8163 H         1 UNK         0.0600 
    193 H193       -3.0307  -20.6344  -42.6419 H         1 UNK         0.0600 
    194 H194       -3.4156  -22.3502  -42.6906 H         1 UNK         0.0600 
    195 H195       -3.0212  -23.8244  -44.9779 H         1 UNK         0.3000 
    196 H196       -5.6068  -24.8995  -45.4761 H         1 UNK         0.0600 
    197 H197       -4.3090  -26.9624  -46.0455 H         1 UNK         0.0600 
    198 H198       -3.7197  -26.2298  -44.5625 H         1 UNK         0.0600 
    199 H199       -2.8161  -26.0307  -46.0645 H         1 UNK         0.0600 
    200 H200       -3.3721  -23.2998  -47.6177 H         1 UNK         0.3000 
    201 H201       -4.4343  -24.4527  -50.1022 H         1 UNK         0.0600 
    202 H202       -2.0004  -23.9338  -49.8574 H         1 UNK         0.0600 
    203 H203       -2.3866  -22.2328  -49.6081 H         1 UNK         0.0600 
    204 H204       -2.7419  -22.9934  -51.1440 H         1 UNK         0.0600 
    205 H205       -6.5116  -23.4412  -48.7209 H         1 UNK         0.3000 
    206 H206       -8.3013  -22.1198  -48.7217 H         1 UNK         0.0600 
    207 H207       -8.3227  -22.7731  -51.1512 H         1 UNK         0.0600 
    208 H208       -9.0640  -21.2049  -50.8781 H         1 UNK         0.0600 
    209 H209       -7.4425  -21.2972  -51.5482 H         1 UNK         0.0600 
    210 H210       -6.2309  -21.0499  -47.3102 H         1 UNK         0.3000 
    211 H211       -5.3421  -19.2752  -46.3553 H         1 UNK         0.0600 
    212 H212       -7.6094  -17.6019  -47.5489 H         1 UNK         0.0600 
    213 H213       -6.5724  -17.1586  -46.2029 H         1 UNK         0.0600 
    214 H214       -7.6902  -18.5034  -46.0354 H         1 UNK         0.0600 
    215 H215       -3.9261  -20.0827  -48.3207 H         1 UNK         0.3000 
    216 H216       -2.3277  -19.7220  -49.7716 H         1 UNK         0.0600 
    217 H217       -2.2400  -16.8675  -48.6760 H         1 UNK         0.0600 
    218 H218       -0.9091  -17.7899  -49.3772 H         1 UNK         0.0600 
    219 H219       -1.5955  -18.2637  -47.8302 H         1 UNK         0.0600 
    220 H220       -4.5585  -19.7968  -51.1141 H         1 UNK         0.3000 
    221 H221       -4.3162  -17.7342  -53.2698 H         1 UNK         0.0600 
    222 H222       -6.9252  -18.7981  -52.0781 H         1 UNK         0.0600 
    223 H223       -6.2551  -17.1982  -51.7667 H         1 UNK         0.0600 
    224 H224       -6.7727  -17.6356  -53.3892 H         1 UNK         0.0600 
    225 H225       -4.6411  -21.1238  -52.4287 H         1 UNK         0.3000 
    226 H226       -5.5183  -21.8539  -55.1617 H         1 UNK         0.0600 
    227 H227       -6.6495  -22.8870  -53.2291 H         1 UNK         0.0600 
    228 H228       -5.8059  -24.0955  -54.1801 H         1 UNK         0.0600 
    229 H229       -5.1227  -23.5552  -52.6545 H         1 UNK         0.0600 
    230 H230       -2.7824  -22.6256  -52.9578 H         1 UNK         0.3000 
    231 H231       -1.6436  -24.6171  -54.5292 H         1 UNK         0.0600 
    232 H232       -0.4371  -22.8961  -52.3144 H         1 UNK         0.0600 
    233 H233       -1.1685  -24.4980  -52.1720 H         1 UNK         0.0600 
    234 H234        0.3590  -24.3026  -53.0051 H         1 UNK         0.0600 
    235 H235       -1.1750  -24.2594  -56.6025 H         1 UNK         0.3000 
    236 H236       -0.1835  -23.6710  -58.4757 H         1 UNK         0.0600 
    237 H237        1.9722  -24.1161  -57.2630 H         1 UNK         0.0600 
    238 H238        2.1448  -22.9012  -58.5182 H         1 UNK         0.0600 
    239 H239        2.0725  -22.4086  -56.8334 H         1 UNK         0.0600 
    240 H240       -2.1413  -21.9305  -57.1987 H         1 UNK         0.3000 
    241 H241       -1.6288  -19.3552  -58.6111 H         1 UNK         0.0600 
    242 H242       -5.5932  -20.1072  -58.4539 H         1 UNK         0.3800 
    243 H243       -4.7539  -19.6918  -56.9873 H         1 UNK         0.3800 
    244 H244       -2.9101  -19.7281  -55.8914 H         1 UNK         0.0800 
    245 H245       -2.8605  -18.2049  -56.7544 H         1 UNK         0.0800 
    246 H246       -2.1333  -18.5317  -53.8457 H         1 UNK         0.0800 
    247 H247       -1.4454  -20.1370  -53.9462 H         1 UNK         0.0800 
@<TRIPOS>BOND
     1    1    2 1    
     2    1  127 1    
     3    1  128 1    
     4    1  129 1    
     5    2    3 2    
     6    2    4 am   BACKBONE|DICT|INTERRES
     7    4    5 1    
     8    4  130 1    
     9    5    6 1    
    10    5   65 1    
    11    5  131 1    
    12    6    7 1    
    13    6  132 1    
    14    6  133 1    
    15    7    8 1    
    16    8    9 1    
    17    8  134 1    
    18    8  135 1    
    19    9   10 ar   
    20    9   14 ar   
    21   10   11 ar   
    22   10  136 1    
    23   11   12 ar   
    24   11  126 1    
    25   12   13 ar   
    26   12  137 1    
    27   13   14 ar   
    28   13   15 1    
    29   14  138 1    
    30   15   16 1    
    31   15  139 1    
    32   15  140 1    
    33   16   17 1    
    34   17   18 1    
    35   17  141 1    
    36   17  142 1    
    37   18   19 1    
    38   18   67 1    
    39   18  143 1    
    40   19   20 am   BACKBONE|DICT|INTERRES
    41   19  144 1    
    42   20   21 2    
    43   20   22 1    
    44   22   23 1    
    45   22   24 1    
    46   22  145 1    
    47   23  146 1    
    48   23  147 1    
    49   23  148 1    
    50   24   25 am   BACKBONE|DICT|INTERRES
    51   24  149 1    
    52   25   26 2    
    53   25   27 1    
    54   27   28 1    
    55   27   29 1    
    56   27  150 1    
    57   28  151 1    
    58   28  152 1    
    59   28  153 1    
    60   29   30 am   BACKBONE|DICT|INTERRES
    61   29  154 1    
    62   30   31 2    
    63   30   32 1    
    64   32   33 1    
    65   32   34 1    
    66   32  155 1    
    67   33  156 1    
    68   33  157 1    
    69   33  158 1    
    70   34   35 am   BACKBONE|DICT|INTERRES
    71   34  159 1    
    72   35   36 2    
    73   35   37 1    
    74   37   38 1    
    75   37   39 1    
    76   37  160 1    
    77   38  161 1    
    78   38  162 1    
    79   38  163 1    
    80   39   40 am   BACKBONE|DICT|INTERRES
    81   39  164 1    
    82   40   41 2    
    83   40   42 1    
    84   42   43 1    
    85   42   44 1    
    86   42  165 1    
    87   43  166 1    
    88   43  167 1    
    89   43  168 1    
    90   44   45 am   BACKBONE|DICT|INTERRES
    91   44  169 1    
    92   45   46 2    
    93   45   47 1    
    94   47   48 1    
    95   47   49 1    
    96   47  170 1    
    97   48  171 1    
    98   48  172 1    
    99   48  173 1    
   100   49   50 am   BACKBONE|DICT|INTERRES
   101   49  174 1    
   102   50   51 2    
   103   50   52 1    
   104   52   53 1    
   105   52   54 1    
   106   52  175 1    
   107   53  176 1    
   108   53  177 1    
   109   53  178 1    
   110   54   55 am   BACKBONE|DICT|INTERRES
   111   54  179 1    
   112   55   56 2    
   113   55   57 1    
   114   57   58 1    
   115   57   59 1    
   116   57  180 1    
   117   58  181 1    
   118   58  182 1    
   119   58  183 1    
   120   59   60 am   BACKBONE|DICT|INTERRES
   121   59  184 1    
   122   60   61 2    
   123   60   62 1    
   124   62   63 1    
   125   62   64 1    
   126   62  185 1    
   127   63  186 1    
   128   63  187 1    
   129   63  188 1    
   130   64   65 am   BACKBONE|DICT|INTERRES
   131   64  189 1    
   132   65   66 2    
   133   67   68 2    
   134   67   69 am   BACKBONE|DICT|INTERRES
   135   69   70 1    
   136   69  190 1    
   137   70   71 1    
   138   70   72 1    
   139   70  191 1    
   140   71  192 1    
   141   71  193 1    
   142   71  194 1    
   143   72   73 2    
   144   72   74 am   BACKBONE|DICT|INTERRES
   145   74   75 1    
   146   74  195 1    
   147   75   76 1    
   148   75   77 1    
   149   75  196 1    
   150   76  197 1    
   151   76  198 1    
   152   76  199 1    
   153   77   78 2    
   154   77   79 am   BACKBONE|DICT|INTERRES
   155   79   80 1    
   156   79  200 1    
   157   80   81 1    
   158   80   82 1    
   159   80  201 1    
   160   81  202 1    
   161   81  203 1    
   162   81  204 1    
   163   82   83 2    
   164   82   84 am   BACKBONE|DICT|INTERRES
   165   84   85 1    
   166   84  205 1    
   167   85   86 1    
   168   85   87 1    
   169   85  206 1    
   170   86  207 1    
   171   86  208 1    
   172   86  209 1    
   173   87   88 2    
   174   87   89 am   BACKBONE|DICT|INTERRES
   175   89   90 1    
   176   89  210 1    
   177   90   91 1    
   178   90   92 1    
   179   90  211 1    
   180   91  212 1    
   181   91  213 1    
   182   91  214 1    
   183   92   93 2    
   184   92   94 am   BACKBONE|DICT|INTERRES
   185   94   95 1    
   186   94  215 1    
   187   95   96 1    
   188   95   97 1    
   189   95  216 1    
   190   96  217 1    
   191   96  218 1    
   192   96  219 1    
   193   97   98 2    
   194   97   99 am   BACKBONE|DICT|INTERRES
   195   99  100 1    
   196   99  220 1    
   197  100  101 1    
   198  100  102 1    
   199  100  221 1    
   200  101  222 1    
   201  101  223 1    
   202  101  224 1    
   203  102  103 2    
   204  102  104 am   BACKBONE|DICT|INTERRES
   205  104  105 1    
   206  104  225 1    
   207  105  106 1    
   208  105  107 1    
   209  105  226 1    
   210  106  227 1    
   211  106  228 1    
   212  106  229 1    
   213  107  108 2    
   214  107  109 am   BACKBONE|DICT|INTERRES
   215  109  110 1    
   216  109  230 1    
   217  110  111 1    
   218  110  112 1    
   219  110  231 1    
   220  111  232 1    
   221  111  233 1    
   222  111  234 1    
   223  112  113 2    
   224  112  114 am   BACKBONE|DICT|INTERRES
   225  114  115 1    
   226  114  235 1    
   227  115  116 1    
   228  115  117 1    
   229  115  236 1    
   230  116  237 1    
   231  116  238 1    
   232  116  239 1    
   233  117  118 2    
   234  117  119 am   BACKBONE|DICT|INTERRES
   235  119  120 1    
   236  119  240 1    
   237  120  121 1    
   238  120  124 1    
   239  120  241 1    
   240  121  122 am   BACKBONE|DICT|INTERRES
   241  121  123 2    
   242  122  242 1    
   243  122  243 1    
   244  124  125 1    
   245  124  244 1    
   246  124  245 1    
   247  125  126 1    
   248  126  246 1    
   249  126  247 1    
@<TRIPOS>SUBSTRUCTURE
     1 UNK         1 GROUP             0       ****    0 ROOT    
