@<TRIPOS>MOLECULE
3R540
247   249    1
SMALL
USER_CHARGES


@<TRIPOS>ATOM
      1 CA         -0.2272  -12.4207  -47.3781 C.3       0 UNK        -0.1800 
      2 C           1.1972  -12.4212  -47.9114 C.2       0 UNK         0.5000 
      3 O           2.0518  -11.7167  -47.3741 O.2       0 UNK        -0.5000 
      4 N           1.4643  -13.2218  -48.9529 N.am      1 UNK        -0.5000 
      5 CA          2.7547  -13.3045  -49.6593 C.3       1 UNK         0.1400 
      6 C6          2.6666  -14.1571  -50.9490 C.3       23 UNK        -0.0398 
      7 S7          1.3433  -13.5897  -52.0718 S.3       23 UNK        -0.2404 
      8 C8          0.6826  -15.1652  -52.7091 C.3       23 UNK        -0.0205 
      9 C9          0.0948  -16.0658  -51.6280 C.ar      23 UNK        -0.0193 
     10 C10        -0.9115  -15.5989  -50.7776 C.ar      23 UNK        -0.1150 
     11 C11        -1.4775  -16.4396  -49.8149 C.ar      23 UNK        -0.0193 
     12 C12        -1.0398  -17.7639  -49.7134 C.ar      23 UNK        -0.1150 
     13 C13        -0.0317  -18.2435  -50.5568 C.ar      23 UNK        -0.0193 
     14 C14         0.5343  -17.3872  -51.5056 C.ar      23 UNK        -0.1150 
     15 C15         0.4039  -19.7011  -50.5000 C.3       23 UNK        -0.0205 
     16 S16         1.8243  -19.9959  -49.3921 S.3       23 UNK        -0.2404 
     17 C17         1.0808  -19.9167  -47.7267 C.3       23 UNK        -0.0398 
     18 CA          0.5845  -21.2864  -47.1919 C.3       11 UNK         0.1400 
     19 N           0.4270  -21.2881  -45.7347 N.am      11 UNK        -0.5000 
     20 C           0.0810  -22.3470  -44.9869 C.2       10 UNK         0.5000 
     21 O          -0.0617  -23.4847  -45.4335 O.2       10 UNK        -0.5000 
     22 CA         -0.2214  -22.0792  -43.5003 C.3       10 UNK         0.1400 
     23 CB          1.0684  -22.0447  -42.6677 C.3       10 UNK        -0.1800 
     24 N          -0.9819  -20.8433  -43.3014 N.am      10 UNK        -0.5000 
     25 C          -2.2272  -20.6460  -43.7596 C.2       9 UNK         0.5000 
     26 O          -2.8871  -21.5153  -44.3292 O.2       9 UNK        -0.5000 
     27 CA         -2.8147  -19.2307  -43.6054 C.3       9 UNK         0.1400 
     28 CB         -3.3852  -19.0214  -42.1951 C.3       9 UNK        -0.1800 
     29 N          -1.8355  -18.1850  -43.9064 N.am      9 UNK        -0.5000 
     30 C          -1.2986  -17.9788  -45.1175 C.2       8 UNK         0.5000 
     31 O          -1.6377  -18.5975  -46.1257 O.2       8 UNK        -0.5000 
     32 CA         -0.1512  -16.9562  -45.2114 C.3       8 UNK         0.1400 
     33 CB         -0.6886  -15.5277  -45.3665 C.3       8 UNK        -0.1800 
     34 N           0.7464  -17.0164  -44.0582 N.am      8 UNK        -0.5000 
     35 C           1.5335  -18.0588  -43.7598 C.2       7 UNK         0.5000 
     36 O           1.6279  -19.0591  -44.4674 O.2       7 UNK        -0.5000 
     37 CA          2.3031  -17.9998  -42.4287 C.3       7 UNK         0.1400 
     38 CB          3.6236  -17.2326  -42.5726 C.3       7 UNK        -0.1800 
     39 N           1.5026  -17.3980  -41.3656 N.am      7 UNK        -0.5000 
     40 C           0.4519  -17.9959  -40.7886 C.2       6 UNK         0.5000 
     41 O           0.0672  -19.1292  -41.0765 O.2       6 UNK        -0.5000 
     42 CA         -0.3185  -17.1674  -39.7454 C.3       6 UNK         0.1400 
     43 CB          0.3487  -17.2758  -38.3663 C.3       6 UNK        -0.1800 
     44 N          -0.4271  -15.7570  -40.1243 N.am      6 UNK        -0.5000 
     45 C          -1.1446  -15.3127  -41.1654 C.2       5 UNK         0.5000 
     46 O          -1.8037  -16.0447  -41.9028 O.2       5 UNK        -0.5000 
     47 CA         -1.0761  -13.8034  -41.4565 C.3       5 UNK         0.1400 
     48 CB         -2.0560  -13.0332  -40.5587 C.3       5 UNK        -0.1800 
     49 N           0.2700  -13.2411  -41.3072 N.am      5 UNK        -0.5000 
     50 C           1.3197  -13.5828  -42.0645 C.2       4 UNK         0.5000 
     51 O           1.2889  -14.4687  -42.9216 O.2       4 UNK        -0.5000 
     52 CA          2.6273  -12.8225  -41.8262 C.3       4 UNK         0.1400 
     53 CB          3.5468  -13.5857  -40.8574 C.3       4 UNK        -0.1800 
     54 N           3.2763  -12.6494  -43.1204 N.am      4 UNK        -0.5000 
     55 C           4.1590  -11.6954  -43.4324 C.2       3 UNK         0.5000 
     56 O           4.5996  -10.8899  -42.6101 O.2       3 UNK        -0.5000 
     57 CA          4.5843  -11.5839  -44.9129 C.3       3 UNK         0.1400 
     58 CB          6.0454  -11.1156  -45.0822 C.3       3 UNK        -0.1800 
     59 N           4.3084  -12.7775  -45.7232 N.am      3 UNK        -0.5000 
     60 C           4.9097  -13.9770  -45.6564 C.2       2 UNK         0.5000 
     61 O           5.7726  -14.2620  -44.8260 O.2       2 UNK        -0.5000 
     62 CA          4.4798  -15.0507  -46.6825 C.3       2 UNK         0.1400 
     63 CB          3.8057  -16.2374  -45.9833 C.3       2 UNK        -0.1800 
     64 N           3.5628  -14.5507  -47.7049 N.am      2 UNK        -0.5000 
     65 C           3.9090  -13.8143  -48.7685 C.2       1 UNK         0.5000 
     66 O           5.0717  -13.5188  -49.0463 O.2       1 UNK        -0.5000 
     67 C          -0.7150  -21.7301  -47.8912 C.2       11 UNK         0.5000 
     68 O          -0.6736  -22.6426  -48.7135 O.2       11 UNK        -0.5000 
     69 N          -1.8440  -21.1020  -47.5311 N.am      12 UNK        -0.5000 
     70 CA         -3.1789  -21.4055  -48.0519 C.3       12 UNK         0.1400 
     71 CB         -4.1947  -20.4359  -47.4315 C.3       12 UNK        -0.1800 
     72 C          -3.6040  -22.8648  -47.8063 C.2       12 UNK         0.5000 
     73 O          -4.1318  -23.5058  -48.7164 O.2       12 UNK        -0.5000 
     74 N          -3.3268  -23.3680  -46.5947 N.am      13 UNK        -0.5000 
     75 CA         -3.5568  -24.7541  -46.1927 C.3       13 UNK         0.1400 
     76 CB         -3.3369  -24.8965  -44.6791 C.3       13 UNK        -0.1800 
     77 C          -2.6831  -25.7512  -46.9749 C.2       13 UNK         0.5000 
     78 O          -3.2070  -26.7491  -47.4701 O.2       13 UNK        -0.5000 
     79 N          -1.3829  -25.4511  -47.1114 N.am      14 UNK        -0.5000 
     80 CA         -0.4199  -26.2438  -47.8837 C.3       14 UNK         0.1400 
     81 CB          0.9984  -25.7052  -47.6430 C.3       14 UNK        -0.1800 
     82 C          -0.7411  -26.2769  -49.3903 C.2       14 UNK         0.5000 
     83 O          -0.5811  -27.3173  -50.0289 O.2       14 UNK        -0.5000 
     84 N          -1.2303  -25.1474  -49.9157 N.am      15 UNK        -0.5000 
     85 CA         -1.7245  -24.9802  -51.2814 C.3       15 UNK         0.1400 
     86 CB         -1.7615  -23.4768  -51.5984 C.3       15 UNK        -0.1800 
     87 C          -3.1140  -25.6051  -51.5229 C.2       15 UNK         0.5000 
     88 O          -3.5854  -25.5826  -52.6630 O.2       15 UNK        -0.5000 
     89 N          -3.7670  -26.0931  -50.4552 N.am      16 UNK        -0.5000 
     90 CA         -5.1066  -26.6937  -50.4041 C.3       16 UNK         0.1400 
     91 CB         -5.1018  -28.0545  -51.1299 C.3       16 UNK        -0.1800 
     92 C          -6.2266  -25.7606  -50.9152 C.2       16 UNK         0.5000 
     93 O          -7.2688  -26.2417  -51.3629 O.2       16 UNK        -0.5000 
     94 N          -5.9668  -24.4445  -50.8800 N.am      17 UNK        -0.5000 
     95 CA         -6.7310  -23.3619  -51.5079 C.3       17 UNK         0.1400 
     96 CB         -8.0455  -23.1150  -50.7409 C.3       17 UNK        -0.1800 
     97 C          -6.9417  -23.5390  -53.0314 C.2       17 UNK         0.5000 
     98 O          -7.9219  -23.0277  -53.5767 O.2       17 UNK        -0.5000 
     99 N          -6.0305  -24.2720  -53.6867 N.am      18 UNK        -0.5000 
    100 CA        -6.0849  -24.6157  -55.1058 C.3       18 UNK         0.1400 
    101 CB        -6.1793  -26.1434  -55.2480 C.3       18 UNK        -0.1800 
    102 C         -4.8536  -24.0768  -55.8460 C.2       18 UNK         0.5000 
    103 O         -4.9999  -23.5016  -56.9249 O.2       18 UNK        -0.5000 
    104 N         -3.6641  -24.2498  -55.2519 N.am      19 UNK        -0.5000 
    105 CA        -2.3893  -23.7802  -55.8047 C.3       19 UNK         0.1400 
    106 CB        -1.2636  -24.7068  -55.3173 C.3       19 UNK        -0.1800 
    107 C         -2.0859  -22.3040  -55.4684 C.2       19 UNK         0.5000 
    108 O         -1.0807  -21.7728  -55.9421 O.2       19 UNK        -0.5000 
    109 N         -2.9458  -21.6695  -54.6641 N.am      20 UNK        -0.5000 
    110 CA        -2.8880  -20.2657  -54.2761 C.3       20 UNK         0.1400 
    111 CB        -2.2643  -20.1483  -52.8753 C.3       20 UNK        -0.1800 
    112 C         -4.3137  -19.7000  -54.2847 C.2       20 UNK         0.5000 
    113 O         -5.2766  -20.4632  -54.1702 O.2       20 UNK        -0.5000 
    114 N         -4.4197  -18.3708  -54.4063 N.am      21 UNK        -0.5000 
    115 CA        -5.6885  -17.6372  -54.3919 C.3       21 UNK         0.1400 
    116 CB        -5.4490  -16.2116  -54.9131 C.3       21 UNK        -0.1800 
    117 C         -6.3483  -17.5980  -52.9998 C.2       21 UNK         0.5000 
    118 O         -7.5747  -17.5236  -52.9117 O.2       21 UNK        -0.5000 
    119 N         -5.5254  -17.6449  -51.9454 N.am      22 UNK        -0.5000 
    120 CA        -5.9552  -17.7442  -50.5458 C.3       22 UNK         0.1400 
    121 C         -6.5520  -19.1420  -50.2376 C.2       22 UNK         0.5000 
    122 N         -7.7446  -19.2112  -49.6626 N.am      22 UNK        -0.7600 
    123 O         -5.9113  -20.1617  -50.4707 O.2       22 UNK        -0.5000 
    124 C124       -4.7889  -17.4463  -49.5746 C.3       23 UNK        -0.0398 
    125 S125       -4.1618  -15.7442  -49.7256 S.3       23 UNK        -0.2404 
    126 C126       -2.5568  -15.9046  -48.8864 C.3       23 UNK        -0.0205 
    127 H127       -0.7201  -11.4822  -47.6309 H         1 UNK         0.0600 
    128 H128       -0.2246  -12.5220  -46.2929 H         1 UNK         0.0600 
    129 H129       -0.8132  -13.2383  -47.7952 H         1 UNK         0.0600 
    130 H130        0.7201  -13.7696  -49.3606 H         1 UNK         0.3000 
    131 H131        3.0178  -12.2861  -49.9534 H         1 UNK         0.0600 
    132 H132        3.6084  -14.1147  -51.4993 H         1 UNK         0.0800 
    133 H133        2.5111  -15.2070  -50.6962 H         1 UNK         0.0800 
    134 H134        1.4758  -15.6795  -53.2541 H         1 UNK         0.0800 
    135 H135       -0.0972  -14.9465  -53.4396 H         1 UNK         0.0800 
    136 H136       -1.2632  -14.5810  -50.8721 H         1 UNK         0.1150 
    137 H137       -1.4925  -18.4224  -48.9854 H         1 UNK         0.1150 
    138 H138        1.3032  -17.7613  -52.1671 H         1 UNK         0.1150 
    139 H139       -0.4414  -20.3318  -50.2302 H         1 UNK         0.0800 
    140 H140        0.6938  -20.0255  -51.5003 H         1 UNK         0.0800 
    141 H141        0.2984  -19.1618  -47.7038 H         1 UNK         0.0800 
    142 H142        1.8649  -19.5382  -47.0702 H         1 UNK         0.0800 
    143 H143        1.3484  -22.0338  -47.4163 H         1 UNK         0.0600 
    144 H144        0.6026  -20.4054  -45.2618 H         1 UNK         0.3000 
    145 H145       -0.8336  -22.9059  -43.1340 H         1 UNK         0.0600 
    146 H146        0.8508  -21.8964  -41.6098 H         1 UNK         0.0600 
    147 H147        1.6144  -22.9843  -42.7595 H         1 UNK         0.0600 
    148 H148        1.7374  -21.2464  -42.9864 H         1 UNK         0.0600 
    149 H149       -0.5230  -20.0988  -42.7876 H         1 UNK         0.3000 
    150 H150       -3.6359  -19.1336  -44.3184 H         1 UNK         0.0600 
    151 H151       -4.1375  -19.7762  -41.9631 H         1 UNK         0.0600 
    152 H152       -3.8639  -18.0462  -42.1054 H         1 UNK         0.0600 
    153 H153       -2.6105  -19.0842  -41.4312 H         1 UNK         0.0600 
    154 H154       -1.5583  -17.5822  -43.1381 H         1 UNK         0.3000 
    155 H155        0.4328  -17.1939  -46.1028 H         1 UNK         0.0600 
    156 H156       -1.3311  -15.4419  -46.2417 H         1 UNK         0.0600 
    157 H157        0.1280  -14.8167  -45.4889 H         1 UNK         0.0600 
    158 H158       -1.2722  -15.2199  -44.4989 H         1 UNK         0.0600 
    159 H159        0.7770  -16.1923  -43.4637 H         1 UNK         0.3000 
    160 H160        2.5424  -19.0238  -42.1342 H         1 UNK         0.0600 
    161 H161        3.4692  -16.2240  -42.9569 H         1 UNK         0.0600 
    162 H162        4.2951  -17.7521  -43.2560 H         1 UNK         0.0600 
    163 H163        4.1413  -17.1527  -41.6167 H         1 UNK         0.0600 
    164 H164        1.7260  -16.4497  -41.1047 H         1 UNK         0.3000 
    165 H165       -1.3268  -17.5802  -39.6708 H         1 UNK         0.0600 
    166 H166       -0.2311  -16.7521  -37.6060 H         1 UNK         0.0600 
    167 H167        0.4280  -18.3176  -38.0527 H         1 UNK         0.0600 
    168 H168        1.3555  -16.8563  -38.3696 H         1 UNK         0.0600 
    169 H169        0.0881  -15.0892  -39.5700 H         1 UNK         0.3000 
    170 H170       -1.3831  -13.6568  -42.4942 H         1 UNK         0.0600 
    171 H171       -3.0697  -13.4225  -40.6635 H         1 UNK         0.0600 
    172 H172       -1.7831  -13.1071  -39.5053 H         1 UNK         0.0600 
    173 H173       -2.0868  -11.9764  -40.8246 H         1 UNK         0.0600 
    174 H174        0.3779  -12.5109  -40.6179 H         1 UNK         0.3000 
    175 H175        2.3903  -11.8418  -41.4082 H         1 UNK         0.0600 
    176 H176        3.8410  -14.5546  -41.2596 H         1 UNK         0.0600 
    177 H177        4.4571  -13.0224  -40.6520 H         1 UNK         0.0600 
    178 H178        3.0517  -13.7604  -39.9015 H         1 UNK         0.0600 
    179 H179        2.9340  -13.2668  -43.8452 H         1 UNK         0.3000 
    180 H180        3.9504  -10.8022  -45.3339 H         1 UNK         0.0600 
    181 H181        6.7493  -11.7980  -44.6055 H         1 UNK         0.0600 
    182 H182        6.1954  -10.1319  -44.6362 H         1 UNK         0.0600 
    183 H183        6.3144  -11.0358  -46.1356 H         1 UNK         0.0600 
    184 H184        3.5917  -12.6426  -46.4292 H         1 UNK         0.3000 
    185 H185        5.3845  -15.4138  -47.1746 H         1 UNK         0.0600 
    186 H186        4.5035  -16.7259  -45.3046 H         1 UNK         0.0600 
    187 H187        2.9402  -15.9152  -45.4046 H         1 UNK         0.0600 
    188 H188        3.4732  -16.9904  -46.6984 H         1 UNK         0.0600 
    189 H189        2.5814  -14.7368  -47.5609 H         1 UNK         0.3000 
    190 H190       -1.7854  -20.3369  -46.8637 H         1 UNK         0.3000 
    191 H191       -3.1590  -21.2372  -49.1306 H         1 UNK         0.0600 
    192 H192       -4.2896  -20.5800  -46.3560 H         1 UNK         0.0600 
    193 H193       -5.1846  -20.5778  -47.8653 H         1 UNK         0.0600 
    194 H194       -3.9027  -19.4007  -47.5994 H         1 UNK         0.0600 
    195 H195       -2.9339  -22.7489  -45.8918 H         1 UNK         0.3000 
    196 H196       -4.6014  -24.9911  -46.4054 H         1 UNK         0.0600 
    197 H197       -3.5299  -25.9185  -44.3508 H         1 UNK         0.0600 
    198 H198       -4.0075  -24.2427  -44.1211 H         1 UNK         0.0600 
    199 H199       -2.3151  -24.6467  -44.3934 H         1 UNK         0.0600 
    200 H200       -1.0171  -24.6234  -46.6473 H         1 UNK         0.3000 
    201 H201       -0.4612  -27.2704  -47.5143 H         1 UNK         0.0600 
    202 H202        1.2648  -25.7564  -46.5872 H         1 UNK         0.0600 
    203 H203        1.0936  -24.6665  -47.9611 H         1 UNK         0.0600 
    204 H204        1.7375  -26.2879  -48.1942 H         1 UNK         0.0600 
    205 H205       -1.2467  -24.3136  -49.3320 H         1 UNK         0.3000 
    206 H206       -1.0255  -25.4648  -51.9651 H         1 UNK         0.0600 
    207 H207       -0.7676  -23.0336  -51.5338 H         1 UNK         0.0600 
    208 H208       -2.1339  -23.2916  -52.6034 H         1 UNK         0.0600 
    209 H209       -2.4133  -22.9383  -50.9101 H         1 UNK         0.0600 
    210 H210       -3.3032  -26.0258  -49.5577 H         1 UNK         0.3000 
    211 H211       -5.3203  -26.8761  -49.3503 H         1 UNK         0.0600 
    212 H212       -4.9591  -27.9377  -52.2048 H         1 UNK         0.0600 
    213 H213       -6.0433  -28.5840  -50.9799 H         1 UNK         0.0600 
    214 H214       -4.3065  -28.6981  -50.7536 H         1 UNK         0.0600 
    215 H215       -5.1191  -24.1552  -50.4014 H         1 UNK         0.3000 
    216 H216       -6.1099  -22.4741  -51.4068 H         1 UNK         0.0600 
    217 H217       -8.5520  -22.2225  -51.1099 H         1 UNK         0.0600 
    218 H218       -7.8558  -22.9613  -49.6786 H         1 UNK         0.0600 
    219 H219       -8.7359  -23.9526  -50.8432 H         1 UNK         0.0600 
    220 H220       -5.2613  -24.6722  -53.1595 H         1 UNK         0.3000 
    221 H221       -6.9669  -24.1769  -55.5767 H         1 UNK         0.0600 
    222 H222       -5.3264  -26.6466  -54.7904 H         1 UNK         0.0600 
    223 H223       -7.0832  -26.5249  -54.7725 H         1 UNK         0.0600 
    224 H224       -6.2131  -26.4380  -56.2976 H         1 UNK         0.0600 
    225 H225       -3.6174  -24.7508  -54.3688 H         1 UNK         0.3000 
    226 H226       -2.4264  -23.8556  -56.8935 H         1 UNK         0.0600 
    227 H227       -1.4614  -25.7436  -55.5900 H         1 UNK         0.0600 
    228 H228       -0.3081  -24.4316  -55.7655 H         1 UNK         0.0600 
    229 H229       -1.1406  -24.6639  -54.2370 H         1 UNK         0.0600 
    230 H230       -3.7943  -22.1453  -54.3874 H         1 UNK         0.3000 
    231 H231       -2.2877  -19.7017  -54.9931 H         1 UNK         0.0600 
    232 H232       -1.2724  -20.5985  -52.8520 H         1 UNK         0.0600 
    233 H233       -2.8749  -20.6431  -52.1185 H         1 UNK         0.0600 
    234 H234       -2.1558  -19.1045  -52.5786 H         1 UNK         0.0600 
    235 H235       -3.5814  -17.8160  -54.5029 H         1 UNK         0.3000 
    236 H236       -6.3817  -18.1372  -55.0720 H         1 UNK         0.0600 
    237 H237       -6.3804  -15.6445  -54.9399 H         1 UNK         0.0600 
    238 H238       -4.7495  -15.6634  -54.2806 H         1 UNK         0.0600 
    239 H239       -5.0484  -16.2237  -55.9269 H         1 UNK         0.0600 
    240 H240       -4.5337  -17.7131  -52.1119 H         1 UNK         0.3000 
    241 H241       -6.7309  -16.9935  -50.3814 H         1 UNK         0.0600 
    242 H242       -8.1271  -20.1164  -49.4424 H         1 UNK         0.3800 
    243 H243       -8.2849  -18.3839  -49.4623 H         1 UNK         0.3800 
    244 H244       -5.1129  -17.5796  -48.5410 H         1 UNK         0.0800 
    245 H245       -3.9702  -18.1489  -49.7395 H         1 UNK         0.0800 
    246 H246       -2.6620  -16.5391  -48.0045 H         1 UNK         0.0800 
    247 H247       -2.2607  -14.9216  -48.5219 H         1 UNK         0.0800 
@<TRIPOS>BOND
     1    1    2 1    
     2    1  127 1    
     3    1  128 1    
     4    1  129 1    
     5    2    3 2    
     6    2    4 am   BACKBONE|DICT|INTERRES
     7    4    5 1    
     8    4  130 1    
     9    5    6 1    
    10    5   65 1    
    11    5  131 1    
    12    6    7 1    
    13    6  132 1    
    14    6  133 1    
    15    7    8 1    
    16    8    9 1    
    17    8  134 1    
    18    8  135 1    
    19    9   10 ar   
    20    9   14 ar   
    21   10   11 ar   
    22   10  136 1    
    23   11   12 ar   
    24   11  126 1    
    25   12   13 ar   
    26   12  137 1    
    27   13   14 ar   
    28   13   15 1    
    29   14  138 1    
    30   15   16 1    
    31   15  139 1    
    32   15  140 1    
    33   16   17 1    
    34   17   18 1    
    35   17  141 1    
    36   17  142 1    
    37   18   19 1    
    38   18   67 1    
    39   18  143 1    
    40   19   20 am   BACKBONE|DICT|INTERRES
    41   19  144 1    
    42   20   21 2    
    43   20   22 1    
    44   22   23 1    
    45   22   24 1    
    46   22  145 1    
    47   23  146 1    
    48   23  147 1    
    49   23  148 1    
    50   24   25 am   BACKBONE|DICT|INTERRES
    51   24  149 1    
    52   25   26 2    
    53   25   27 1    
    54   27   28 1    
    55   27   29 1    
    56   27  150 1    
    57   28  151 1    
    58   28  152 1    
    59   28  153 1    
    60   29   30 am   BACKBONE|DICT|INTERRES
    61   29  154 1    
    62   30   31 2    
    63   30   32 1    
    64   32   33 1    
    65   32   34 1    
    66   32  155 1    
    67   33  156 1    
    68   33  157 1    
    69   33  158 1    
    70   34   35 am   BACKBONE|DICT|INTERRES
    71   34  159 1    
    72   35   36 2    
    73   35   37 1    
    74   37   38 1    
    75   37   39 1    
    76   37  160 1    
    77   38  161 1    
    78   38  162 1    
    79   38  163 1    
    80   39   40 am   BACKBONE|DICT|INTERRES
    81   39  164 1    
    82   40   41 2    
    83   40   42 1    
    84   42   43 1    
    85   42   44 1    
    86   42  165 1    
    87   43  166 1    
    88   43  167 1    
    89   43  168 1    
    90   44   45 am   BACKBONE|DICT|INTERRES
    91   44  169 1    
    92   45   46 2    
    93   45   47 1    
    94   47   48 1    
    95   47   49 1    
    96   47  170 1    
    97   48  171 1    
    98   48  172 1    
    99   48  173 1    
   100   49   50 am   BACKBONE|DICT|INTERRES
   101   49  174 1    
   102   50   51 2    
   103   50   52 1    
   104   52   53 1    
   105   52   54 1    
   106   52  175 1    
   107   53  176 1    
   108   53  177 1    
   109   53  178 1    
   110   54   55 am   BACKBONE|DICT|INTERRES
   111   54  179 1    
   112   55   56 2    
   113   55   57 1    
   114   57   58 1    
   115   57   59 1    
   116   57  180 1    
   117   58  181 1    
   118   58  182 1    
   119   58  183 1    
   120   59   60 am   BACKBONE|DICT|INTERRES
   121   59  184 1    
   122   60   61 2    
   123   60   62 1    
   124   62   63 1    
   125   62   64 1    
   126   62  185 1    
   127   63  186 1    
   128   63  187 1    
   129   63  188 1    
   130   64   65 am   BACKBONE|DICT|INTERRES
   131   64  189 1    
   132   65   66 2    
   133   67   68 2    
   134   67   69 am   BACKBONE|DICT|INTERRES
   135   69   70 1    
   136   69  190 1    
   137   70   71 1    
   138   70   72 1    
   139   70  191 1    
   140   71  192 1    
   141   71  193 1    
   142   71  194 1    
   143   72   73 2    
   144   72   74 am   BACKBONE|DICT|INTERRES
   145   74   75 1    
   146   74  195 1    
   147   75   76 1    
   148   75   77 1    
   149   75  196 1    
   150   76  197 1    
   151   76  198 1    
   152   76  199 1    
   153   77   78 2    
   154   77   79 am   BACKBONE|DICT|INTERRES
   155   79   80 1    
   156   79  200 1    
   157   80   81 1    
   158   80   82 1    
   159   80  201 1    
   160   81  202 1    
   161   81  203 1    
   162   81  204 1    
   163   82   83 2    
   164   82   84 am   BACKBONE|DICT|INTERRES
   165   84   85 1    
   166   84  205 1    
   167   85   86 1    
   168   85   87 1    
   169   85  206 1    
   170   86  207 1    
   171   86  208 1    
   172   86  209 1    
   173   87   88 2    
   174   87   89 am   BACKBONE|DICT|INTERRES
   175   89   90 1    
   176   89  210 1    
   177   90   91 1    
   178   90   92 1    
   179   90  211 1    
   180   91  212 1    
   181   91  213 1    
   182   91  214 1    
   183   92   93 2    
   184   92   94 am   BACKBONE|DICT|INTERRES
   185   94   95 1    
   186   94  215 1    
   187   95   96 1    
   188   95   97 1    
   189   95  216 1    
   190   96  217 1    
   191   96  218 1    
   192   96  219 1    
   193   97   98 2    
   194   97   99 am   BACKBONE|DICT|INTERRES
   195   99  100 1    
   196   99  220 1    
   197  100  101 1    
   198  100  102 1    
   199  100  221 1    
   200  101  222 1    
   201  101  223 1    
   202  101  224 1    
   203  102  103 2    
   204  102  104 am   BACKBONE|DICT|INTERRES
   205  104  105 1    
   206  104  225 1    
   207  105  106 1    
   208  105  107 1    
   209  105  226 1    
   210  106  227 1    
   211  106  228 1    
   212  106  229 1    
   213  107  108 2    
   214  107  109 am   BACKBONE|DICT|INTERRES
   215  109  110 1    
   216  109  230 1    
   217  110  111 1    
   218  110  112 1    
   219  110  231 1    
   220  111  232 1    
   221  111  233 1    
   222  111  234 1    
   223  112  113 2    
   224  112  114 am   BACKBONE|DICT|INTERRES
   225  114  115 1    
   226  114  235 1    
   227  115  116 1    
   228  115  117 1    
   229  115  236 1    
   230  116  237 1    
   231  116  238 1    
   232  116  239 1    
   233  117  118 2    
   234  117  119 am   BACKBONE|DICT|INTERRES
   235  119  120 1    
   236  119  240 1    
   237  120  121 1    
   238  120  124 1    
   239  120  241 1    
   240  121  122 am   BACKBONE|DICT|INTERRES
   241  121  123 2    
   242  122  242 1    
   243  122  243 1    
   244  124  125 1    
   245  124  244 1    
   246  124  245 1    
   247  125  126 1    
   248  126  246 1    
   249  126  247 1    
@<TRIPOS>SUBSTRUCTURE
     1 UNK         1 GROUP             0       ****    0 ROOT    
