@<TRIPOS>MOLECULE
3R540
247   249    1
SMALL
USER_CHARGES


@<TRIPOS>ATOM
      1 CA         -1.5730  -11.5595  -44.9846 C.3       0 UNK        -0.1800 
      2 C          -0.4758  -11.0907  -45.9300 C.2       0 UNK         0.5000 
      3 O           0.2413  -10.1419  -45.6142 O.2       0 UNK        -0.5000 
      4 N          -0.3460  -11.7496  -47.0882 N.am      1 UNK        -0.5000 
      5 CA          0.6790  -11.4755  -48.1052 C.3       1 UNK         0.1400 
      6 C6          0.2160  -11.9223  -49.5162 C.3       23 UNK        -0.0398 
      7 S7         -0.2478  -13.6881  -49.6248 S.3       23 UNK        -0.2404 
      8 C8          0.9158  -14.2893  -50.8876 C.3       23 UNK        -0.0205 
      9 C9          0.8640  -15.8049  -50.9808 C.ar      23 UNK        -0.0193 
     10 C10        -0.1053  -16.4368  -51.7678 C.ar      23 UNK        -0.1150 
     11 C11        -0.1883  -17.8325  -51.8040 C.ar      23 UNK        -0.0193 
     12 C12         0.7113  -18.5939  -51.0535 C.ar      23 UNK        -0.1150 
     13 C13         1.6755  -17.9724  -50.2556 C.ar      23 UNK        -0.0193 
     14 C14         1.7599  -16.5779  -50.2375 C.ar      23 UNK        -0.1150 
     15 C15         2.5598  -18.8090  -49.3430 C.3       23 UNK        -0.0205 
     16 S16         2.2163  -18.5182  -47.5713 S.3       23 UNK        -0.2404 
     17 C17         0.3903  -18.5717  -47.4800 C.3       23 UNK        -0.0398 
     18 CA         -0.1644  -19.9912  -47.2242 C.3       11 UNK         0.1400 
     19 N           0.0241  -20.4198  -45.8375 N.am      11 UNK        -0.5000 
     20 C          -0.2780  -21.6286  -45.3468 C.2       10 UNK         0.5000 
     21 O          -0.6938  -22.5621  -46.0335 O.2       10 UNK        -0.5000 
     22 CA         -0.1463  -21.8051  -43.8221 C.3       10 UNK         0.1400 
     23 CB          1.3135  -22.0565  -43.4158 C.3       10 UNK        -0.1800 
     24 N          -0.6772  -20.6589  -43.0798 N.am      10 UNK        -0.5000 
     25 C          -1.9707  -20.3043  -43.0659 C.2       9 UNK         0.5000 
     26 O          -2.8573  -20.9358  -43.6421 O.2       9 UNK        -0.5000 
     27 CA         -2.3292  -19.0030  -42.3229 C.3       9 UNK         0.1400 
     28 CB         -2.3970  -19.2356  -40.8063 C.3       9 UNK        -0.1800 
     29 N          -1.3963  -17.9132  -42.6111 N.am      9 UNK        -0.5000 
     30 C          -1.2200  -17.3672  -43.8223 C.2       8 UNK         0.5000 
     31 O          -1.8717  -17.6831  -44.8159 O.2       8 UNK        -0.5000 
     32 CA         -0.0872  -16.3369  -43.9665 C.3       8 UNK         0.1400 
     33 CB         -0.5587  -14.9377  -43.5439 C.3       8 UNK        -0.1800 
     34 N           1.1172  -16.7102  -43.2231 N.am      8 UNK        -0.5000 
     35 C           1.8364  -17.8210  -43.4408 C.2       7 UNK         0.5000 
     36 O           1.5590  -18.6543  -44.2982 O.2       7 UNK        -0.5000 
     37 CA          3.0261  -18.0813  -42.5034 C.3       7 UNK         0.1400 
     38 CB          4.2623  -17.2714  -42.9233 C.3       7 UNK        -0.1800 
     39 N           2.6823  -17.7890  -41.1143 N.am      7 UNK        -0.5000 
     40 C           1.8184  -18.5113  -40.3864 C.2       6 UNK         0.5000 
     41 O           1.2769  -19.5425  -40.7875 O.2       6 UNK        -0.5000 
     42 CA          1.4688  -17.9541  -38.9946 C.3       6 UNK         0.1400 
     43 CB          2.5178  -18.3834  -37.9581 C.3       6 UNK        -0.1800 
     44 N           1.3549  -16.4936  -38.9958 N.am      6 UNK        -0.5000 
     45 C           0.3895  -15.8140  -39.6312 C.2       5 UNK         0.5000 
     46 O          -0.5319  -16.3522  -40.2447 O.2       5 UNK        -0.5000 
     47 CA          0.4994  -14.2773  -39.6152 C.3       5 UNK         0.1400 
     48 CB         -0.1516  -13.7031  -38.3482 C.3       5 UNK        -0.1800 
     49 N           1.8801  -13.7926  -39.7166 N.am      5 UNK        -0.5000 
     50 C           2.6730  -13.9768  -40.7800 C.2       4 UNK         0.5000 
     51 O           2.3325  -14.5997  -41.7878 O.2       4 UNK        -0.5000 
     52 CA          4.0961  -13.4157  -40.6831 C.3       4 UNK         0.1400 
     53 CB          4.9924  -14.3499  -39.8506 C.3       4 UNK        -0.1800 
     54 N           4.6515  -13.2772  -42.0265 N.am      4 UNK        -0.5000 
     55 C           5.5841  -12.3891  -42.3889 C.2       3 UNK         0.5000 
     56 O           6.0838  -11.5780  -41.6075 O.2       3 UNK        -0.5000 
     57 CA          6.0665  -12.4046  -43.8556 C.3       3 UNK         0.1400 
     58 CB          7.4816  -12.9990  -43.9424 C.3       3 UNK        -0.1800 
     59 N           5.2007  -13.1337  -44.7878 N.am      3 UNK        -0.5000 
     60 C           3.9962  -12.7225  -45.2029 C.2       2 UNK         0.5000 
     61 O           3.4436  -11.7033  -44.7831 O.2       2 UNK        -0.5000 
     62 CA          3.3040  -13.6226  -46.2475 C.3       2 UNK         0.1400 
     63 CB          2.9241  -14.9759  -45.6310 C.3       2 UNK        -0.1800 
     64 N           2.0936  -13.0061  -46.7870 N.am      2 UNK        -0.5000 
     65 C           2.0631  -12.0603  -47.7357 C.2       1 UNK         0.5000 
     66 O           3.0680  -11.6477  -48.3175 O.2       1 UNK        -0.5000 
     67 C          -1.6412  -20.0755  -47.6556 C.2       11 UNK         0.5000 
     68 O          -1.9165  -20.6178  -48.7229 O.2       11 UNK        -0.5000 
     69 N          -2.5633  -19.5736  -46.8213 N.am      12 UNK        -0.5000 
     70 CA         -4.0083  -19.6248  -47.0556 C.3       12 UNK         0.1400 
     71 CB         -4.7371  -18.7934  -45.9898 C.3       12 UNK        -0.1800 
     72 C          -4.5585  -21.0615  -47.0969 C.2       12 UNK         0.5000 
     73 O          -5.3945  -21.3666  -47.9490 O.2       12 UNK        -0.5000 
     74 N          -4.0522  -21.9273  -46.2072 N.am      13 UNK        -0.5000 
     75 CA         -4.3551  -23.3573  -46.1940 C.3       13 UNK         0.1400 
     76 CB         -3.7648  -24.0097  -44.9349 C.3       13 UNK        -0.1800 
     77 C          -3.8674  -24.0611  -47.4725 C.2       13 UNK         0.5000 
     78 O          -4.6470  -24.7794  -48.0963 O.2       13 UNK        -0.5000 
     79 N          -2.6133  -23.8008  -47.8704 N.am      14 UNK        -0.5000 
     80 CA         -2.0114  -24.3083  -49.1061 C.3       14 UNK         0.1400 
     81 CB         -0.5201  -23.9439  -49.1419 C.3       14 UNK        -0.1800 
     82 C          -2.7246  -23.8070  -50.3754 C.2       14 UNK         0.5000 
     83 O          -2.9202  -24.5885  -51.3086 O.2       14 UNK        -0.5000 
     84 N          -3.1330  -22.5297  -50.3746 N.am      15 UNK        -0.5000 
     85 CA         -3.9155  -21.8966  -51.4343 C.3       15 UNK         0.1400 
     86 CB         -4.1482  -20.4107  -51.1179 C.3       15 UNK        -0.1800 
     87 C          -5.2535  -22.6109  -51.6715 C.2       15 UNK         0.5000 
     88 O          -5.5679  -22.9444  -52.8128 O.2       15 UNK        -0.5000 
     89 N          -5.9917  -22.8570  -50.5825 N.am      16 UNK        -0.5000 
     90 CA         -7.2817  -23.5373  -50.6020 C.3       16 UNK         0.1400 
     91 CB         -7.9805  -23.3288  -49.2492 C.3       16 UNK        -0.1800 
     92 C          -7.1693  -25.0364  -50.9319 C.2       16 UNK         0.5000 
     93 O          -7.9303  -25.5299  -51.7654 O.2       16 UNK        -0.5000 
     94 N          -6.2553  -25.7392  -50.2502 N.am      17 UNK        -0.5000 
     95 CA         -6.1755  -27.1983  -50.2795 C.3       17 UNK         0.1400 
     96 CB         -5.5196  -27.7011  -48.9837 C.3       17 UNK        -0.1800 
     97 C          -5.4284  -27.7619  -51.4974 C.2       17 UNK         0.5000 
     98 O          -5.8457  -28.7988  -52.0165 O.2       17 UNK        -0.5000 
     99 N          -4.3249  -27.1180  -51.9010 N.am      18 UNK        -0.5000 
    100 CA        -3.3764  -27.6780  -52.8635 C.3       18 UNK         0.1400 
    101 CB        -1.9843  -27.7717  -52.2142 C.3       18 UNK        -0.1800 
    102 C         -3.3206  -26.8742  -54.1678 C.2       18 UNK         0.5000 
    103 O         -3.4729  -27.4631  -55.2393 O.2       18 UNK        -0.5000 
    104 N         -3.0617  -25.5630  -54.0709 N.am      19 UNK        -0.5000 
    105 CA        -2.7612  -24.7266  -55.2362 C.3       19 UNK         0.1400 
    106 CB        -2.0524  -23.4423  -54.7874 C.3       19 UNK        -0.1800 
    107 C         -3.9993  -24.3908  -56.0844 C.2       19 UNK         0.5000 
    108 O         -3.9078  -24.4001  -57.3128 O.2       19 UNK        -0.5000 
    109 N         -5.1184  -24.0796  -55.4146 N.am      20 UNK        -0.5000 
    110 CA        -6.4186  -23.6452  -55.9391 C.3       20 UNK         0.1400 
    111 CB        -7.0580  -24.7154  -56.8450 C.3       20 UNK        -0.1800 
    112 C         -6.3714  -22.2645  -56.6220 C.2       20 UNK         0.5000 
    113 O         -7.0337  -21.3332  -56.1628 O.2       20 UNK        -0.5000 
    114 N         -5.5635  -22.1422  -57.6831 N.am      21 UNK        -0.5000 
    115 CA        -5.3776  -20.9337  -58.4927 C.3       21 UNK         0.1400 
    116 CB        -4.5292  -21.2886  -59.7232 C.3       21 UNK        -0.1800 
    117 C         -4.7464  -19.7558  -57.7238 C.2       21 UNK         0.5000 
    118 O         -4.9603  -18.6023  -58.0986 O.2       21 UNK        -0.5000 
    119 N         -3.9995  -20.0672  -56.6572 N.am      22 UNK        -0.5000 
    120 CA        -3.4496  -19.0973  -55.6978 C.3       22 UNK         0.1400 
    121 C         -4.5172  -18.4870  -54.7359 C.2       22 UNK         0.5000 
    122 N         -5.7301  -19.0239  -54.6476 N.am      22 UNK        -0.7600 
    123 O         -4.2514  -17.4923  -54.0690 O.2       22 UNK        -0.5000 
    124 C124       -2.2531  -19.7197  -54.9293 C.3       23 UNK        -0.0398 
    125 S125       -0.9916  -18.5177  -54.3798 S.3       23 UNK        -0.2404 
    126 C126       -1.2926  -18.5248  -52.5869 C.3       23 UNK        -0.0205 
    127 H127       -2.1212  -12.4107  -45.3893 H         1 UNK         0.0600 
    128 H128       -2.2831  -10.7526  -44.8045 H         1 UNK         0.0600 
    129 H129       -1.1424  -11.8555  -44.0280 H         1 UNK         0.0600 
    130 H130       -0.9730  -12.5118  -47.3064 H         1 UNK         0.3000 
    131 H131        0.8169  -10.3929  -48.1512 H         1 UNK         0.0600 
    132 H132       -0.6573  -11.3371  -49.8072 H         1 UNK         0.0800 
    133 H133        0.9791  -11.6873  -50.2603 H         1 UNK         0.0800 
    134 H134        1.9275  -13.9638  -50.6392 H         1 UNK         0.0800 
    135 H135        0.6713  -13.8442  -51.8532 H         1 UNK         0.0800 
    136 H136       -0.8137  -15.8435  -52.3292 H         1 UNK         0.1150 
    137 H137        0.6297  -19.6720  -51.0535 H         1 UNK         0.1150 
    138 H138        2.4900  -16.0954  -49.6026 H         1 UNK         0.1150 
    139 H139        2.4343  -19.8723  -49.5527 H         1 UNK         0.0800 
    140 H140        3.6065  -18.5782  -49.5448 H         1 UNK         0.0800 
    141 H141       -0.0390  -18.1320  -48.3793 H         1 UNK         0.0800 
    142 H142        0.0807  -17.9030  -46.6787 H         1 UNK         0.0800 
    143 H143        0.3850  -20.6917  -47.8566 H         1 UNK         0.0600 
    144 H144        0.4363  -19.7310  -45.2102 H         1 UNK         0.3000 
    145 H145       -0.7298  -22.6838  -43.5398 H         1 UNK         0.0600 
    146 H146        1.9564  -21.2129  -43.6662 H         1 UNK         0.0600 
    147 H147        1.3987  -22.2334  -42.3435 H         1 UNK         0.0600 
    148 H148        1.7127  -22.9348  -43.9245 H         1 UNK         0.0600 
    149 H149       -0.0079  -20.0902  -42.5756 H         1 UNK         0.3000 
    150 H150       -3.3192  -18.6908  -42.6616 H         1 UNK         0.0600 
    151 H151       -3.1062  -20.0281  -40.5642 H         1 UNK         0.0600 
    152 H152       -2.7232  -18.3357  -40.2846 H         1 UNK         0.0600 
    153 H153       -1.4285  -19.5246  -40.3977 H         1 UNK         0.0600 
    154 H154       -0.8583  -17.5495  -41.8309 H         1 UNK         0.3000 
    155 H155        0.1848  -16.2883  -45.0217 H         1 UNK         0.0600 
    156 H156        0.2271  -14.1939  -43.6749 H         1 UNK         0.0600 
    157 H157       -1.4117  -14.6200  -44.1442 H         1 UNK         0.0600 
    158 H158       -0.8700  -14.9157  -42.5005 H         1 UNK         0.0600 
    159 H159        1.4478  -16.0437  -42.5300 H         1 UNK         0.3000 
    160 H160        3.2802  -19.1412  -42.5744 H         1 UNK         0.0600 
    161 H161        4.5570  -17.5192  -43.9438 H         1 UNK         0.0600 
    162 H162        5.1137  -17.4893  -42.2785 H         1 UNK         0.0600 
    163 H163        4.0820  -16.1981  -42.8867 H         1 UNK         0.0600 
    164 H164        3.0456  -16.9329  -40.7250 H         1 UNK         0.3000 
    165 H165        0.5041  -18.3730  -38.7003 H         1 UNK         0.0600 
    166 H166        2.2405  -18.0530  -36.9569 H         1 UNK         0.0600 
    167 H167        2.6121  -19.4697  -37.9263 H         1 UNK         0.0600 
    168 H168        3.5031  -17.9747  -38.1861 H         1 UNK         0.0600 
    169 H169        2.0712  -15.9757  -38.5089 H         1 UNK         0.3000 
    170 H170       -0.0503  -13.8980  -40.4786 H         1 UNK         0.0600 
    171 H171       -1.1878  -14.0325  -38.2585 H         1 UNK         0.0600 
    172 H172        0.3727  -14.0192  -37.4455 H         1 UNK         0.0600 
    173 H173       -0.1597  -12.6132  -38.3683 H         1 UNK         0.0600 
    174 H174        2.2347  -13.2778  -38.9232 H         1 UNK         0.3000 
    175 H175        4.0405  -12.4352  -40.2054 H         1 UNK         0.0600 
    176 H176        5.0743  -15.3380  -40.3053 H         1 UNK         0.0600 
    177 H177        5.9997  -13.9449  -39.7523 H         1 UNK         0.0600 
    178 H178        4.5991  -14.4817  -38.8421 H         1 UNK         0.0600 
    179 H179        4.2232  -13.8684  -42.7259 H         1 UNK         0.3000 
    180 H180        6.1159  -11.3650  -44.1862 H         1 UNK         0.0600 
    181 H181        7.4963  -14.0464  -43.6383 H         1 UNK         0.0600 
    182 H182        8.1745  -12.4601  -43.2947 H         1 UNK         0.0600 
    183 H183        7.8755  -12.9368  -44.9570 H         1 UNK         0.0600 
    184 H184        5.5820  -13.9877  -45.1684 H         1 UNK         0.3000 
    185 H185        4.0024  -13.7984  -47.0685 H         1 UNK         0.0600 
    186 H186        2.3356  -15.5811  -46.3211 H         1 UNK         0.0600 
    187 H187        3.8103  -15.5556  -45.3740 H         1 UNK         0.0600 
    188 H188        2.3448  -14.8387  -44.7194 H         1 UNK         0.0600 
    189 H189        1.2247  -13.2468  -46.3360 H         1 UNK         0.3000 
    190 H190       -2.2596  -19.0875  -45.9807 H         1 UNK         0.3000 
    191 H191       -4.2014  -19.1700  -48.0292 H         1 UNK         0.0600 
    192 H192       -4.5464  -19.1706  -44.9847 H         1 UNK         0.0600 
    193 H193       -5.8158  -18.8115  -46.1496 H         1 UNK         0.0600 
    194 H194       -4.4213  -17.7505  -46.0206 H         1 UNK         0.0600 
    195 H195       -3.4039  -21.5874  -45.5044 H         1 UNK         0.3000 
    196 H196       -5.4408  -23.4661  -46.1504 H         1 UNK         0.0600 
    197 H197       -4.0090  -25.0719  -44.8963 H         1 UNK         0.0600 
    198 H198       -4.1641  -23.5503  -44.0305 H         1 UNK         0.0600 
    199 H199       -2.6793  -23.9215  -44.9010 H         1 UNK         0.0600 
    200 H200       -2.0251  -23.2136  -47.2850 H         1 UNK         0.3000 
    201 H201       -2.0951  -25.3969  -49.0919 H         1 UNK         0.0600 
    202 H202        0.0078  -24.3623  -48.2848 H         1 UNK         0.0600 
    203 H203       -0.3684  -22.8643  -49.1320 H         1 UNK         0.0600 
    204 H204       -0.0437  -24.3354  -50.0417 H         1 UNK         0.0600 
    205 H205       -2.8582  -21.9324  -49.5978 H         1 UNK         0.3000 
    206 H206       -3.3260  -21.9538  -52.3463 H         1 UNK         0.0600 
    207 H207       -3.2152  -19.8941  -50.9039 H         1 UNK         0.0600 
    208 H208       -4.6158  -19.9037  -51.9621 H         1 UNK         0.0600 
    209 H209       -4.8010  -20.2736  -50.2570 H         1 UNK         0.0600 
    210 H210       -5.6547  -22.5386  -49.6799 H         1 UNK         0.3000 
    211 H211       -7.8979  -23.0722  -51.3744 H         1 UNK         0.0600 
    212 H212       -7.3906  -23.7315  -48.4245 H         1 UNK         0.0600 
    213 H213       -8.9538  -23.8207  -49.2304 H         1 UNK         0.0600 
    214 H214       -8.1464  -22.2696  -49.0519 H         1 UNK         0.0600 
    215 H215       -5.6687  -25.2669  -49.5651 H         1 UNK         0.3000 
    216 H216       -7.1919  -27.5978  -50.3040 H         1 UNK         0.0600 
    217 H217       -5.5105  -28.7912  -48.9479 H         1 UNK         0.0600 
    218 H218       -6.0613  -27.3512  -48.1048 H         1 UNK         0.0600 
    219 H219       -4.4862  -27.3626  -48.8977 H         1 UNK         0.0600 
    220 H220       -4.0652  -26.2376  -51.4687 H         1 UNK         0.3000 
    221 H221       -3.6613  -28.6963  -53.1365 H         1 UNK         0.0600 
    222 H222       -1.6054  -26.7972  -51.9069 H         1 UNK         0.0600 
    223 H223       -2.0064  -28.4123  -51.3325 H         1 UNK         0.0600 
    224 H224       -1.2592  -28.1997  -52.9076 H         1 UNK         0.0600 
    225 H225       -2.9633  -25.1443  -53.1498 H         1 UNK         0.3000 
    226 H226       -2.0645  -25.2771  -55.8727 H         1 UNK         0.0600 
    227 H227       -1.2134  -23.6564  -54.1249 H         1 UNK         0.0600 
    228 H228       -1.6589  -22.9001  -55.6478 H         1 UNK         0.0600 
    229 H229       -2.7353  -22.7756  -54.2673 H         1 UNK         0.0600 
    230 H230       -5.0600  -24.0317  -54.4016 H         1 UNK         0.3000 
    231 H231       -7.0647  -23.5385  -55.0662 H         1 UNK         0.0600 
    232 H232       -8.0614  -24.4151  -57.1492 H         1 UNK         0.0600 
    233 H233       -7.1485  -25.6672  -56.3215 H         1 UNK         0.0600 
    234 H234       -6.4821  -24.8882  -57.7542 H         1 UNK         0.0600 
    235 H235       -5.0051  -22.9540  -57.9329 H         1 UNK         0.3000 
    236 H236       -6.3618  -20.6086  -58.8357 H         1 UNK         0.0600 
    237 H237       -4.3874  -20.4188  -60.3660 H         1 UNK         0.0600 
    238 H238       -5.0101  -22.0606  -60.3242 H         1 UNK         0.0600 
    239 H239       -3.5411  -21.6522  -59.4378 H         1 UNK         0.0600 
    240 H240       -3.8927  -21.0431  -56.4279 H         1 UNK         0.3000 
    241 H241       -3.0645  -18.2624  -56.2865 H         1 UNK         0.0600 
    242 H242       -6.4051  -18.5999  -54.0320 H         1 UNK         0.3800 
    243 H243       -6.0065  -19.8192  -55.2112 H         1 UNK         0.3800 
    244 H244       -2.6016  -20.3243  -54.0915 H         1 UNK         0.0800 
    245 H245       -1.7199  -20.4116  -55.5824 H         1 UNK         0.0800 
    246 H246       -2.2470  -18.0424  -52.3732 H         1 UNK         0.0800 
    247 H247       -1.3830  -19.5582  -52.2504 H         1 UNK         0.0800 
@<TRIPOS>BOND
     1    1    2 1    
     2    1  127 1    
     3    1  128 1    
     4    1  129 1    
     5    2    3 2    
     6    2    4 am   BACKBONE|DICT|INTERRES
     7    4    5 1    
     8    4  130 1    
     9    5    6 1    
    10    5   65 1    
    11    5  131 1    
    12    6    7 1    
    13    6  132 1    
    14    6  133 1    
    15    7    8 1    
    16    8    9 1    
    17    8  134 1    
    18    8  135 1    
    19    9   10 ar   
    20    9   14 ar   
    21   10   11 ar   
    22   10  136 1    
    23   11   12 ar   
    24   11  126 1    
    25   12   13 ar   
    26   12  137 1    
    27   13   14 ar   
    28   13   15 1    
    29   14  138 1    
    30   15   16 1    
    31   15  139 1    
    32   15  140 1    
    33   16   17 1    
    34   17   18 1    
    35   17  141 1    
    36   17  142 1    
    37   18   19 1    
    38   18   67 1    
    39   18  143 1    
    40   19   20 am   BACKBONE|DICT|INTERRES
    41   19  144 1    
    42   20   21 2    
    43   20   22 1    
    44   22   23 1    
    45   22   24 1    
    46   22  145 1    
    47   23  146 1    
    48   23  147 1    
    49   23  148 1    
    50   24   25 am   BACKBONE|DICT|INTERRES
    51   24  149 1    
    52   25   26 2    
    53   25   27 1    
    54   27   28 1    
    55   27   29 1    
    56   27  150 1    
    57   28  151 1    
    58   28  152 1    
    59   28  153 1    
    60   29   30 am   BACKBONE|DICT|INTERRES
    61   29  154 1    
    62   30   31 2    
    63   30   32 1    
    64   32   33 1    
    65   32   34 1    
    66   32  155 1    
    67   33  156 1    
    68   33  157 1    
    69   33  158 1    
    70   34   35 am   BACKBONE|DICT|INTERRES
    71   34  159 1    
    72   35   36 2    
    73   35   37 1    
    74   37   38 1    
    75   37   39 1    
    76   37  160 1    
    77   38  161 1    
    78   38  162 1    
    79   38  163 1    
    80   39   40 am   BACKBONE|DICT|INTERRES
    81   39  164 1    
    82   40   41 2    
    83   40   42 1    
    84   42   43 1    
    85   42   44 1    
    86   42  165 1    
    87   43  166 1    
    88   43  167 1    
    89   43  168 1    
    90   44   45 am   BACKBONE|DICT|INTERRES
    91   44  169 1    
    92   45   46 2    
    93   45   47 1    
    94   47   48 1    
    95   47   49 1    
    96   47  170 1    
    97   48  171 1    
    98   48  172 1    
    99   48  173 1    
   100   49   50 am   BACKBONE|DICT|INTERRES
   101   49  174 1    
   102   50   51 2    
   103   50   52 1    
   104   52   53 1    
   105   52   54 1    
   106   52  175 1    
   107   53  176 1    
   108   53  177 1    
   109   53  178 1    
   110   54   55 am   BACKBONE|DICT|INTERRES
   111   54  179 1    
   112   55   56 2    
   113   55   57 1    
   114   57   58 1    
   115   57   59 1    
   116   57  180 1    
   117   58  181 1    
   118   58  182 1    
   119   58  183 1    
   120   59   60 am   BACKBONE|DICT|INTERRES
   121   59  184 1    
   122   60   61 2    
   123   60   62 1    
   124   62   63 1    
   125   62   64 1    
   126   62  185 1    
   127   63  186 1    
   128   63  187 1    
   129   63  188 1    
   130   64   65 am   BACKBONE|DICT|INTERRES
   131   64  189 1    
   132   65   66 2    
   133   67   68 2    
   134   67   69 am   BACKBONE|DICT|INTERRES
   135   69   70 1    
   136   69  190 1    
   137   70   71 1    
   138   70   72 1    
   139   70  191 1    
   140   71  192 1    
   141   71  193 1    
   142   71  194 1    
   143   72   73 2    
   144   72   74 am   BACKBONE|DICT|INTERRES
   145   74   75 1    
   146   74  195 1    
   147   75   76 1    
   148   75   77 1    
   149   75  196 1    
   150   76  197 1    
   151   76  198 1    
   152   76  199 1    
   153   77   78 2    
   154   77   79 am   BACKBONE|DICT|INTERRES
   155   79   80 1    
   156   79  200 1    
   157   80   81 1    
   158   80   82 1    
   159   80  201 1    
   160   81  202 1    
   161   81  203 1    
   162   81  204 1    
   163   82   83 2    
   164   82   84 am   BACKBONE|DICT|INTERRES
   165   84   85 1    
   166   84  205 1    
   167   85   86 1    
   168   85   87 1    
   169   85  206 1    
   170   86  207 1    
   171   86  208 1    
   172   86  209 1    
   173   87   88 2    
   174   87   89 am   BACKBONE|DICT|INTERRES
   175   89   90 1    
   176   89  210 1    
   177   90   91 1    
   178   90   92 1    
   179   90  211 1    
   180   91  212 1    
   181   91  213 1    
   182   91  214 1    
   183   92   93 2    
   184   92   94 am   BACKBONE|DICT|INTERRES
   185   94   95 1    
   186   94  215 1    
   187   95   96 1    
   188   95   97 1    
   189   95  216 1    
   190   96  217 1    
   191   96  218 1    
   192   96  219 1    
   193   97   98 2    
   194   97   99 am   BACKBONE|DICT|INTERRES
   195   99  100 1    
   196   99  220 1    
   197  100  101 1    
   198  100  102 1    
   199  100  221 1    
   200  101  222 1    
   201  101  223 1    
   202  101  224 1    
   203  102  103 2    
   204  102  104 am   BACKBONE|DICT|INTERRES
   205  104  105 1    
   206  104  225 1    
   207  105  106 1    
   208  105  107 1    
   209  105  226 1    
   210  106  227 1    
   211  106  228 1    
   212  106  229 1    
   213  107  108 2    
   214  107  109 am   BACKBONE|DICT|INTERRES
   215  109  110 1    
   216  109  230 1    
   217  110  111 1    
   218  110  112 1    
   219  110  231 1    
   220  111  232 1    
   221  111  233 1    
   222  111  234 1    
   223  112  113 2    
   224  112  114 am   BACKBONE|DICT|INTERRES
   225  114  115 1    
   226  114  235 1    
   227  115  116 1    
   228  115  117 1    
   229  115  236 1    
   230  116  237 1    
   231  116  238 1    
   232  116  239 1    
   233  117  118 2    
   234  117  119 am   BACKBONE|DICT|INTERRES
   235  119  120 1    
   236  119  240 1    
   237  120  121 1    
   238  120  124 1    
   239  120  241 1    
   240  121  122 am   BACKBONE|DICT|INTERRES
   241  121  123 2    
   242  122  242 1    
   243  122  243 1    
   244  124  125 1    
   245  124  244 1    
   246  124  245 1    
   247  125  126 1    
   248  126  246 1    
   249  126  247 1    
@<TRIPOS>SUBSTRUCTURE
     1 UNK         1 GROUP             0       ****    0 ROOT    
