@<TRIPOS>MOLECULE
3R540
247   249    1
SMALL
USER_CHARGES


@<TRIPOS>ATOM
      1 CA          2.7734  -11.7079  -45.4424 C.3       0 UNK        -0.1800 
      2 C           1.6277  -12.6450  -45.7927 C.2       0 UNK         0.5000 
      3 O           0.6431  -12.7038  -45.0602 O.2       0 UNK        -0.5000 
      4 N           1.7444  -13.3624  -46.9190 N.am      1 UNK        -0.5000 
      5 CA          0.8045  -14.3756  -47.4311 C.3       1 UNK         0.1400 
      6 C6          1.3138  -14.9430  -48.7836 C.3       23 UNK        -0.0398 
      7 S7          0.9227  -16.7041  -49.0468 S.3       23 UNK        -0.2404 
      8 C8          1.8264  -16.9755  -50.6050 C.3       23 UNK        -0.0205 
      9 C9          2.0430  -18.4480  -50.9267 C.ar      23 UNK        -0.0193 
     10 C10         1.5476  -18.9943  -52.1154 C.ar      23 UNK        -0.1150 
     11 C11         1.8329  -20.3193  -52.4589 C.ar      23 UNK        -0.0193 
     12 C12         2.6153  -21.0947  -51.6022 C.ar      23 UNK        -0.1150 
     13 C13         3.0960  -20.5775  -50.3931 C.ar      23 UNK        -0.0193 
     14 C14         2.8074  -19.2480  -50.0708 C.ar      23 UNK        -0.1150 
     15 C15         3.9461  -21.3967  -49.4182 C.3       23 UNK        -0.0205 
     16 S16         4.2555  -23.1365  -49.8867 S.3       23 UNK        -0.2404 
     17 C17         2.6277  -23.8903  -49.5371 C.3       23 UNK        -0.0398 
     18 CA          2.6668  -24.7893  -48.2773 C.3       11 UNK         0.1400 
     19 N           3.0553  -24.0284  -47.0875 N.am      11 UNK        -0.5000 
     20 C           4.0913  -24.3007  -46.2842 C.2       10 UNK         0.5000 
     21 O           4.8713  -25.2369  -46.4608 O.2       10 UNK        -0.5000 
     22 CA          4.2792  -23.3824  -45.0591 C.3       10 UNK         0.1400 
     23 CB          5.3878  -22.3536  -45.3274 C.3       10 UNK        -0.1800 
     24 N           3.0552  -22.6759  -44.6720 N.am      10 UNK        -0.5000 
     25 C           1.9490  -23.2663  -44.1955 C.2       9 UNK         0.5000 
     26 O           1.8583  -24.4765  -43.9888 O.2       9 UNK        -0.5000 
     27 CA          0.7167  -22.3714  -43.9770 C.3       9 UNK         0.1400 
     28 CB          0.6459  -21.9036  -42.5166 C.3       9 UNK        -0.1800 
     29 N           0.6765  -21.2065  -44.8632 N.am      9 UNK        -0.5000 
     30 C           0.5807  -21.2546  -46.2015 C.2       8 UNK         0.5000 
     31 O           0.5730  -22.3025  -46.8516 O.2       8 UNK        -0.5000 
     32 CA          0.5267  -19.9019  -46.9362 C.3       8 UNK         0.1400 
     33 CB         -0.9343  -19.4640  -47.1324 C.3       8 UNK        -0.1800 
     34 N           1.2652  -18.8439  -46.2383 N.am      8 UNK        -0.5000 
     35 C           2.5946  -18.8479  -46.0459 C.2       7 UNK         0.5000 
     36 O           3.3303  -19.7550  -46.4316 O.2       7 UNK        -0.5000 
     37 CA          3.2204  -17.6709  -45.2707 C.3       7 UNK         0.1400 
     38 CB          3.8444  -16.6568  -46.2401 C.3       7 UNK        -0.1800 
     39 N           2.2891  -16.9761  -44.3813 N.am      7 UNK        -0.5000 
     40 C           1.7055  -17.5237  -43.3074 C.2       6 UNK         0.5000 
     41 O           1.8995  -18.6848  -42.9450 O.2       6 UNK        -0.5000 
     42 CA          0.6952  -16.6566  -42.5283 C.3       6 UNK         0.1400 
     43 CB          0.6988  -15.1652  -42.9209 C.3       6 UNK        -0.1800 
     44 N          -0.6599  -17.2010  -42.6389 N.am      6 UNK        -0.5000 
     45 C          -1.3261  -17.4717  -43.7722 C.2       5 UNK         0.5000 
     46 O          -0.9043  -17.2224  -44.9002 O.2       5 UNK        -0.5000 
     47 CA         -2.7141  -18.1084  -43.5994 C.3       5 UNK         0.1400 
     48 CB         -2.5810  -19.5497  -43.0809 C.3       5 UNK        -0.1800 
     49 N          -3.5194  -17.3357  -42.6531 N.am      5 UNK        -0.5000 
     50 C          -4.0876  -16.1326  -42.8272 C.2       4 UNK         0.5000 
     51 O          -4.5989  -15.5558  -41.8689 O.2       4 UNK        -0.5000 
     52 CA         -4.1757  -15.4918  -44.2375 C.3       4 UNK         0.1400 
     53 CB         -5.6482  -15.3449  -44.6706 C.3       4 UNK        -0.1800 
     54 N          -3.4612  -14.2146  -44.3451 N.am      4 UNK        -0.5000 
     55 C          -3.7417  -13.0374  -43.7620 C.2       3 UNK         0.5000 
     56 O          -4.6969  -12.8305  -43.0136 O.2       3 UNK        -0.5000 
     57 CA         -2.8046  -11.8617  -44.1013 C.3       3 UNK         0.1400 
     58 CB         -1.6961  -11.7354  -43.0460 C.3       3 UNK        -0.1800 
     59 N          -2.2047  -11.9562  -45.4360 N.am      3 UNK        -0.5000 
     60 C          -2.8898  -11.7934  -46.5795 C.2       2 UNK         0.5000 
     61 O          -4.0975  -11.5580  -46.6151 O.2       2 UNK        -0.5000 
     62 CA         -2.1195  -11.8956  -47.9131 C.3       2 UNK         0.1400 
     63 CB         -1.8943  -10.4990  -48.5115 C.3       2 UNK        -0.1800 
     64 N          -0.8280  -12.5755  -47.8149 N.am      2 UNK        -0.5000 
     65 C          -0.6552  -13.8781  -47.5548 C.2       1 UNK         0.5000 
     66 O          -1.5921  -14.6619  -47.4017 O.2       1 UNK        -0.5000 
     67 C           1.3216  -25.5140  -48.0432 C.2       11 UNK         0.5000 
     68 O           0.7130  -25.9834  -49.0053 O.2       11 UNK        -0.5000 
     69 N           0.8855  -25.5976  -46.7744 N.am      12 UNK        -0.5000 
     70 CA         -0.3341  -26.2458  -46.2792 C.3       12 UNK         0.1400 
     71 CB         -0.2695  -27.7709  -46.5053 C.3       12 UNK        -0.1800 
     72 C          -1.6501  -25.6224  -46.7962 C.2       12 UNK         0.5000 
     73 O          -2.6864  -26.2895  -46.7761 O.2       12 UNK        -0.5000 
     74 N          -1.6016  -24.3555  -47.2238 N.am      13 UNK        -0.5000 
     75 CA         -2.7636  -23.5639  -47.6179 C.3       13 UNK         0.1400 
     76 CB         -2.3877  -22.7309  -48.8513 C.3       13 UNK        -0.1800 
     77 C          -3.2173  -22.6779  -46.4436 C.2       13 UNK         0.5000 
     78 O          -2.4476  -22.4478  -45.5088 O.2       13 UNK        -0.5000 
     79 N          -4.4634  -22.1970  -46.4999 N.am      14 UNK        -0.5000 
     80 CA         -5.0848  -21.4177  -45.4310 C.3       14 UNK         0.1400 
     81 CB         -5.7137  -22.3615  -44.3874 C.3       14 UNK        -0.1800 
     82 C          -6.0791  -20.4129  -46.0259 C.2       14 UNK         0.5000 
     83 O          -7.2817  -20.4973  -45.7718 O.2       14 UNK        -0.5000 
     84 N          -5.5527  -19.4864  -46.8307 N.am      15 UNK        -0.5000 
     85 CA         -6.2933  -18.4054  -47.4697 C.3       15 UNK         0.1400 
     86 CB         -6.9893  -18.9294  -48.7365 C.3       15 UNK        -0.1800 
     87 C          -5.3190  -17.2665  -47.7970 C.2       15 UNK         0.5000 
     88 O          -4.1029  -17.4795  -47.7838 O.2       15 UNK        -0.5000 
     89 N          -5.8689  -16.0804  -48.0857 N.am      16 UNK        -0.5000 
     90 CA         -5.1192  -14.8853  -48.4726 C.3       16 UNK         0.1400 
     91 CB         -6.0732  -13.6832  -48.5448 C.3       16 UNK        -0.1800 
     92 C          -4.3995  -15.1010  -49.8135 C.2       16 UNK         0.5000 
     93 O          -5.0565  -15.3695  -50.8215 O.2       16 UNK        -0.5000 
     94 N          -3.0631  -15.0310  -49.7759 N.am      17 UNK        -0.5000 
     95 CA         -2.1306  -15.3428  -50.8640 C.3       17 UNK         0.1400 
     96 CB         -2.2847  -14.3483  -52.0326 C.3       17 UNK        -0.1800 
     97 C          -2.2069  -16.8204  -51.3050 C.2       17 UNK         0.5000 
     98 O          -1.9385  -17.1293  -52.4660 O.2       17 UNK        -0.5000 
     99 N          -2.6217  -17.6953  -50.3744 N.am      18 UNK        -0.5000 
    100 CA        -2.8664  -19.1355  -50.4985 C.3       18 UNK         0.1400 
    101 CB        -1.5829  -19.8777  -50.9060 C.3       18 UNK        -0.1800 
    102 C         -4.0553  -19.5296  -51.3999 C.2       18 UNK         0.5000 
    103 O         -4.4645  -20.6884  -51.3556 O.2       18 UNK        -0.5000 
    104 N         -4.5962  -18.5905  -52.1918 N.am      19 UNK        -0.5000 
    105 CA        -5.7467  -18.7227  -53.0984 C.3       19 UNK         0.1400 
    106 CB        -7.0562  -18.7660  -52.2883 C.3       19 UNK        -0.1800 
    107 C         -5.6330  -19.8936  -54.1017 C.2       19 UNK         0.5000 
    108 O         -6.6450  -20.4891  -54.4744 O.2       19 UNK        -0.5000 
    109 N         -4.3909  -20.2145  -54.4931 N.am      20 UNK        -0.5000 
    110 CA        -3.9733  -21.3380  -55.3392 C.3       20 UNK         0.1400 
    111 CB        -4.5897  -21.2383  -56.7499 C.3       20 UNK        -0.1800 
    112 C         -4.1769  -22.7356  -54.7095 C.2       20 UNK         0.5000 
    113 O         -3.9392  -23.7347  -55.3911 O.2       20 UNK        -0.5000 
    114 N         -4.5373  -22.8135  -53.4165 N.am      21 UNK        -0.5000 
    115 CA        -4.6501  -24.0701  -52.6605 C.3       21 UNK         0.1400 
    116 CB        -5.3623  -23.8092  -51.3244 C.3       21 UNK        -0.1800 
    117 C         -3.2834  -24.7466  -52.4276 C.2       21 UNK         0.5000 
    118 O         -3.2257  -25.9532  -52.1906 O.2       21 UNK        -0.5000 
    119 N         -2.2141  -23.9523  -52.5457 N.am      22 UNK        -0.5000 
    120 CA        -0.8130  -24.3717  -52.6523 C.3       22 UNK         0.1400 
    121 C         -0.4613  -25.1880  -53.9348 C.2       22 UNK         0.5000 
    122 N         -1.3065  -25.2388  -54.9594 N.am      22 UNK        -0.7600 
    123 O          0.6031  -25.7969  -53.9963 O.2       22 UNK        -0.5000 
    124 C124        0.1314  -23.1527  -52.4841 C.3       23 UNK        -0.0398 
    125 S125       -0.2676  -21.7535  -53.6006 S.3       23 UNK        -0.2404 
    126 C126        1.3386  -20.9128  -53.7718 C.3       23 UNK        -0.0205 
    127 H127        3.5744  -11.7510  -46.1807 H         1 UNK         0.0600 
    128 H128        3.1900  -11.9754  -44.4714 H         1 UNK         0.0600 
    129 H129        2.4132  -10.6806  -45.3886 H         1 UNK         0.0600 
    130 H130        2.5783  -13.2332  -47.4741 H         1 UNK         0.3000 
    131 H131        0.7973  -15.1789  -46.6913 H         1 UNK         0.0600 
    132 H132        2.4015  -14.8700  -48.8269 H         1 UNK         0.0800 
    133 H133        0.9573  -14.3540  -49.6308 H         1 UNK         0.0800 
    134 H134        1.2873  -16.4784  -51.4130 H         1 UNK         0.0800 
    135 H135        2.8051  -16.4974  -50.5476 H         1 UNK         0.0800 
    136 H136        0.9564  -18.3843  -52.7843 H         1 UNK         0.1150 
    137 H137        2.8484  -22.1052  -51.8972 H         1 UNK         0.1150 
    138 H138        3.1926  -18.8260  -49.1528 H         1 UNK         0.1150 
    139 H139        4.9103  -20.9008  -49.3002 H         1 UNK         0.0800 
    140 H140        3.4720  -21.3849  -48.4369 H         1 UNK         0.0800 
    141 H141        1.8693  -23.1123  -49.4303 H         1 UNK         0.0800 
    142 H142        2.3460  -24.4725  -50.4160 H         1 UNK         0.0800 
    143 H143        3.3942  -25.5817  -48.4641 H         1 UNK         0.0600 
    144 H144        2.4467  -23.2514  -46.8561 H         1 UNK         0.3000 
    145 H145        4.5866  -24.0092  -44.2195 H         1 UNK         0.0600 
    146 H146        5.5466  -21.7062  -44.4649 H         1 UNK         0.0600 
    147 H147        5.1507  -21.7219  -46.1841 H         1 UNK         0.0600 
    148 H148        6.3356  -22.8494  -45.5410 H         1 UNK         0.0600 
    149 H149        3.0322  -21.6812  -44.8527 H         1 UNK         0.3000 
    150 H150       -0.1671  -22.9772  -44.1855 H         1 UNK         0.0600 
    151 H151        1.5067  -21.2903  -42.2483 H         1 UNK         0.0600 
    152 H152       -0.2543  -21.3192  -42.3308 H         1 UNK         0.0600 
    153 H153        0.6250  -22.7550  -41.8351 H         1 UNK         0.0600 
    154 H154        0.7379  -20.3006  -44.4192 H         1 UNK         0.3000 
    155 H155        0.9801  -20.0337  -47.9204 H         1 UNK         0.0600 
    156 H156       -1.4609  -20.1435  -47.7975 H         1 UNK         0.0600 
    157 H157       -1.0035  -18.4687  -47.5711 H         1 UNK         0.0600 
    158 H158       -1.4833  -19.4540  -46.1915 H         1 UNK         0.0600 
    159 H159        0.7108  -18.0778  -45.8705 H         1 UNK         0.3000 
    160 H160        4.0210  -18.0836  -44.6533 H         1 UNK         0.0600 
    161 H161        3.0913  -16.1994  -46.8784 H         1 UNK         0.0600 
    162 H162        4.5755  -17.1376  -46.8914 H         1 UNK         0.0600 
    163 H163        4.3608  -15.8605  -45.7038 H         1 UNK         0.0600 
    164 H164        2.0499  -16.0265  -44.6237 H         1 UNK         0.3000 
    165 H165        0.9812  -16.7245  -41.4777 H         1 UNK         0.0600 
    166 H166        0.3413  -15.0126  -43.9388 H         1 UNK         0.0600 
    167 H167        0.0504  -14.5937  -42.2577 H         1 UNK         0.0600 
    168 H168        1.6963  -14.7308  -42.8431 H         1 UNK         0.0600 
    169 H169       -1.0955  -17.4503  -41.7629 H         1 UNK         0.3000 
    170 H170       -3.2131  -18.1614  -44.5680 H         1 UNK         0.0600 
    171 H171       -2.0505  -20.1766  -43.7992 H         1 UNK         0.0600 
    172 H172       -2.0358  -19.5987  -42.1378 H         1 UNK         0.0600 
    173 H173       -3.5581  -20.0017  -42.9121 H         1 UNK         0.0600 
    174 H174       -3.5591  -17.7214  -41.7216 H         1 UNK         0.3000 
    175 H175       -3.7000  -16.1238  -44.9834 H         1 UNK         0.0600 
    176 H176       -6.2427  -14.8089  -43.9300 H         1 UNK         0.0600 
    177 H177       -5.7336  -14.8018  -45.6095 H         1 UNK         0.0600 
    178 H178       -6.1102  -16.3228  -44.8089 H         1 UNK         0.0600 
    179 H179       -2.6463  -14.2368  -44.9436 H         1 UNK         0.3000 
    180 H180       -3.4010  -10.9473  -44.0678 H         1 UNK         0.0600 
    181 H181       -2.1188  -11.5881  -42.0515 H         1 UNK         0.0600 
    182 H182       -1.0459  -10.8854  -43.2538 H         1 UNK         0.0600 
    183 H183       -1.0760  -12.6303  -43.0082 H         1 UNK         0.0600 
    184 H184       -1.2101  -12.1616  -45.4702 H         1 UNK         0.3000 
    185 H185       -2.7475  -12.4590  -48.6051 H         1 UNK         0.0600 
    186 H186       -2.8394   -9.9683  -48.6351 H         1 UNK         0.0600 
    187 H187       -1.2552   -9.8870  -47.8738 H         1 UNK         0.0600 
    188 H188       -1.4286  -10.5613  -49.4952 H         1 UNK         0.0600 
    189 H189       -0.0065  -11.9954  -47.9045 H         1 UNK         0.3000 
    190 H190        1.4617  -25.1780  -46.0553 H         1 UNK         0.3000 
    191 H191       -0.3368  -26.0781  -45.2013 H         1 UNK         0.0600 
    192 H192       -1.0890  -28.2789  -45.9957 H         1 UNK         0.0600 
    193 H193        0.6590  -28.1884  -46.1157 H         1 UNK         0.0600 
    194 H194       -0.3353  -28.0264  -47.5632 H         1 UNK         0.0600 
    195 H195       -0.7336  -23.8383  -47.1281 H         1 UNK         0.3000 
    196 H196       -3.5972  -24.2149  -47.8896 H         1 UNK         0.0600 
    197 H197       -1.4599  -22.1811  -48.7016 H         1 UNK         0.0600 
    198 H198       -2.2431  -23.3741  -49.7188 H         1 UNK         0.0600 
    199 H199       -3.1693  -22.0144  -49.1050 H         1 UNK         0.0600 
    200 H200       -5.0458  -22.3908  -47.3032 H         1 UNK         0.3000 
    201 H201       -4.3234  -20.8194  -44.9309 H         1 UNK         0.0600 
    202 H202       -6.1925  -21.7968  -43.5865 H         1 UNK         0.0600 
    203 H203       -4.9586  -22.9981  -43.9260 H         1 UNK         0.0600 
    204 H204       -6.4692  -23.0084  -44.8347 H         1 UNK         0.0600 
    205 H205       -4.5522  -19.4435  -46.9787 H         1 UNK         0.3000 
    206 H206       -7.0409  -18.0187  -46.7737 H         1 UNK         0.0600 
    207 H207       -7.7105  -19.7115  -48.4996 H         1 UNK         0.0600 
    208 H208       -7.5343  -18.1341  -49.2452 H         1 UNK         0.0600 
    209 H209       -6.2688  -19.3450  -49.4400 H         1 UNK         0.0600 
    210 H210       -6.8748  -15.9991  -48.1095 H         1 UNK         0.3000 
    211 H211       -4.3780  -14.6835  -47.6959 H         1 UNK         0.0600 
    212 H212       -6.8689  -13.8414  -49.2739 H         1 UNK         0.0600 
    213 H213       -5.5371  -12.7787  -48.8349 H         1 UNK         0.0600 
    214 H214       -6.5364  -13.4864  -47.5779 H         1 UNK         0.0600 
    215 H215       -2.6206  -14.8835  -48.8694 H         1 UNK         0.3000 
    216 H216       -1.1325  -15.2026  -50.4551 H         1 UNK         0.0600 
    217 H217       -2.2293  -13.3177  -51.6821 H         1 UNK         0.0600 
    218 H218       -3.2334  -14.4759  -52.5544 H         1 UNK         0.0600 
    219 H219       -1.4894  -14.4834  -52.7665 H         1 UNK         0.0600 
    220 H220       -2.8640  -17.3197  -49.4631 H         1 UNK         0.3000 
    221 H221       -3.1356  -19.4727  -49.4971 H         1 UNK         0.0600 
    222 H222       -1.7387  -20.9554  -50.9335 H         1 UNK         0.0600 
    223 H223       -1.2486  -19.5794  -51.8981 H         1 UNK         0.0600 
    224 H224       -0.7697  -19.6817  -50.2071 H         1 UNK         0.0600 
    225 H225       -4.1607  -17.6779  -52.1766 H         1 UNK         0.3000 
    226 H226       -5.7630  -17.8132  -53.7005 H         1 UNK         0.0600 
    227 H227       -7.1267  -17.9111  -51.6163 H         1 UNK         0.0600 
    228 H228       -7.9271  -18.7307  -52.9438 H         1 UNK         0.0600 
    229 H229       -7.1305  -19.6768  -51.6935 H         1 UNK         0.0600 
    230 H230       -3.6363  -19.6607  -54.1116 H         1 UNK         0.3000 
    231 H231       -2.8939  -21.2274  -55.4529 H         1 UNK         0.0600 
    232 H232       -4.1397  -21.9671  -57.4250 H         1 UNK         0.0600 
    233 H233       -4.4250  -20.2524  -57.1844 H         1 UNK         0.0600 
    234 H234       -5.6633  -21.4274  -56.7404 H         1 UNK         0.0600 
    235 H235       -4.6782  -21.9590  -52.8859 H         1 UNK         0.3000 
    236 H236       -5.2643  -24.7592  -53.2437 H         1 UNK         0.0600 
    237 H237       -6.3198  -23.3105  -51.4759 H         1 UNK         0.0600 
    238 H238       -5.5602  -24.7453  -50.8011 H         1 UNK         0.0600 
    239 H239       -4.7613  -23.1883  -50.6610 H         1 UNK         0.0600 
    240 H240       -2.3806  -22.9767  -52.7426 H         1 UNK         0.3000 
    241 H241       -0.6241  -25.0466  -51.8151 H         1 UNK         0.0600 
    242 H242       -2.1880  -24.7399  -54.9460 H         1 UNK         0.3800 
    243 H243       -1.0567  -25.7767  -55.7739 H         1 UNK         0.3800 
    244 H244        1.1681  -23.4572  -52.6321 H         1 UNK         0.0800 
    245 H245        0.0719  -22.7865  -51.4582 H         1 UNK         0.0800 
    246 H246        1.2401  -20.1229  -54.5177 H         1 UNK         0.0800 
    247 H247        2.0736  -21.6136  -54.1709 H         1 UNK         0.0800 
@<TRIPOS>BOND
     1    1    2 1    
     2    1  127 1    
     3    1  128 1    
     4    1  129 1    
     5    2    3 2    
     6    2    4 am   BACKBONE|DICT|INTERRES
     7    4    5 1    
     8    4  130 1    
     9    5    6 1    
    10    5   65 1    
    11    5  131 1    
    12    6    7 1    
    13    6  132 1    
    14    6  133 1    
    15    7    8 1    
    16    8    9 1    
    17    8  134 1    
    18    8  135 1    
    19    9   10 ar   
    20    9   14 ar   
    21   10   11 ar   
    22   10  136 1    
    23   11   12 ar   
    24   11  126 1    
    25   12   13 ar   
    26   12  137 1    
    27   13   14 ar   
    28   13   15 1    
    29   14  138 1    
    30   15   16 1    
    31   15  139 1    
    32   15  140 1    
    33   16   17 1    
    34   17   18 1    
    35   17  141 1    
    36   17  142 1    
    37   18   19 1    
    38   18   67 1    
    39   18  143 1    
    40   19   20 am   BACKBONE|DICT|INTERRES
    41   19  144 1    
    42   20   21 2    
    43   20   22 1    
    44   22   23 1    
    45   22   24 1    
    46   22  145 1    
    47   23  146 1    
    48   23  147 1    
    49   23  148 1    
    50   24   25 am   BACKBONE|DICT|INTERRES
    51   24  149 1    
    52   25   26 2    
    53   25   27 1    
    54   27   28 1    
    55   27   29 1    
    56   27  150 1    
    57   28  151 1    
    58   28  152 1    
    59   28  153 1    
    60   29   30 am   BACKBONE|DICT|INTERRES
    61   29  154 1    
    62   30   31 2    
    63   30   32 1    
    64   32   33 1    
    65   32   34 1    
    66   32  155 1    
    67   33  156 1    
    68   33  157 1    
    69   33  158 1    
    70   34   35 am   BACKBONE|DICT|INTERRES
    71   34  159 1    
    72   35   36 2    
    73   35   37 1    
    74   37   38 1    
    75   37   39 1    
    76   37  160 1    
    77   38  161 1    
    78   38  162 1    
    79   38  163 1    
    80   39   40 am   BACKBONE|DICT|INTERRES
    81   39  164 1    
    82   40   41 2    
    83   40   42 1    
    84   42   43 1    
    85   42   44 1    
    86   42  165 1    
    87   43  166 1    
    88   43  167 1    
    89   43  168 1    
    90   44   45 am   BACKBONE|DICT|INTERRES
    91   44  169 1    
    92   45   46 2    
    93   45   47 1    
    94   47   48 1    
    95   47   49 1    
    96   47  170 1    
    97   48  171 1    
    98   48  172 1    
    99   48  173 1    
   100   49   50 am   BACKBONE|DICT|INTERRES
   101   49  174 1    
   102   50   51 2    
   103   50   52 1    
   104   52   53 1    
   105   52   54 1    
   106   52  175 1    
   107   53  176 1    
   108   53  177 1    
   109   53  178 1    
   110   54   55 am   BACKBONE|DICT|INTERRES
   111   54  179 1    
   112   55   56 2    
   113   55   57 1    
   114   57   58 1    
   115   57   59 1    
   116   57  180 1    
   117   58  181 1    
   118   58  182 1    
   119   58  183 1    
   120   59   60 am   BACKBONE|DICT|INTERRES
   121   59  184 1    
   122   60   61 2    
   123   60   62 1    
   124   62   63 1    
   125   62   64 1    
   126   62  185 1    
   127   63  186 1    
   128   63  187 1    
   129   63  188 1    
   130   64   65 am   BACKBONE|DICT|INTERRES
   131   64  189 1    
   132   65   66 2    
   133   67   68 2    
   134   67   69 am   BACKBONE|DICT|INTERRES
   135   69   70 1    
   136   69  190 1    
   137   70   71 1    
   138   70   72 1    
   139   70  191 1    
   140   71  192 1    
   141   71  193 1    
   142   71  194 1    
   143   72   73 2    
   144   72   74 am   BACKBONE|DICT|INTERRES
   145   74   75 1    
   146   74  195 1    
   147   75   76 1    
   148   75   77 1    
   149   75  196 1    
   150   76  197 1    
   151   76  198 1    
   152   76  199 1    
   153   77   78 2    
   154   77   79 am   BACKBONE|DICT|INTERRES
   155   79   80 1    
   156   79  200 1    
   157   80   81 1    
   158   80   82 1    
   159   80  201 1    
   160   81  202 1    
   161   81  203 1    
   162   81  204 1    
   163   82   83 2    
   164   82   84 am   BACKBONE|DICT|INTERRES
   165   84   85 1    
   166   84  205 1    
   167   85   86 1    
   168   85   87 1    
   169   85  206 1    
   170   86  207 1    
   171   86  208 1    
   172   86  209 1    
   173   87   88 2    
   174   87   89 am   BACKBONE|DICT|INTERRES
   175   89   90 1    
   176   89  210 1    
   177   90   91 1    
   178   90   92 1    
   179   90  211 1    
   180   91  212 1    
   181   91  213 1    
   182   91  214 1    
   183   92   93 2    
   184   92   94 am   BACKBONE|DICT|INTERRES
   185   94   95 1    
   186   94  215 1    
   187   95   96 1    
   188   95   97 1    
   189   95  216 1    
   190   96  217 1    
   191   96  218 1    
   192   96  219 1    
   193   97   98 2    
   194   97   99 am   BACKBONE|DICT|INTERRES
   195   99  100 1    
   196   99  220 1    
   197  100  101 1    
   198  100  102 1    
   199  100  221 1    
   200  101  222 1    
   201  101  223 1    
   202  101  224 1    
   203  102  103 2    
   204  102  104 am   BACKBONE|DICT|INTERRES
   205  104  105 1    
   206  104  225 1    
   207  105  106 1    
   208  105  107 1    
   209  105  226 1    
   210  106  227 1    
   211  106  228 1    
   212  106  229 1    
   213  107  108 2    
   214  107  109 am   BACKBONE|DICT|INTERRES
   215  109  110 1    
   216  109  230 1    
   217  110  111 1    
   218  110  112 1    
   219  110  231 1    
   220  111  232 1    
   221  111  233 1    
   222  111  234 1    
   223  112  113 2    
   224  112  114 am   BACKBONE|DICT|INTERRES
   225  114  115 1    
   226  114  235 1    
   227  115  116 1    
   228  115  117 1    
   229  115  236 1    
   230  116  237 1    
   231  116  238 1    
   232  116  239 1    
   233  117  118 2    
   234  117  119 am   BACKBONE|DICT|INTERRES
   235  119  120 1    
   236  119  240 1    
   237  120  121 1    
   238  120  124 1    
   239  120  241 1    
   240  121  122 am   BACKBONE|DICT|INTERRES
   241  121  123 2    
   242  122  242 1    
   243  122  243 1    
   244  124  125 1    
   245  124  244 1    
   246  124  245 1    
   247  125  126 1    
   248  126  246 1    
   249  126  247 1    
@<TRIPOS>SUBSTRUCTURE
     1 UNK         1 GROUP             0       ****    0 ROOT    
