@<TRIPOS>MOLECULE
3R540
247   249    1
SMALL
USER_CHARGES


@<TRIPOS>ATOM
      1 CA         -0.5087  -11.0094  -46.0097 C.3       0 UNK        -0.1800 
      2 C          -0.7864  -12.4177  -46.5128 C.2       0 UNK         0.5000 
      3 O          -0.8688  -13.3495  -45.7102 O.2       0 UNK        -0.5000 
      4 N          -0.9352  -12.5661  -47.8379 N.am      1 UNK        -0.5000 
      5 CA         -1.1240  -13.8410  -48.5446 C.3       1 UNK         0.1400 
      6 C6         -0.9383  -13.6836  -50.0740 C.3       23 UNK        -0.0398 
      7 S7         -0.4729  -15.2417  -50.9076 S.3       23 UNK        -0.2404 
      8 C8          1.3172  -15.3002  -50.5806 C.3       23 UNK        -0.0205 
      9 C9          1.9928  -16.4225  -51.3547 C.ar      23 UNK        -0.0193 
     10 C10         2.2256  -16.2717  -52.7246 C.ar      23 UNK        -0.1150 
     11 C11         2.8683  -17.2753  -53.4532 C.ar      23 UNK        -0.0193 
     12 C12         3.2925  -18.4332  -52.7967 C.ar      23 UNK        -0.1150 
     13 C13         3.0542  -18.6064  -51.4299 C.ar      23 UNK        -0.0193 
     14 C14         2.4053  -17.5955  -50.7111 C.ar      23 UNK        -0.1150 
     15 C15         3.5188  -19.8815  -50.7402 C.3       23 UNK        -0.0205 
     16 S16         2.1499  -21.0611  -50.4987 S.3       23 UNK        -0.2404 
     17 C17         1.6253  -20.6905  -48.7903 C.3       23 UNK        -0.0398 
     18 CA          1.2897  -21.9740  -47.9818 C.3       11 UNK         0.1400 
     19 N           1.6523  -21.8398  -46.5655 N.am      11 UNK        -0.5000 
     20 C           1.6890  -22.8458  -45.6789 C.2       10 UNK         0.5000 
     21 O           1.5011  -24.0259  -45.9749 O.2       10 UNK        -0.5000 
     22 CA          1.9606  -22.4712  -44.2078 C.3       10 UNK         0.1400 
     23 CB          3.4692  -22.3773  -43.9343 C.3       10 UNK        -0.1800 
     24 N           1.3151  -21.2183  -43.8134 N.am      10 UNK        -0.5000 
     25 C          -0.0113  -21.0454  -43.7205 C.2       9 UNK         0.5000 
     26 O          -0.8351  -21.9470  -43.8816 O.2       9 UNK        -0.5000 
     27 CA         -0.5030  -19.6085  -43.4651 C.3       9 UNK         0.1400 
     28 CB         -0.4774  -19.2701  -41.9681 C.3       9 UNK        -0.1800 
     29 N           0.2656  -18.6101  -44.2089 N.am      9 UNK        -0.5000 
     30 C           0.3425  -18.5467  -45.5450 C.2       8 UNK         0.5000 
     31 O          -0.2678  -19.2962  -46.3005 O.2       8 UNK        -0.5000 
     32 CA          1.2904  -17.5008  -46.1434 C.3       8 UNK         0.1400 
     33 CB          0.6096  -16.1321  -46.1820 C.3       8 UNK        -0.1800 
     34 N           2.5514  -17.4161  -45.4116 N.am      8 UNK        -0.5000 
     35 C           3.4796  -18.3829  -45.4006 C.2       7 UNK         0.5000 
     36 O           3.3832  -19.4282  -46.0419 O.2       7 UNK        -0.5000 
     37 CA          4.6953  -18.1611  -44.4840 C.3       7 UNK         0.1400 
     38 CB          5.7646  -17.3205  -45.1972 C.3       7 UNK        -0.1800 
     39 N           4.3279  -17.5142  -43.2237 N.am      7 UNK        -0.5000 
     40 C           3.5731  -18.0853  -42.2743 C.2       6 UNK         0.5000 
     41 O           3.1457  -19.2384  -42.3412 O.2       6 UNK        -0.5000 
     42 CA          3.1882  -17.1921  -41.0793 C.3       6 UNK         0.1400 
     43 CB          4.3099  -17.1754  -40.0303 C.3       6 UNK        -0.1800 
     44 N           2.8625  -15.8150  -41.4713 N.am      6 UNK        -0.5000 
     45 C           1.8312  -15.4850  -42.2596 C.2       5 UNK         0.5000 
     46 O           1.0722  -16.3159  -42.7615 O.2       5 UNK        -0.5000 
     47 CA          1.6443  -13.9923  -42.5842 C.3       5 UNK         0.1400 
     48 CB          2.4626  -13.5993  -43.8239 C.3       5 UNK        -0.1800 
     49 N           0.2342  -13.7007  -42.8359 N.am      5 UNK        -0.5000 
     50 C          -0.6809  -13.5387  -41.8710 C.2       4 UNK         0.5000 
     51 O          -0.4090  -13.4768  -40.6710 O.2       4 UNK        -0.5000 
     52 CA         -2.1478  -13.4573  -42.3204 C.3       4 UNK         0.1400 
     53 CB         -2.5027  -12.0427  -42.8005 C.3       4 UNK        -0.1800 
     54 N          -2.4291  -14.4223  -43.3826 N.am      4 UNK        -0.5000 
     55 C          -2.7763  -15.6982  -43.1622 C.2       3 UNK         0.5000 
     56 O          -2.9000  -16.1785  -42.0341 O.2       3 UNK        -0.5000 
     57 CA         -3.0349  -16.5843  -44.4017 C.3       3 UNK         0.1400 
     58 CB         -4.0094  -17.7453  -44.1144 C.3       3 UNK        -0.1800 
     59 N          -3.4631  -15.8442  -45.5934 N.am      3 UNK        -0.5000 
     60 C          -4.5364  -15.0549  -45.7481 C.2       2 UNK         0.5000 
     61 O          -5.3604  -14.8428  -44.8571 O.2       2 UNK        -0.5000 
     62 CA         -4.6968  -14.3730  -47.1306 C.3       2 UNK         0.1400 
     63 CB         -5.7323  -13.2341  -47.1105 C.3       2 UNK        -0.1800 
     64 N          -3.4343  -13.8433  -47.6594 N.am      2 UNK        -0.5000 
     65 C          -2.4379  -14.5716  -48.1820 C.2       1 UNK         0.5000 
     66 O          -2.5071  -15.7934  -48.3105 O.2       1 UNK        -0.5000 
     67 C          -0.1933  -22.3726  -48.1524 C.2       11 UNK         0.5000 
     68 O          -0.5068  -23.2480  -48.9588 O.2       11 UNK        -0.5000 
     69 N          -1.0638  -21.7180  -47.3728 N.am      12 UNK        -0.5000 
     70 CA         -2.5069  -21.9143  -47.3232 C.3       12 UNK         0.1400 
     71 CB         -3.1368  -20.8142  -46.4471 C.3       12 UNK        -0.1800 
     72 C          -2.8914  -23.3135  -46.8231 C.2       12 UNK         0.5000 
     73 O          -3.5212  -24.0606  -47.5688 O.2       12 UNK        -0.5000 
     74 N          -2.5144  -23.6284  -45.5734 N.am      13 UNK        -0.5000 
     75 CA         -2.8558  -24.8530  -44.8405 C.3       13 UNK         0.1400 
     76 CB         -2.0150  -26.0345  -45.3732 C.3       13 UNK        -0.1800 
     77 C          -4.3833  -25.1116  -44.8273 C.2       13 UNK         0.5000 
     78 O          -5.1489  -24.1793  -44.5690 O.2       13 UNK        -0.5000 
     79 N          -4.8063  -26.3480  -45.1204 N.am      14 UNK        -0.5000 
     80 CA         -6.1907  -26.6835  -45.4515 C.3       14 UNK         0.1400 
     81 CB         -6.4333  -28.1726  -45.1600 C.3       14 UNK        -0.1800 
     82 C          -6.4435  -26.3670  -46.9372 C.2       14 UNK         0.5000 
     83 O          -5.5831  -26.6724  -47.7656 O.2       14 UNK        -0.5000 
     84 N          -7.6139  -25.7830  -47.2379 N.am      15 UNK        -0.5000 
     85 CA         -8.0104  -25.2169  -48.5358 C.3       15 UNK         0.1400 
     86 CB         -8.0596  -26.2900  -49.6447 C.3       15 UNK        -0.1800 
     87 C          -7.1193  -24.0093  -48.8904 C.2       15 UNK         0.5000 
     88 O          -6.2936  -24.0782  -49.8027 O.2       15 UNK        -0.5000 
     89 N          -7.2997  -22.9282  -48.1162 N.am      16 UNK        -0.5000 
     90 CA         -6.4414  -21.7396  -48.0455 C.3       16 UNK         0.1400 
     91 CB         -7.0173  -20.7659  -47.0062 C.3       16 UNK        -0.1800 
     92 C          -6.1488  -21.0064  -49.3689 C.2       16 UNK         0.5000 
     93 O          -5.1388  -20.3058  -49.4542 O.2       16 UNK        -0.5000 
     94 N          -6.9873  -21.2228  -50.3926 N.am      17 UNK        -0.5000 
     95 CA         -6.7825  -20.7818  -51.7766 C.3       17 UNK         0.1400 
     96 CB         -7.9821  -21.2290  -52.6245 C.3       17 UNK        -0.1800 
     97 C          -5.4627  -21.2755  -52.4093 C.2       17 UNK         0.5000 
     98 O          -4.9879  -20.6604  -53.3640 O.2       17 UNK        -0.5000 
     99 N          -4.8638  -22.3334  -51.8408 N.am      18 UNK        -0.5000 
    100 CA        -3.5272  -22.8315  -52.1627 C.3       18 UNK         0.1400 
    101 CB        -3.2192  -24.0508  -51.2836 C.3       18 UNK        -0.1800 
    102 C         -2.4074  -21.7783  -52.0272 C.2       18 UNK         0.5000 
    103 O         -1.4383  -21.8548  -52.7816 O.2       18 UNK        -0.5000 
    104 N         -2.5637  -20.7995  -51.1191 N.am      19 UNK        -0.5000 
    105 CA        -1.6381  -19.6717  -50.9817 C.3       19 UNK         0.1400 
    106 CB        -1.9135  -18.9029  -49.6815 C.3       19 UNK        -0.1800 
    107 C         -1.7050  -18.7267  -52.1912 C.2       19 UNK         0.5000 
    108 O         -0.6690  -18.3962  -52.7625 O.2       19 UNK        -0.5000 
    109 N         -2.9285  -18.3577  -52.5964 N.am      20 UNK        -0.5000 
    110 CA        -3.1953  -17.5078  -53.7597 C.3       20 UNK         0.1400 
    111 CB        -4.6778  -17.1053  -53.7634 C.3       20 UNK        -0.1800 
    112 C         -2.8027  -18.1760  -55.0920 C.2       20 UNK         0.5000 
    113 O         -2.3726  -17.4871  -56.0173 O.2       20 UNK        -0.5000 
    114 N         -2.9287  -19.5082  -55.1499 N.am      21 UNK        -0.5000 
    115 CA        -2.4660  -20.3530  -56.2511 C.3       21 UNK         0.1400 
    116 CB        -3.2085  -21.6964  -56.1797 C.3       21 UNK        -0.1800 
    117 C         -0.9377  -20.5802  -56.2564 C.2       21 UNK         0.5000 
    118 O         -0.4225  -21.1217  -57.2358 O.2       21 UNK        -0.5000 
    119 N         -0.2464  -20.1798  -55.1804 N.am      22 UNK        -0.5000 
    120 CA         1.1964  -20.3495  -54.9456 C.3       22 UNK         0.1400 
    121 C          1.6405  -21.8369  -54.7980 C.2       22 UNK         0.5000 
    122 N          0.8210  -22.7009  -54.2137 N.am      22 UNK        -0.7600 
    123 O          2.7367  -22.2188  -55.2008 O.2       22 UNK        -0.5000 
    124 C124        2.0840  -19.5452  -55.9392 C.3       23 UNK        -0.0398 
    125 S125        1.7350  -17.7514  -55.9428 S.3       23 UNK        -0.2404 
    126 C126        3.1121  -17.0970  -54.9446 C.3       23 UNK        -0.0205 
    127 H127        0.1855  -11.0391  -45.1696 H         1 UNK         0.0600 
    128 H128       -1.4334  -10.5390  -45.6766 H         1 UNK         0.0600 
    129 H129       -0.0684  -10.3867  -46.7887 H         1 UNK         0.0600 
    130 H130       -0.8740  -11.7468  -48.4259 H         1 UNK         0.3000 
    131 H131       -0.3139  -14.4779  -48.1959 H         1 UNK         0.0600 
    132 H132       -0.1585  -12.9513  -50.2879 H         1 UNK         0.0800 
    133 H133       -1.8448  -13.2914  -50.5384 H         1 UNK         0.0800 
    134 H134        1.7720  -14.3491  -50.8615 H         1 UNK         0.0800 
    135 H135        1.4877  -15.4214  -49.5101 H         1 UNK         0.0800 
    136 H136        1.8983  -15.3714  -53.2254 H         1 UNK         0.1150 
    137 H137        3.7975  -19.2088  -53.3549 H         1 UNK         0.1150 
    138 H138        2.2258  -17.7219  -49.6532 H         1 UNK         0.1150 
    139 H139        4.2828  -20.3719  -51.3453 H         1 UNK         0.0800 
    140 H140        4.0068  -19.6401  -49.7953 H         1 UNK         0.0800 
    141 H141        0.7948  -19.9831  -48.8107 H         1 UNK         0.0800 
    142 H142        2.4394  -20.1575  -48.3030 H         1 UNK         0.0800 
    143 H143        1.8940  -22.7967  -48.3706 H         1 UNK         0.0600 
    144 H144        1.8834  -20.9073  -46.2440 H         1 UNK         0.3000 
    145 H145        1.5529  -23.2688  -43.5830 H         1 UNK         0.0600 
    146 H146        3.6665  -22.1718  -42.8820 H         1 UNK         0.0600 
    147 H147        3.9697  -23.3138  -44.1833 H         1 UNK         0.0600 
    148 H148        3.9386  -21.5881  -44.5215 H         1 UNK         0.0600 
    149 H149        1.9234  -20.4327  -43.6113 H         1 UNK         0.3000 
    150 H150       -1.5374  -19.5469  -43.8043 H         1 UNK         0.0600 
    151 H151       -1.0813  -19.9771  -41.3981 H         1 UNK         0.0600 
    152 H152       -0.8807  -18.2741  -41.7833 H         1 UNK         0.0600 
    153 H153        0.5344  -19.3007  -41.5642 H         1 UNK         0.0600 
    154 H154        0.7480  -17.9032  -43.6583 H         1 UNK         0.3000 
    155 H155        1.5101  -17.7978  -47.1711 H         1 UNK         0.0600 
    156 H156        1.2362  -15.3912  -46.6779 H         1 UNK         0.0600 
    157 H157        0.3703  -15.7624  -45.1863 H         1 UNK         0.0600 
    158 H158       -0.3297  -16.1986  -46.7284 H         1 UNK         0.0600 
    159 H159        2.6820  -16.6124  -44.8172 H         1 UNK         0.3000 
    160 H160        5.1236  -19.1393  -44.2550 H         1 UNK         0.0600 
    161 H161        5.4016  -16.3194  -45.4334 H         1 UNK         0.0600 
    162 H162        6.0677  -17.7896  -46.1343 H         1 UNK         0.0600 
    163 H163        6.6591  -17.2174  -44.5827 H         1 UNK         0.0600 
    164 H164        4.6396  -16.5641  -43.0868 H         1 UNK         0.3000 
    165 H165        2.2988  -17.6269  -40.6181 H         1 UNK         0.0600 
    166 H166        4.0099  -16.6204  -39.1413 H         1 UNK         0.0600 
    167 H167        4.5597  -18.1880  -39.7104 H         1 UNK         0.0600 
    168 H168        5.2212  -16.7198  -40.4196 H         1 UNK         0.0600 
    169 H169        3.4532  -15.0859  -41.0978 H         1 UNK         0.3000 
    170 H170        1.9906  -13.3989  -41.7354 H         1 UNK         0.0600 
    171 H171        3.5252  -13.7925  -43.6718 H         1 UNK         0.0600 
    172 H172        2.1511  -14.1512  -44.7099 H         1 UNK         0.0600 
    173 H173        2.3550  -12.5366  -44.0424 H         1 UNK         0.0600 
    174 H174       -0.0810  -13.7613  -43.7972 H         1 UNK         0.3000 
    175 H175       -2.7776  -13.6782  -41.4558 H         1 UNK         0.0600 
    176 H176       -1.8826  -11.7352  -43.6402 H         1 UNK         0.0600 
    177 H177       -3.5455  -11.9819  -43.1124 H         1 UNK         0.0600 
    178 H178       -2.3570  -11.3137  -42.0025 H         1 UNK         0.0600 
    179 H179       -2.2800  -14.1108  -44.3353 H         1 UNK         0.3000 
    180 H180       -2.0703  -17.0220  -44.6553 H         1 UNK         0.0600 
    181 H181       -4.1403  -18.3760  -44.9935 H         1 UNK         0.0600 
    182 H182       -4.9922  -17.3808  -43.8144 H         1 UNK         0.0600 
    183 H183       -3.6396  -18.3835  -43.3114 H         1 UNK         0.0600 
    184 H184       -2.8796  -15.9615  -46.4161 H         1 UNK         0.3000 
    185 H185       -5.0624  -15.1394  -47.8171 H         1 UNK         0.0600 
    186 H186       -6.7120  -13.5979  -46.7981 H         1 UNK         0.0600 
    187 H187       -5.4409  -12.4390  -46.4229 H         1 UNK         0.0600 
    188 H188       -5.8546  -12.7943  -48.1005 H         1 UNK         0.0600 
    189 H189       -3.2807  -12.8528  -47.5407 H         1 UNK         0.3000 
    190 H190       -0.7051  -20.9609  -46.7942 H         1 UNK         0.3000 
    191 H191       -2.8967  -21.8072  -48.3373 H         1 UNK         0.0600 
    192 H192       -4.1876  -21.0075  -46.2406 H         1 UNK         0.0600 
    193 H193       -3.0763  -19.8384  -46.9283 H         1 UNK         0.0600 
    194 H194       -2.6410  -20.7362  -45.4817 H         1 UNK         0.0600 
    195 H195       -1.9855  -22.9414  -45.0414 H         1 UNK         0.3000 
    196 H196       -2.5662  -24.6784  -43.8035 H         1 UNK         0.0600 
    197 H197       -2.2791  -26.2924  -46.3997 H         1 UNK         0.0600 
    198 H198       -0.9523  -25.7900  -45.3603 H         1 UNK         0.0600 
    199 H199       -2.1434  -26.9250  -44.7570 H         1 UNK         0.0600 
    200 H200       -4.1144  -27.0366  -45.3776 H         1 UNK         0.3000 
    201 H201       -6.8702  -26.0948  -44.8313 H         1 UNK         0.0600 
    202 H202       -5.7822  -28.8127  -45.7569 H         1 UNK         0.0600 
    203 H203       -7.4635  -28.4505  -45.3858 H         1 UNK         0.0600 
    204 H204       -6.2572  -28.4021  -44.1089 H         1 UNK         0.0600 
    205 H205       -8.2558  -25.6001  -46.4790 H         1 UNK         0.3000 
    206 H206       -9.0264  -24.8383  -48.4130 H         1 UNK         0.0600 
    207 H207       -8.6973  -27.1254  -49.3562 H         1 UNK         0.0600 
    208 H208       -8.4673  -25.8718  -50.5656 H         1 UNK         0.0600 
    209 H209       -7.0733  -26.6880  -49.8831 H         1 UNK         0.0600 
    210 H210       -8.0184  -22.9778  -47.4089 H         1 UNK         0.3000 
    211 H211       -5.4803  -22.0989  -47.6839 H         1 UNK         0.0600 
    212 H212       -6.3931  -19.8760  -46.9107 H         1 UNK         0.0600 
    213 H213       -7.0710  -21.2276  -46.0200 H         1 UNK         0.0600 
    214 H214       -8.0198  -20.4349  -47.2800 H         1 UNK         0.0600 
    215 H215       -7.7764  -21.8301  -50.2289 H         1 UNK         0.3000 
    216 H216       -6.7493  -19.6906  -51.7730 H         1 UNK         0.0600 
    217 H217       -8.0797  -22.3154  -52.6394 H         1 UNK         0.0600 
    218 H218       -7.8773  -20.8943  -53.6576 H         1 UNK         0.0600 
    219 H219       -8.9140  -20.8118  -52.2425 H         1 UNK         0.0600 
    220 H220       -5.3443  -22.8083  -51.0824 H         1 UNK         0.3000 
    221 H221       -3.5465  -23.1611  -53.2023 H         1 UNK         0.0600 
    222 H222       -2.2370  -24.4647  -51.5154 H         1 UNK         0.0600 
    223 H223       -3.9524  -24.8437  -51.4326 H         1 UNK         0.0600 
    224 H224       -3.2215  -23.7885  -50.2254 H         1 UNK         0.0600 
    225 H225       -3.4048  -20.7766  -50.5533 H         1 UNK         0.3000 
    226 H226       -0.6233  -20.0689  -50.9291 H         1 UNK         0.0600 
    227 H227       -1.7288  -19.5240  -48.8098 H         1 UNK         0.0600 
    228 H228       -1.2573  -18.0356  -49.5951 H         1 UNK         0.0600 
    229 H229       -2.9411  -18.5421  -49.6275 H         1 UNK         0.0600 
    230 H230       -3.7318  -18.7176  -52.1029 H         1 UNK         0.3000 
    231 H231       -2.5947  -16.6016  -53.6551 H         1 UNK         0.0600 
    232 H232       -5.3319  -17.9735  -53.8505 H         1 UNK         0.0600 
    233 H233       -4.8990  -16.4432  -54.6014 H         1 UNK         0.0600 
    234 H234       -4.9445  -16.5733  -52.8500 H         1 UNK         0.0600 
    235 H235       -3.3723  -19.9810  -54.3690 H         1 UNK         0.3000 
    236 H236       -2.7289  -19.8681  -57.1934 H         1 UNK         0.0600 
    237 H237       -4.2894  -21.5539  -56.1779 H         1 UNK         0.0600 
    238 H238       -2.9639  -22.3249  -57.0368 H         1 UNK         0.0600 
    239 H239       -2.9405  -22.2510  -55.2809 H         1 UNK         0.0600 
    240 H240       -0.7448  -19.7285  -54.4236 H         1 UNK         0.3000 
    241 H241        1.3624  -19.9284  -53.9555 H         1 UNK         0.0600 
    242 H242        1.1027  -23.6617  -54.1103 H         1 UNK         0.3800 
    243 H243       -0.0520  -22.3810  -53.7948 H         1 UNK         0.3800 
    244 H244        1.9496  -19.9194  -56.9546 H         1 UNK         0.0800 
    245 H245        3.1406  -19.6918  -55.7126 H         1 UNK         0.0800 
    246 H246        4.0509  -17.5682  -55.2392 H         1 UNK         0.0800 
    247 H247        3.2282  -16.0359  -55.1705 H         1 UNK         0.0800 
@<TRIPOS>BOND
     1    1    2 1    
     2    1  127 1    
     3    1  128 1    
     4    1  129 1    
     5    2    3 2    
     6    2    4 am   BACKBONE|DICT|INTERRES
     7    4    5 1    
     8    4  130 1    
     9    5    6 1    
    10    5   65 1    
    11    5  131 1    
    12    6    7 1    
    13    6  132 1    
    14    6  133 1    
    15    7    8 1    
    16    8    9 1    
    17    8  134 1    
    18    8  135 1    
    19    9   10 ar   
    20    9   14 ar   
    21   10   11 ar   
    22   10  136 1    
    23   11   12 ar   
    24   11  126 1    
    25   12   13 ar   
    26   12  137 1    
    27   13   14 ar   
    28   13   15 1    
    29   14  138 1    
    30   15   16 1    
    31   15  139 1    
    32   15  140 1    
    33   16   17 1    
    34   17   18 1    
    35   17  141 1    
    36   17  142 1    
    37   18   19 1    
    38   18   67 1    
    39   18  143 1    
    40   19   20 am   BACKBONE|DICT|INTERRES
    41   19  144 1    
    42   20   21 2    
    43   20   22 1    
    44   22   23 1    
    45   22   24 1    
    46   22  145 1    
    47   23  146 1    
    48   23  147 1    
    49   23  148 1    
    50   24   25 am   BACKBONE|DICT|INTERRES
    51   24  149 1    
    52   25   26 2    
    53   25   27 1    
    54   27   28 1    
    55   27   29 1    
    56   27  150 1    
    57   28  151 1    
    58   28  152 1    
    59   28  153 1    
    60   29   30 am   BACKBONE|DICT|INTERRES
    61   29  154 1    
    62   30   31 2    
    63   30   32 1    
    64   32   33 1    
    65   32   34 1    
    66   32  155 1    
    67   33  156 1    
    68   33  157 1    
    69   33  158 1    
    70   34   35 am   BACKBONE|DICT|INTERRES
    71   34  159 1    
    72   35   36 2    
    73   35   37 1    
    74   37   38 1    
    75   37   39 1    
    76   37  160 1    
    77   38  161 1    
    78   38  162 1    
    79   38  163 1    
    80   39   40 am   BACKBONE|DICT|INTERRES
    81   39  164 1    
    82   40   41 2    
    83   40   42 1    
    84   42   43 1    
    85   42   44 1    
    86   42  165 1    
    87   43  166 1    
    88   43  167 1    
    89   43  168 1    
    90   44   45 am   BACKBONE|DICT|INTERRES
    91   44  169 1    
    92   45   46 2    
    93   45   47 1    
    94   47   48 1    
    95   47   49 1    
    96   47  170 1    
    97   48  171 1    
    98   48  172 1    
    99   48  173 1    
   100   49   50 am   BACKBONE|DICT|INTERRES
   101   49  174 1    
   102   50   51 2    
   103   50   52 1    
   104   52   53 1    
   105   52   54 1    
   106   52  175 1    
   107   53  176 1    
   108   53  177 1    
   109   53  178 1    
   110   54   55 am   BACKBONE|DICT|INTERRES
   111   54  179 1    
   112   55   56 2    
   113   55   57 1    
   114   57   58 1    
   115   57   59 1    
   116   57  180 1    
   117   58  181 1    
   118   58  182 1    
   119   58  183 1    
   120   59   60 am   BACKBONE|DICT|INTERRES
   121   59  184 1    
   122   60   61 2    
   123   60   62 1    
   124   62   63 1    
   125   62   64 1    
   126   62  185 1    
   127   63  186 1    
   128   63  187 1    
   129   63  188 1    
   130   64   65 am   BACKBONE|DICT|INTERRES
   131   64  189 1    
   132   65   66 2    
   133   67   68 2    
   134   67   69 am   BACKBONE|DICT|INTERRES
   135   69   70 1    
   136   69  190 1    
   137   70   71 1    
   138   70   72 1    
   139   70  191 1    
   140   71  192 1    
   141   71  193 1    
   142   71  194 1    
   143   72   73 2    
   144   72   74 am   BACKBONE|DICT|INTERRES
   145   74   75 1    
   146   74  195 1    
   147   75   76 1    
   148   75   77 1    
   149   75  196 1    
   150   76  197 1    
   151   76  198 1    
   152   76  199 1    
   153   77   78 2    
   154   77   79 am   BACKBONE|DICT|INTERRES
   155   79   80 1    
   156   79  200 1    
   157   80   81 1    
   158   80   82 1    
   159   80  201 1    
   160   81  202 1    
   161   81  203 1    
   162   81  204 1    
   163   82   83 2    
   164   82   84 am   BACKBONE|DICT|INTERRES
   165   84   85 1    
   166   84  205 1    
   167   85   86 1    
   168   85   87 1    
   169   85  206 1    
   170   86  207 1    
   171   86  208 1    
   172   86  209 1    
   173   87   88 2    
   174   87   89 am   BACKBONE|DICT|INTERRES
   175   89   90 1    
   176   89  210 1    
   177   90   91 1    
   178   90   92 1    
   179   90  211 1    
   180   91  212 1    
   181   91  213 1    
   182   91  214 1    
   183   92   93 2    
   184   92   94 am   BACKBONE|DICT|INTERRES
   185   94   95 1    
   186   94  215 1    
   187   95   96 1    
   188   95   97 1    
   189   95  216 1    
   190   96  217 1    
   191   96  218 1    
   192   96  219 1    
   193   97   98 2    
   194   97   99 am   BACKBONE|DICT|INTERRES
   195   99  100 1    
   196   99  220 1    
   197  100  101 1    
   198  100  102 1    
   199  100  221 1    
   200  101  222 1    
   201  101  223 1    
   202  101  224 1    
   203  102  103 2    
   204  102  104 am   BACKBONE|DICT|INTERRES
   205  104  105 1    
   206  104  225 1    
   207  105  106 1    
   208  105  107 1    
   209  105  226 1    
   210  106  227 1    
   211  106  228 1    
   212  106  229 1    
   213  107  108 2    
   214  107  109 am   BACKBONE|DICT|INTERRES
   215  109  110 1    
   216  109  230 1    
   217  110  111 1    
   218  110  112 1    
   219  110  231 1    
   220  111  232 1    
   221  111  233 1    
   222  111  234 1    
   223  112  113 2    
   224  112  114 am   BACKBONE|DICT|INTERRES
   225  114  115 1    
   226  114  235 1    
   227  115  116 1    
   228  115  117 1    
   229  115  236 1    
   230  116  237 1    
   231  116  238 1    
   232  116  239 1    
   233  117  118 2    
   234  117  119 am   BACKBONE|DICT|INTERRES
   235  119  120 1    
   236  119  240 1    
   237  120  121 1    
   238  120  124 1    
   239  120  241 1    
   240  121  122 am   BACKBONE|DICT|INTERRES
   241  121  123 2    
   242  122  242 1    
   243  122  243 1    
   244  124  125 1    
   245  124  244 1    
   246  124  245 1    
   247  125  126 1    
   248  126  246 1    
   249  126  247 1    
@<TRIPOS>SUBSTRUCTURE
     1 UNK         1 GROUP             0       ****    0 ROOT    
