@<TRIPOS>MOLECULE
3R540
247   249    1
SMALL
USER_CHARGES


@<TRIPOS>ATOM
      1 CA         -5.3074  -16.1437  -46.2843 C.3       0 UNK        -0.1800 
      2 C          -4.1589  -15.1544  -46.4151 C.2       0 UNK         0.5000 
      3 O          -4.3801  -13.9951  -46.7676 O.2       0 UNK        -0.5000 
      4 N          -2.9326  -15.5992  -46.1161 N.am      1 UNK        -0.5000 
      5 CA         -1.6952  -14.8107  -46.1701 C.3       1 UNK         0.1400 
      6 C6         -0.4475  -15.7120  -46.3476 C.3       23 UNK        -0.0398 
      7 S7         -0.5188  -16.7705  -47.8300 S.3       23 UNK        -0.2404 
      8 C8          0.4819  -15.8099  -49.0044 C.3       23 UNK        -0.0205 
      9 C9          0.9034  -16.6630  -50.1893 C.ar      23 UNK        -0.0193 
     10 C10         0.0910  -16.7625  -51.3231 C.ar      23 UNK        -0.1150 
     11 C11         0.4894  -17.5429  -52.4136 C.ar      23 UNK        -0.0193 
     12 C12         1.7112  -18.2202  -52.3647 C.ar      23 UNK        -0.1150 
     13 C13         2.5218  -18.1435  -51.2303 C.ar      23 UNK        -0.0193 
     14 C14         2.1171  -17.3542  -50.1500 C.ar      23 UNK        -0.1150 
     15 C15         3.8316  -18.9168  -51.1716 C.3       23 UNK        -0.0205 
     16 S16         3.5703  -20.7013  -50.9030 S.3       23 UNK        -0.2404 
     17 C17         2.8245  -20.7108  -49.2371 C.3       23 UNK        -0.0398 
     18 CA          1.9296  -21.9387  -48.9394 C.3       11 UNK         0.1400 
     19 N           1.7291  -22.0512  -47.4958 N.am      11 UNK        -0.5000 
     20 C           1.4483  -23.1826  -46.8391 C.2       10 UNK         0.5000 
     21 O           1.4183  -24.2892  -47.3752 O.2       10 UNK        -0.5000 
     22 CA          1.1354  -23.0611  -45.3330 C.3       10 UNK         0.1400 
     23 CB          2.3394  -23.5134  -44.4939 C.3       10 UNK        -0.1800 
     24 N           0.7494  -21.7091  -44.9138 N.am      10 UNK        -0.5000 
     25 C          -0.3420  -21.0506  -45.3313 C.2       9 UNK         0.5000 
     26 O          -1.1908  -21.5470  -46.0699 O.2       9 UNK        -0.5000 
     27 CA         -0.4954  -19.5783  -44.9088 C.3       9 UNK         0.1400 
     28 CB         -1.4848  -19.4537  -43.7430 C.3       9 UNK        -0.1800 
     29 N           0.7671  -18.9195  -44.5611 N.am      9 UNK        -0.5000 
     30 C           1.7940  -18.7458  -45.4071 C.2       8 UNK         0.5000 
     31 O           1.8067  -19.1756  -46.5601 O.2       8 UNK        -0.5000 
     32 CA          3.0261  -18.0009  -44.8710 C.3       8 UNK         0.1400 
     33 CB          2.9515  -16.5111  -45.2350 C.3       8 UNK        -0.1800 
     34 N           3.2213  -18.1424  -43.4255 N.am      8 UNK        -0.5000 
     35 C           3.5985  -19.2805  -42.8260 C.2       7 UNK         0.5000 
     36 O           3.6961  -20.3559  -43.4180 O.2       7 UNK        -0.5000 
     37 CA          3.9322  -19.2172  -41.3281 C.3       7 UNK         0.1400 
     38 CB          5.3321  -18.6208  -41.1080 C.3       7 UNK        -0.1800 
     39 N           2.9505  -18.4458  -40.5641 N.am      7 UNK        -0.5000 
     40 C           2.4406  -18.8348  -39.3852 C.2       6 UNK         0.5000 
     41 O           2.7286  -19.8999  -38.8369 O.2       6 UNK        -0.5000 
     42 CA          1.4534  -17.8839  -38.6739 C.3       6 UNK         0.1400 
     43 CB          2.1594  -17.1384  -37.5306 C.3       6 UNK        -0.1800 
     44 N           0.8330  -16.9001  -39.5596 N.am      6 UNK        -0.5000 
     45 C          -0.0325  -17.1861  -40.5396 C.2       5 UNK         0.5000 
     46 O          -0.4693  -18.3163  -40.7524 O.2       5 UNK        -0.5000 
     47 CA         -0.4580  -16.0265  -41.4612 C.3       5 UNK         0.1400 
     48 CB         -1.8838  -15.5678  -41.1232 C.3       5 UNK        -0.1800 
     49 N           0.4334  -14.8588  -41.4643 N.am      5 UNK        -0.5000 
     50 C           1.7278  -14.8626  -41.8127 C.2       4 UNK         0.5000 
     51 O           2.3737  -15.8952  -42.0055 O.2       4 UNK        -0.5000 
     52 CA          2.3968  -13.4888  -41.9828 C.3       4 UNK         0.1400 
     53 CB          3.7516  -13.5704  -42.7164 C.3       4 UNK        -0.1800 
     54 N           1.5019  -12.5614  -42.6788 N.am      4 UNK        -0.5000 
     55 C           1.5808  -11.2257  -42.5953 C.2       3 UNK         0.5000 
     56 O           2.3877  -10.6386  -41.8726 O.2       3 UNK        -0.5000 
     57 CA          0.6182  -10.3884  -43.4644 C.3       3 UNK         0.1400 
     58 CB          1.3224   -9.9374  -44.7535 C.3       3 UNK        -0.1800 
     59 N          -0.6213  -11.0770  -43.8237 N.am      3 UNK        -0.5000 
     60 C          -1.5895  -11.4163  -42.9635 C.2       2 UNK         0.5000 
     61 O          -1.5577  -11.1481  -41.7620 O.2       2 UNK        -0.5000 
     62 CA         -2.7925  -12.1998  -43.5283 C.3       2 UNK         0.1400 
     63 CB         -3.9579  -11.2423  -43.8205 C.3       2 UNK        -0.1800 
     64 N          -2.5438  -13.0118  -44.7274 N.am      2 UNK        -0.5000 
     65 C          -1.5706  -13.9135  -44.9178 C.2       1 UNK         0.5000 
     66 O          -0.6260  -14.0685  -44.1442 O.2       1 UNK        -0.5000 
     67 C           0.5829  -21.8744  -49.7040 C.2       11 UNK         0.5000 
     68 O           0.5677  -22.1256  -50.9095 O.2       11 UNK        -0.5000 
     69 N          -0.5181  -21.5402  -49.0134 N.am      12 UNK        -0.5000 
     70 CA         -1.8109  -21.2409  -49.6185 C.3       12 UNK         0.1400 
     71 CB         -1.9144  -19.7211  -49.8538 C.3       12 UNK        -0.1800 
     72 C          -2.9524  -21.8226  -48.7683 C.2       12 UNK         0.5000 
     73 O          -3.2061  -23.0266  -48.8341 O.2       12 UNK        -0.5000 
     74 N          -3.6364  -20.9562  -48.0093 N.am      13 UNK        -0.5000 
     75 CA         -4.8990  -21.2140  -47.3164 C.3       13 UNK         0.1400 
     76 CB         -5.3383  -19.9308  -46.5963 C.3       13 UNK        -0.1800 
     77 C          -4.8983  -22.4007  -46.3364 C.2       13 UNK         0.5000 
     78 O          -5.8928  -23.1239  -46.2784 O.2       13 UNK        -0.5000 
     79 N          -3.7964  -22.6090  -45.6031 N.am      14 UNK        -0.5000 
     80 CA         -3.6678  -23.7055  -44.6361 C.3       14 UNK         0.1400 
     81 CB         -2.6051  -23.3585  -43.5838 C.3       14 UNK        -0.1800 
     82 C          -3.3717  -25.0605  -45.3083 C.2       14 UNK         0.5000 
     83 O          -3.6160  -26.1010  -44.6974 O.2       14 UNK        -0.5000 
     84 N          -2.8977  -25.0296  -46.5617 N.am      15 UNK        -0.5000 
     85 CA         -2.7763  -26.1948  -47.4409 C.3       15 UNK         0.1400 
     86 CB         -1.5372  -26.0167  -48.3337 C.3       15 UNK        -0.1800 
     87 C          -4.0481  -26.4127  -48.2900 C.2       15 UNK         0.5000 
     88 O          -4.0824  -27.3472  -49.0912 O.2       15 UNK        -0.5000 
     89 N          -5.0595  -25.5478  -48.1084 N.am      16 UNK        -0.5000 
     90 CA         -6.3428  -25.4897  -48.8139 C.3       16 UNK         0.1400 
     91 CB         -7.1708  -26.7687  -48.5691 C.3       16 UNK        -0.1800 
     92 C          -6.2149  -25.1313  -50.3098 C.2       16 UNK         0.5000 
     93 O          -7.1217  -25.4363  -51.0870 O.2       16 UNK        -0.5000 
     94 N          -5.1120  -24.4740  -50.6924 N.am      17 UNK        -0.5000 
     95 CA         -4.8912  -23.9643  -52.0416 C.3       17 UNK         0.1400 
     96 CB         -3.3880  -23.9876  -52.3591 C.3       17 UNK        -0.1800 
     97 C          -5.4676  -22.5448  -52.1614 C.2       17 UNK         0.5000 
     98 O          -5.2445  -21.7128  -51.2788 O.2       17 UNK        -0.5000 
     99 N          -6.1936  -22.2976  -53.2569 N.am      18 UNK        -0.5000 
    100 CA        -6.7255  -20.9879  -53.6310 C.3       18 UNK         0.1400 
    101 CB        -7.7813  -21.1931  -54.7299 C.3       18 UNK        -0.1800 
    102 C         -5.6164  -20.0433  -54.1303 C.2       18 UNK         0.5000 
    103 O         -4.5311  -20.5046  -54.4905 O.2       18 UNK        -0.5000 
    104 N         -5.9361  -18.7448  -54.2173 N.am      19 UNK        -0.5000 
    105 CA        -5.0430  -17.6770  -54.6874 C.3       19 UNK         0.1400 
    106 CB        -5.7836  -16.3336  -54.6053 C.3       19 UNK        -0.1800 
    107 C         -4.4797  -17.8921  -56.1088 C.2       19 UNK         0.5000 
    108 O         -3.3629  -17.4606  -56.3952 O.2       19 UNK        -0.5000 
    109 N         -5.2566  -18.5682  -56.9651 N.am      20 UNK        -0.5000 
    110 CA        -4.8572  -18.9592  -58.3166 C.3       20 UNK         0.1400 
    111 CB        -6.1225  -19.1156  -59.1747 C.3       20 UNK        -0.1800 
    112 C         -4.0275  -20.2590  -58.3496 C.2       20 UNK         0.5000 
    113 O         -3.3314  -20.4970  -59.3373 O.2       20 UNK        -0.5000 
    114 N         -4.1243  -21.0853  -57.2986 N.am      21 UNK        -0.5000 
    115 CA        -3.4656  -22.3880  -57.2042 C.3       21 UNK         0.1400 
    116 CB        -4.3510  -23.3527  -56.3997 C.3       21 UNK        -0.1800 
    117 C         -2.0672  -22.2842  -56.5754 C.2       21 UNK         0.5000 
    118 O         -1.1671  -23.0105  -56.9989 O.2       21 UNK        -0.5000 
    119 N         -1.8989  -21.3892  -55.5913 N.am      22 UNK        -0.5000 
    120 CA        -0.6069  -21.1233  -54.9333 C.3       22 UNK         0.1400 
    121 C          0.4382  -20.3662  -55.8058 C.2       22 UNK         0.5000 
    122 N          0.0609  -19.7683  -56.9296 N.am      22 UNK        -0.7600 
    123 O          1.6165  -20.3320  -55.4633 O.2       22 UNK        -0.5000 
    124 C124       -0.7736  -20.4817  -53.5313 C.3       23 UNK        -0.0398 
    125 S125       -1.6911  -18.9017  -53.5024 S.3       23 UNK        -0.2404 
    126 C126       -0.3869  -17.6375  -53.6533 C.3       23 UNK        -0.0205 
    127 H127       -6.1267  -15.6967  -45.7213 H         1 UNK         0.0600 
    128 H128       -4.9990  -17.0514  -45.7659 H         1 UNK         0.0600 
    129 H129       -5.6797  -16.4194  -47.2708 H         1 UNK         0.0600 
    130 H130       -2.8180  -16.5583  -45.8245 H         1 UNK         0.3000 
    131 H131       -1.7430  -14.1453  -47.0348 H         1 UNK         0.0600 
    132 H132        0.4579  -15.1044  -46.3858 H         1 UNK         0.0800 
    133 H133       -0.3309  -16.3679  -45.4836 H         1 UNK         0.0800 
    134 H134       -0.0885  -14.9440  -49.3436 H         1 UNK         0.0800 
    135 H135        1.3701  -15.4203  -48.5049 H         1 UNK         0.0800 
    136 H136       -0.8528  -16.2366  -51.3554 H         1 UNK         0.1150 
    137 H137        2.0270  -18.8238  -53.2043 H         1 UNK         0.1150 
    138 H138        2.7395  -17.2896  -49.2682 H         1 UNK         0.1150 
    139 H139        4.3740  -18.7768  -52.1077 H         1 UNK         0.0800 
    140 H140        4.4769  -18.5252  -50.3836 H         1 UNK         0.0800 
    141 H141        2.2549  -19.7976  -49.0726 H         1 UNK         0.0800 
    142 H142        3.6520  -20.6730  -48.5270 H         1 UNK         0.0800 
    143 H143        2.4560  -22.8325  -49.2814 H         1 UNK         0.0600 
    144 H144        1.7381  -21.1750  -46.9836 H         1 UNK         0.3000 
    145 H145        0.3042  -23.7366  -45.1281 H         1 UNK         0.0600 
    146 H146        2.1063  -23.4999  -43.4291 H         1 UNK         0.0600 
    147 H147        2.6343  -24.5322  -44.7488 H         1 UNK         0.0600 
    148 H148        3.2053  -22.8702  -44.6561 H         1 UNK         0.0600 
    149 H149        1.4104  -21.2170  -44.3283 H         1 UNK         0.3000 
    150 H150       -0.9156  -19.0471  -45.7649 H         1 UNK         0.0600 
    151 H151       -2.4489  -19.8956  -43.9989 H         1 UNK         0.0600 
    152 H152       -1.6666  -18.4103  -43.4860 H         1 UNK         0.0600 
    153 H153       -1.1182  -19.9627  -42.8508 H         1 UNK         0.0600 
    154 H154        0.8594  -18.5712  -43.6183 H         1 UNK         0.3000 
    155 H155        3.9000  -18.4239  -45.3711 H         1 UNK         0.0600 
    156 H156        3.8724  -15.9962  -44.9622 H         1 UNK         0.0600 
    157 H157        2.8104  -16.3765  -46.3084 H         1 UNK         0.0600 
    158 H158        2.1246  -16.0129  -44.7288 H         1 UNK         0.0600 
    159 H159        3.1096  -17.2931  -42.8762 H         1 UNK         0.3000 
    160 H160        3.9506  -20.2517  -40.9784 H         1 UNK         0.0600 
    161 H161        5.3765  -17.5751  -41.4153 H         1 UNK         0.0600 
    162 H162        6.0851  -19.1654  -41.6792 H         1 UNK         0.0600 
    163 H163        5.6203  -18.6729  -40.0580 H         1 UNK         0.0600 
    164 H164        2.6589  -17.5563  -40.9561 H         1 UNK         0.3000 
    165 H165        0.6604  -18.4991  -38.2437 H         1 UNK         0.0600 
    166 H166        1.4585  -16.5194  -36.9701 H         1 UNK         0.0600 
    167 H167        2.6080  -17.8386  -36.8246 H         1 UNK         0.0600 
    168 H168        2.9558  -16.4930  -37.9034 H         1 UNK         0.0600 
    169 H169        1.1413  -15.9440  -39.4643 H         1 UNK         0.3000 
    170 H170       -0.4648  -16.4224  -42.4787 H         1 UNK         0.0600 
    171 H171       -2.5775  -16.4097  -41.1165 H         1 UNK         0.0600 
    172 H172       -1.9317  -15.0923  -40.1429 H         1 UNK         0.0600 
    173 H173       -2.2507  -14.8576  -41.8622 H         1 UNK         0.0600 
    174 H174       -0.0115  -13.9639  -41.3214 H         1 UNK         0.3000 
    175 H175        2.5767  -13.1177  -40.9719 H         1 UNK         0.0600 
    176 H176        4.4293  -14.2690  -42.2241 H         1 UNK         0.0600 
    177 H177        3.6251  -13.9004  -43.7473 H         1 UNK         0.0600 
    178 H178        4.2519  -12.6024  -42.7365 H         1 UNK         0.0600 
    179 H179        0.7923  -12.9872  -43.2710 H         1 UNK         0.3000 
    180 H180        0.3534   -9.4973  -42.8914 H         1 UNK         0.0600 
    181 H181        1.5941  -10.7871  -45.3811 H         1 UNK         0.0600 
    182 H182        2.2387   -9.3900  -44.5279 H         1 UNK         0.0600 
    183 H183        0.6863   -9.2745  -45.3403 H         1 UNK         0.0600 
    184 H184       -0.7270  -11.3500  -44.7893 H         1 UNK         0.3000 
    185 H185       -3.1164  -12.8855  -42.7446 H         1 UNK         0.0600 
    186 H186       -4.2032  -10.6412  -42.9438 H         1 UNK         0.0600 
    187 H187       -3.7175  -10.5560  -44.6334 H         1 UNK         0.0600 
    188 H188       -4.8588  -11.7897  -44.0988 H         1 UNK         0.0600 
    189 H189       -3.2789  -12.9973  -45.4277 H         1 UNK         0.3000 
    190 H190       -0.4733  -21.4543  -48.0045 H         1 UNK         0.3000 
    191 H191       -1.8871  -21.7240  -50.5915 H         1 UNK         0.0600 
    192 H192       -1.8205  -19.1564  -48.9270 H         1 UNK         0.0600 
    193 H193       -2.8650  -19.4570  -50.3194 H         1 UNK         0.0600 
    194 H194       -1.1242  -19.3785  -50.5217 H         1 UNK         0.0600 
    195 H195       -3.3282  -19.9959  -48.0136 H         1 UNK         0.3000 
    196 H196       -5.6389  -21.4387  -48.0877 H         1 UNK         0.0600 
    197 H197       -6.2892  -20.0747  -46.0813 H         1 UNK         0.0600 
    198 H198       -5.4749  -19.1112  -47.3018 H         1 UNK         0.0600 
    199 H199       -4.6050  -19.6182  -45.8518 H         1 UNK         0.0600 
    200 H200       -2.9712  -22.0365  -45.7644 H         1 UNK         0.3000 
    201 H201       -4.6190  -23.8103  -44.1093 H         1 UNK         0.0600 
    202 H202       -2.8056  -22.3929  -43.1196 H         1 UNK         0.0600 
    203 H203       -1.6074  -23.3263  -44.0129 H         1 UNK         0.0600 
    204 H204       -2.5901  -24.1048  -42.7887 H         1 UNK         0.0600 
    205 H205       -2.7572  -24.1298  -47.0065 H         1 UNK         0.3000 
    206 H206       -2.6305  -27.0966  -46.8431 H         1 UNK         0.0600 
    207 H207       -0.6338  -25.9353  -47.7309 H         1 UNK         0.0600 
    208 H208       -1.4031  -26.8712  -48.9979 H         1 UNK         0.0600 
    209 H209       -1.6063  -25.1251  -48.9573 H         1 UNK         0.0600 
    210 H210       -4.9224  -24.8120  -47.4282 H         1 UNK         0.3000 
    211 H211       -6.8897  -24.6612  -48.3623 H         1 UNK         0.0600 
    212 H212       -6.7367  -27.6359  -49.0670 H         1 UNK         0.0600 
    213 H213       -8.1881  -26.6540  -48.9448 H         1 UNK         0.0600 
    214 H214       -7.2441  -26.9932  -47.5049 H         1 UNK         0.0600 
    215 H215       -4.4449  -24.1785  -49.9867 H         1 UNK         0.3000 
    216 H216       -5.3893  -24.6115  -52.7669 H         1 UNK         0.0600 
    217 H217       -2.8079  -23.4640  -51.6028 H         1 UNK         0.0600 
    218 H218       -3.1774  -23.5170  -53.3202 H         1 UNK         0.0600 
    219 H219       -3.0160  -25.0110  -52.4076 H         1 UNK         0.0600 
    220 H220       -6.3203  -23.0354  -53.9331 H         1 UNK         0.3000 
    221 H221       -7.2005  -20.5374  -52.7570 H         1 UNK         0.0600 
    222 H222       -8.5776  -21.8565  -54.3916 H         1 UNK         0.0600 
    223 H223       -7.3458  -21.6260  -55.6318 H         1 UNK         0.0600 
    224 H224       -8.2494  -20.2493  -55.0120 H         1 UNK         0.0600 
    225 H225       -6.8558  -18.4519  -53.9206 H         1 UNK         0.3000 
    226 H226       -4.1975  -17.6330  -54.0010 H         1 UNK         0.0600 
    227 H227       -6.1002  -16.1185  -53.5845 H         1 UNK         0.0600 
    228 H228       -5.1394  -15.5124  -54.9230 H         1 UNK         0.0600 
    229 H229       -6.6687  -16.3221  -55.2426 H         1 UNK         0.0600 
    230 H230       -6.1671  -18.8707  -56.6524 H         1 UNK         0.3000 
    231 H231       -4.2471  -18.1661  -58.7544 H         1 UNK         0.0600 
    232 H232       -6.7777  -19.8974  -58.7880 H         1 UNK         0.0600 
    233 H233       -5.8684  -19.3789  -60.2023 H         1 UNK         0.0600 
    234 H234       -6.6920  -18.1867  -59.2105 H         1 UNK         0.0600 
    235 H235       -4.6229  -20.7772  -56.4727 H         1 UNK         0.3000 
    236 H236       -3.3500  -22.8071  -58.2062 H         1 UNK         0.0600 
    237 H237       -4.4755  -23.0213  -55.3703 H         1 UNK         0.0600 
    238 H238       -5.3411  -23.4460  -56.8461 H         1 UNK         0.0600 
    239 H239       -3.9113  -24.3503  -56.3696 H         1 UNK         0.0600 
    240 H240       -2.6954  -20.8526  -55.2614 H         1 UNK         0.3000 
    241 H241       -0.1525  -22.0997  -54.7531 H         1 UNK         0.0600 
    242 H242        0.7456  -19.2889  -57.4922 H         1 UNK         0.3800 
    243 H243       -0.9049  -19.7827  -57.2149 H         1 UNK         0.3800 
    244 H244        0.1914  -20.3672  -53.0390 H         1 UNK         0.0800 
    245 H245       -1.3273  -21.1757  -52.8986 H         1 UNK         0.0800 
    246 H246       -0.8651  -16.6731  -53.8303 H         1 UNK         0.0800 
    247 H247        0.2211  -17.8306  -54.5370 H         1 UNK         0.0800 
@<TRIPOS>BOND
     1    1    2 1    
     2    1  127 1    
     3    1  128 1    
     4    1  129 1    
     5    2    3 2    
     6    2    4 am   BACKBONE|DICT|INTERRES
     7    4    5 1    
     8    4  130 1    
     9    5    6 1    
    10    5   65 1    
    11    5  131 1    
    12    6    7 1    
    13    6  132 1    
    14    6  133 1    
    15    7    8 1    
    16    8    9 1    
    17    8  134 1    
    18    8  135 1    
    19    9   10 ar   
    20    9   14 ar   
    21   10   11 ar   
    22   10  136 1    
    23   11   12 ar   
    24   11  126 1    
    25   12   13 ar   
    26   12  137 1    
    27   13   14 ar   
    28   13   15 1    
    29   14  138 1    
    30   15   16 1    
    31   15  139 1    
    32   15  140 1    
    33   16   17 1    
    34   17   18 1    
    35   17  141 1    
    36   17  142 1    
    37   18   19 1    
    38   18   67 1    
    39   18  143 1    
    40   19   20 am   BACKBONE|DICT|INTERRES
    41   19  144 1    
    42   20   21 2    
    43   20   22 1    
    44   22   23 1    
    45   22   24 1    
    46   22  145 1    
    47   23  146 1    
    48   23  147 1    
    49   23  148 1    
    50   24   25 am   BACKBONE|DICT|INTERRES
    51   24  149 1    
    52   25   26 2    
    53   25   27 1    
    54   27   28 1    
    55   27   29 1    
    56   27  150 1    
    57   28  151 1    
    58   28  152 1    
    59   28  153 1    
    60   29   30 am   BACKBONE|DICT|INTERRES
    61   29  154 1    
    62   30   31 2    
    63   30   32 1    
    64   32   33 1    
    65   32   34 1    
    66   32  155 1    
    67   33  156 1    
    68   33  157 1    
    69   33  158 1    
    70   34   35 am   BACKBONE|DICT|INTERRES
    71   34  159 1    
    72   35   36 2    
    73   35   37 1    
    74   37   38 1    
    75   37   39 1    
    76   37  160 1    
    77   38  161 1    
    78   38  162 1    
    79   38  163 1    
    80   39   40 am   BACKBONE|DICT|INTERRES
    81   39  164 1    
    82   40   41 2    
    83   40   42 1    
    84   42   43 1    
    85   42   44 1    
    86   42  165 1    
    87   43  166 1    
    88   43  167 1    
    89   43  168 1    
    90   44   45 am   BACKBONE|DICT|INTERRES
    91   44  169 1    
    92   45   46 2    
    93   45   47 1    
    94   47   48 1    
    95   47   49 1    
    96   47  170 1    
    97   48  171 1    
    98   48  172 1    
    99   48  173 1    
   100   49   50 am   BACKBONE|DICT|INTERRES
   101   49  174 1    
   102   50   51 2    
   103   50   52 1    
   104   52   53 1    
   105   52   54 1    
   106   52  175 1    
   107   53  176 1    
   108   53  177 1    
   109   53  178 1    
   110   54   55 am   BACKBONE|DICT|INTERRES
   111   54  179 1    
   112   55   56 2    
   113   55   57 1    
   114   57   58 1    
   115   57   59 1    
   116   57  180 1    
   117   58  181 1    
   118   58  182 1    
   119   58  183 1    
   120   59   60 am   BACKBONE|DICT|INTERRES
   121   59  184 1    
   122   60   61 2    
   123   60   62 1    
   124   62   63 1    
   125   62   64 1    
   126   62  185 1    
   127   63  186 1    
   128   63  187 1    
   129   63  188 1    
   130   64   65 am   BACKBONE|DICT|INTERRES
   131   64  189 1    
   132   65   66 2    
   133   67   68 2    
   134   67   69 am   BACKBONE|DICT|INTERRES
   135   69   70 1    
   136   69  190 1    
   137   70   71 1    
   138   70   72 1    
   139   70  191 1    
   140   71  192 1    
   141   71  193 1    
   142   71  194 1    
   143   72   73 2    
   144   72   74 am   BACKBONE|DICT|INTERRES
   145   74   75 1    
   146   74  195 1    
   147   75   76 1    
   148   75   77 1    
   149   75  196 1    
   150   76  197 1    
   151   76  198 1    
   152   76  199 1    
   153   77   78 2    
   154   77   79 am   BACKBONE|DICT|INTERRES
   155   79   80 1    
   156   79  200 1    
   157   80   81 1    
   158   80   82 1    
   159   80  201 1    
   160   81  202 1    
   161   81  203 1    
   162   81  204 1    
   163   82   83 2    
   164   82   84 am   BACKBONE|DICT|INTERRES
   165   84   85 1    
   166   84  205 1    
   167   85   86 1    
   168   85   87 1    
   169   85  206 1    
   170   86  207 1    
   171   86  208 1    
   172   86  209 1    
   173   87   88 2    
   174   87   89 am   BACKBONE|DICT|INTERRES
   175   89   90 1    
   176   89  210 1    
   177   90   91 1    
   178   90   92 1    
   179   90  211 1    
   180   91  212 1    
   181   91  213 1    
   182   91  214 1    
   183   92   93 2    
   184   92   94 am   BACKBONE|DICT|INTERRES
   185   94   95 1    
   186   94  215 1    
   187   95   96 1    
   188   95   97 1    
   189   95  216 1    
   190   96  217 1    
   191   96  218 1    
   192   96  219 1    
   193   97   98 2    
   194   97   99 am   BACKBONE|DICT|INTERRES
   195   99  100 1    
   196   99  220 1    
   197  100  101 1    
   198  100  102 1    
   199  100  221 1    
   200  101  222 1    
   201  101  223 1    
   202  101  224 1    
   203  102  103 2    
   204  102  104 am   BACKBONE|DICT|INTERRES
   205  104  105 1    
   206  104  225 1    
   207  105  106 1    
   208  105  107 1    
   209  105  226 1    
   210  106  227 1    
   211  106  228 1    
   212  106  229 1    
   213  107  108 2    
   214  107  109 am   BACKBONE|DICT|INTERRES
   215  109  110 1    
   216  109  230 1    
   217  110  111 1    
   218  110  112 1    
   219  110  231 1    
   220  111  232 1    
   221  111  233 1    
   222  111  234 1    
   223  112  113 2    
   224  112  114 am   BACKBONE|DICT|INTERRES
   225  114  115 1    
   226  114  235 1    
   227  115  116 1    
   228  115  117 1    
   229  115  236 1    
   230  116  237 1    
   231  116  238 1    
   232  116  239 1    
   233  117  118 2    
   234  117  119 am   BACKBONE|DICT|INTERRES
   235  119  120 1    
   236  119  240 1    
   237  120  121 1    
   238  120  124 1    
   239  120  241 1    
   240  121  122 am   BACKBONE|DICT|INTERRES
   241  121  123 2    
   242  122  242 1    
   243  122  243 1    
   244  124  125 1    
   245  124  244 1    
   246  124  245 1    
   247  125  126 1    
   248  126  246 1    
   249  126  247 1    
@<TRIPOS>SUBSTRUCTURE
     1 UNK         1 GROUP             0       ****    0 ROOT    
