@<TRIPOS>MOLECULE
3R540
247   249    1
SMALL
USER_CHARGES


@<TRIPOS>ATOM
      1 CA          2.2958  -17.9111  -47.3800 C.3       0 UNK        -0.1800 
      2 C           2.2470  -16.4495  -46.9650 C.2       0 UNK         0.5000 
      3 O           2.9464  -16.0533  -46.0340 O.2       0 UNK        -0.5000 
      4 N           1.4556  -15.6252  -47.6648 N.am      1 UNK        -0.5000 
      5 CA          1.3050  -14.1851  -47.3966 C.3       1 UNK         0.1400 
      6 C6          0.1282  -13.5580  -48.1807 C.3       23 UNK        -0.0398 
      7 S7         -1.4669  -14.2917  -47.6851 S.3       23 UNK        -0.2404 
      8 C8         -2.4175  -14.2728  -49.2350 C.3       23 UNK        -0.0205 
      9 C9         -1.8587  -15.2378  -50.2682 C.ar      23 UNK        -0.0193 
     10 C10        -1.2690  -14.7495  -51.4376 C.ar      23 UNK        -0.1150 
     11 C11        -0.7749  -15.6294  -52.4036 C.ar      23 UNK        -0.0193 
     12 C12        -0.8727  -17.0067  -52.1903 C.ar      23 UNK        -0.1150 
     13 C13        -1.4757  -17.5070  -51.0347 C.ar      23 UNK        -0.0193 
     14 C14        -1.9577  -16.6183  -50.0698 C.ar      23 UNK        -0.1150 
     15 C15        -1.6384  -19.0064  -50.8607 C.3       23 UNK        -0.0205 
     16 S16        -0.2689  -19.7239  -49.9113 S.3       23 UNK        -0.2404 
     17 C17        -0.8912  -19.5957  -48.2026 C.3       23 UNK        -0.0398 
     18 CA         -0.5825  -20.8824  -47.4008 C.3       11 UNK         0.1400 
     19 N          -0.4430  -20.6157  -45.9686 N.am      11 UNK        -0.5000 
     20 C          -0.0242  -21.5131  -45.0658 C.2       10 UNK         0.5000 
     21 O           0.3296  -22.6571  -45.3472 O.2       10 UNK        -0.5000 
     22 CA         -0.0601  -21.0740  -43.5943 C.3       10 UNK         0.1400 
     23 CB          1.1964  -20.2681  -43.2330 C.3       10 UNK        -0.1800 
     24 N          -1.2681  -20.3043  -43.2914 N.am      10 UNK        -0.5000 
     25 C          -2.5005  -20.8347  -43.2635 C.2       9 UNK         0.5000 
     26 O          -2.7300  -22.0347  -43.4107 O.2       9 UNK        -0.5000 
     27 CA         -3.6774  -19.8571  -43.1018 C.3       9 UNK         0.1400 
     28 CB         -3.9459  -19.5601  -41.6194 C.3       9 UNK        -0.1800 
     29 N          -3.4610  -18.6073  -43.8326 N.am      9 UNK        -0.5000 
     30 C          -3.4744  -18.5186  -45.1715 C.2       8 UNK         0.5000 
     31 O          -3.6945  -19.4733  -45.9145 O.2       8 UNK        -0.5000 
     32 CA         -3.1380  -17.1554  -45.8000 C.3       8 UNK         0.1400 
     33 CB         -4.4158  -16.3394  -46.0415 C.3       8 UNK        -0.1800 
     34 N          -2.1978  -16.3646  -45.0096 N.am      8 UNK        -0.5000 
     35 C          -0.9435  -16.7291  -44.7153 C.2       7 UNK         0.5000 
     36 O          -0.4482  -17.8006  -45.0688 O.2       7 UNK        -0.5000 
     37 CA         -0.1098  -15.7497  -43.8660 C.3       7 UNK         0.1400 
     38 CB         -0.7057  -14.3261  -43.7804 C.3       7 UNK        -0.1800 
     39 N           0.1483  -16.2485  -42.5147 N.am      7 UNK        -0.5000 
     40 C          -0.7505  -16.6547  -41.6040 C.2       6 UNK         0.5000 
     41 O          -1.9488  -16.8104  -41.8431 O.2       6 UNK        -0.5000 
     42 CA         -0.2318  -16.8963  -40.1698 C.3       6 UNK         0.1400 
     43 CB          0.0181  -18.3893  -39.9149 C.3       6 UNK        -0.1800 
     44 N           0.9929  -16.1504  -39.8659 N.am      6 UNK        -0.5000 
     45 C           1.0646  -14.8186  -39.7364 C.2       5 UNK         0.5000 
     46 O           0.0806  -14.0776  -39.7457 O.2       5 UNK        -0.5000 
     47 CA          2.4702  -14.1925  -39.6299 C.3       5 UNK         0.1400 
     48 CB          3.5548  -15.1557  -39.0959 C.3       5 UNK        -0.1800 
     49 N           2.8682  -13.5991  -40.9122 N.am      5 UNK        -0.5000 
     50 C           3.0237  -14.2335  -42.0844 C.2       4 UNK         0.5000 
     51 O           2.9262  -15.4560  -42.2167 O.2       4 UNK        -0.5000 
     52 CA          3.2608  -13.3642  -43.3368 C.3       4 UNK         0.1400 
     53 CB          3.6802  -11.9061  -43.0439 C.3       4 UNK        -0.1800 
     54 N           4.1788  -14.0064  -44.2767 N.am      4 UNK        -0.5000 
     55 C           5.4889  -14.2418  -44.1171 C.2       3 UNK         0.5000 
     56 O           6.1371  -13.9166  -43.1216 O.2       3 UNK        -0.5000 
     57 CA          6.2032  -14.9444  -45.2875 C.3       3 UNK         0.1400 
     58 CB          6.2523  -16.4634  -45.0584 C.3       3 UNK        -0.1800 
     59 N           5.5469  -14.6688  -46.5686 N.am      3 UNK        -0.5000 
     60 C           5.7813  -13.5857  -47.3246 C.2       2 UNK         0.5000 
     61 O           6.6456  -12.7474  -47.0658 O.2       2 UNK        -0.5000 
     62 CA          4.8988  -13.3965  -48.5765 C.3       2 UNK         0.1400 
     63 CB          5.5466  -14.0665  -49.7978 C.3       2 UNK        -0.1800 
     64 N           3.5439  -13.9240  -48.4049 N.am      2 UNK        -0.5000 
     65 C           2.6083  -13.3816  -47.6114 C.2       1 UNK         0.5000 
     66 O           2.7563  -12.3115  -47.0214 O.2       1 UNK        -0.5000 
     67 C          -1.6082  -22.0023  -47.6820 C.2       11 UNK         0.5000 
     68 O          -1.2966  -22.9439  -48.4114 O.2       11 UNK        -0.5000 
     69 N          -2.7874  -21.9099  -47.0504 N.am      12 UNK        -0.5000 
     70 CA         -3.8522  -22.9109  -47.1166 C.3       12 UNK         0.1400 
     71 CB         -5.1079  -22.3722  -46.4163 C.3       12 UNK        -0.1800 
     72 C          -3.4448  -24.2716  -46.5258 C.2       12 UNK         0.5000 
     73 O          -3.8411  -25.3012  -47.0668 O.2       12 UNK        -0.5000 
     74 N          -2.6472  -24.2682  -45.4492 N.am      13 UNK        -0.5000 
     75 CA         -2.0853  -25.4822  -44.8561 C.3       13 UNK         0.1400 
     76 CB         -1.4850  -25.1580  -43.4797 C.3       13 UNK        -0.1800 
     77 C          -1.0397  -26.1538  -45.7672 C.2       13 UNK         0.5000 
     78 O          -1.0306  -27.3803  -45.8773 O.2       13 UNK        -0.5000 
     79 N          -0.1833  -25.3417  -46.4004 N.am      14 UNK        -0.5000 
     80 CA          0.8951  -25.7924  -47.2764 C.3       14 UNK         0.1400 
     81 CB          1.9104  -24.6530  -47.4618 C.3       14 UNK        -0.1800 
     82 C           0.3973  -26.3044  -48.6394 C.2       14 UNK         0.5000 
     83 O           0.7696  -27.4072  -49.0427 O.2       14 UNK        -0.5000 
     84 N          -0.4050  -25.4887  -49.3355 N.am      15 UNK        -0.5000 
     85 CA         -0.8110  -25.7229  -50.7244 C.3       15 UNK         0.1400 
     86 CB         -0.7080  -24.3990  -51.4998 C.3       15 UNK        -0.1800 
     87 C          -2.2056  -26.3614  -50.8690 C.2       15 UNK         0.5000 
     88 O          -2.6047  -26.6640  -51.9944 O.2       15 UNK        -0.5000 
     89 N          -2.9179  -26.5759  -49.7531 N.am      16 UNK        -0.5000 
     90 CA         -4.2549  -27.1767  -49.6741 C.3       16 UNK         0.1400 
     91 CB         -4.2017  -28.6703  -50.0716 C.3       16 UNK        -0.1800 
     92 C          -5.3033  -26.3500  -50.4518 C.2       16 UNK         0.5000 
     93 O          -5.2711  -25.1190  -50.3996 O.2       16 UNK        -0.5000 
     94 N          -6.2075  -27.0240  -51.1748 N.am      17 UNK        -0.5000 
     95 CA         -7.2451  -26.4061  -52.0061 C.3       17 UNK         0.1400 
     96 CB         -8.2252  -27.4956  -52.4671 C.3       17 UNK        -0.1800 
     97 C          -6.6920  -25.6300  -53.2198 C.2       17 UNK         0.5000 
     98 O          -7.3839  -24.7571  -53.7446 O.2       17 UNK        -0.5000 
     99 N          -5.4572  -25.9443  -53.6355 N.am      18 UNK        -0.5000 
    100 CA        -4.7542  -25.2960  -54.7425 C.3       18 UNK         0.1400 
    101 CB        -3.7224  -26.2792  -55.3200 C.3       18 UNK        -0.1800 
    102 C         -4.0911  -23.9583  -54.3524 C.2       18 UNK         0.5000 
    103 O         -3.5128  -23.3114  -55.2264 O.2       18 UNK        -0.5000 
    104 N         -4.1710  -23.5622  -53.0708 N.am      19 UNK        -0.5000 
    105 CA        -3.6263  -22.3098  -52.5404 C.3       19 UNK         0.1400 
    106 CB        -3.8470  -22.2644  -51.0191 C.3       19 UNK        -0.1800 
    107 C         -4.2279  -21.0613  -53.2121 C.2       19 UNK         0.5000 
    108 O         -3.4833  -20.1702  -53.6191 O.2       19 UNK        -0.5000 
    109 N         -5.5664  -21.0265  -53.3107 N.am      20 UNK        -0.5000 
    110 CA        -6.4097  -20.0376  -54.0049 C.3       20 UNK         0.1400 
    111 CB        -6.1608  -20.1164  -55.5247 C.3       20 UNK        -0.1800 
    112 C         -6.3162  -18.5741  -53.5094 C.2       20 UNK         0.5000 
    113 O         -7.0244  -17.7178  -54.0423 O.2       20 UNK        -0.5000 
    114 N         -5.4388  -18.2951  -52.5343 N.am      21 UNK        -0.5000 
    115 CA        -5.1030  -16.9813  -51.9684 C.3       21 UNK         0.1400 
    116 CB        -6.2815  -16.4367  -51.1361 C.3       21 UNK        -0.1800 
    117 C         -4.5891  -15.9609  -53.0127 C.2       21 UNK         0.5000 
    118 O         -4.7248  -14.7540  -52.8049 O.2       21 UNK        -0.5000 
    119 N         -4.0506  -16.4660  -54.1337 N.am      22 UNK        -0.5000 
    120 CA        -3.7336  -15.7129  -55.3610 C.3       22 UNK         0.1400 
    121 C         -4.9675  -15.0264  -56.0343 C.2       22 UNK         0.5000 
    122 N         -6.1964  -15.4598  -55.7732 N.am      22 UNK        -0.7600 
    123 O         -4.8172  -14.1101  -56.8384 O.2       22 UNK        -0.5000 
    124 C124       -2.5052  -14.7684  -55.1996 C.3       23 UNK        -0.0398 
    125 S125       -0.9343  -15.6987  -55.1854 S.3       23 UNK        -0.2404 
    126 C126       -0.1233  -15.0948  -53.6700 C.3       23 UNK        -0.0205 
    127 H127        1.7860  -18.5283  -46.6403 H         1 UNK         0.0600 
    128 H128        3.3304  -18.2468  -47.4473 H         1 UNK         0.0600 
    129 H129        1.8282  -18.0683  -48.3514 H         1 UNK         0.0600 
    130 H130        0.8893  -15.9917  -48.4170 H         1 UNK         0.3000 
    131 H131        1.0760  -14.0860  -46.3339 H         1 UNK         0.0600 
    132 H132        0.0645  -12.4844  -47.9937 H         1 UNK         0.0800 
    133 H133        0.2821  -13.6748  -49.2539 H         1 UNK         0.0800 
    134 H134       -3.4505  -14.5477  -49.0175 H         1 UNK         0.0800 
    135 H135       -2.4492  -13.2543  -49.6252 H         1 UNK         0.0800 
    136 H136       -1.1986  -13.6828  -51.5978 H         1 UNK         0.1150 
    137 H137       -0.4963  -17.6905  -52.9383 H         1 UNK         0.1150 
    138 H138       -2.4278  -16.9974  -49.1741 H         1 UNK         0.1150 
    139 H139       -2.5977  -19.2279  -50.3933 H         1 UNK         0.0800 
    140 H140       -1.6597  -19.4889  -51.8382 H         1 UNK         0.0800 
    141 H141       -0.4070  -18.7323  -47.7474 H         1 UNK         0.0800 
    142 H142       -1.9580  -19.3681  -48.1889 H         1 UNK         0.0800 
    143 H143        0.3926  -21.2567  -47.7216 H         1 UNK         0.0600 
    144 H144       -0.6639  -19.6780  -45.6480 H         1 UNK         0.3000 
    145 H145       -0.0656  -21.9780  -42.9815 H         1 UNK         0.0600 
    146 H146        2.1000  -20.7953  -43.5419 H         1 UNK         0.0600 
    147 H147        1.2117  -19.2884  -43.7099 H         1 UNK         0.0600 
    148 H148        1.2676  -20.1234  -42.1575 H         1 UNK         0.0600 
    149 H149       -1.1692  -19.3011  -43.2303 H         1 UNK         0.3000 
    150 H150       -4.5674  -20.3390  -43.5121 H         1 UNK         0.0600 
    151 H151       -4.1750  -20.4774  -41.0756 H         1 UNK         0.0600 
    152 H152       -4.7967  -18.8894  -41.4990 H         1 UNK         0.0600 
    153 H153       -3.0856  -19.1004  -41.1343 H         1 UNK         0.0600 
    154 H154       -3.2093  -17.7924  -43.2837 H         1 UNK         0.3000 
    155 H155       -2.6700  -17.3473  -46.7669 H         1 UNK         0.0600 
    156 H156       -4.1972  -15.4071  -46.5623 H         1 UNK         0.0600 
    157 H157       -4.9179  -16.0920  -45.1054 H         1 UNK         0.0600 
    158 H158       -5.1233  -16.8956  -46.6580 H         1 UNK         0.0600 
    159 H159       -2.5328  -15.4774  -44.6645 H         1 UNK         0.3000 
    160 H160        0.8618  -15.6737  -44.3532 H         1 UNK         0.0600 
    161 H161       -1.6651  -14.3112  -43.2622 H         1 UNK         0.0600 
    162 H162       -0.8536  -13.8942  -44.7700 H         1 UNK         0.0600 
    163 H163       -0.0386  -13.6574  -43.2370 H         1 UNK         0.0600 
    164 H164        1.1202  -16.1848  -42.2247 H         1 UNK         0.3000 
    165 H165       -1.0162  -16.5631  -39.4869 H         1 UNK         0.0600 
    166 H166        0.9029  -18.7393  -40.4437 H         1 UNK         0.0600 
    167 H167        0.1707  -18.5828  -38.8530 H         1 UNK         0.0600 
    168 H168       -0.8267  -18.9990  -40.2371 H         1 UNK         0.0600 
    169 H169        1.8566  -16.6737  -39.8753 H         1 UNK         0.3000 
    170 H170        2.3867  -13.3700  -38.9179 H         1 UNK         0.0600 
    171 H171        3.2641  -15.5734  -38.1312 H         1 UNK         0.0600 
    172 H172        3.7512  -15.9889  -39.7706 H         1 UNK         0.0600 
    173 H173        4.4975  -14.6294  -38.9462 H         1 UNK         0.0600 
    174 H174        2.9418  -12.5916  -40.9126 H         1 UNK         0.3000 
    175 H175        2.3027  -13.3236  -43.8554 H         1 UNK         0.0600 
    176 H176        4.5839  -11.8517  -42.4361 H         1 UNK         0.0600 
    177 H177        3.8715  -11.3643  -43.9706 H         1 UNK         0.0600 
    178 H178        2.8924  -11.3649  -42.5189 H         1 UNK         0.0600 
    179 H179        3.7381  -14.4423  -45.0785 H         1 UNK         0.3000 
    180 H180        7.2309  -14.5766  -45.3217 H         1 UNK         0.0600 
    181 H181        5.2541  -16.8954  -44.9823 H         1 UNK         0.0600 
    182 H182        6.7804  -16.6992  -44.1337 H         1 UNK         0.0600 
    183 H183        6.7762  -16.9682  -45.8700 H         1 UNK         0.0600 
    184 H184        4.7836  -15.2850  -46.8166 H         1 UNK         0.3000 
    185 H185        4.8275  -12.3247  -48.7736 H         1 UNK         0.0600 
    186 H186        4.9683  -13.8803  -50.7030 H         1 UNK         0.0600 
    187 H187        6.5510  -13.6770  -49.9693 H         1 UNK         0.0600 
    188 H188        5.6310  -15.1462  -49.6683 H         1 UNK         0.0600 
    189 H189        3.3364  -14.8018  -48.8582 H         1 UNK         0.3000 
    190 H190       -2.9893  -21.0807  -46.4963 H         1 UNK         0.3000 
    191 H191       -4.0943  -23.0717  -48.1686 H         1 UNK         0.0600 
    192 H192       -5.9228  -23.0956  -46.4631 H         1 UNK         0.0600 
    193 H193       -5.4597  -21.4555  -46.8897 H         1 UNK         0.0600 
    194 H194       -4.9186  -22.1552  -45.3644 H         1 UNK         0.0600 
    195 H195       -2.4090  -23.3868  -45.0095 H         1 UNK         0.3000 
    196 H196       -2.8999  -26.1938  -44.7056 H         1 UNK         0.0600 
    197 H197       -1.0789  -26.0547  -43.0102 H         1 UNK         0.0600 
    198 H198       -2.2404  -24.7525  -42.8065 H         1 UNK         0.0600 
    199 H199       -0.6765  -24.4307  -43.5515 H         1 UNK         0.0600 
    200 H200       -0.2276  -24.3444  -46.2137 H         1 UNK         0.3000 
    201 H201        1.4111  -26.6179  -46.7813 H         1 UNK         0.0600 
    202 H202        2.3486  -24.3588  -46.5079 H         1 UNK         0.0600 
    203 H203        1.4493  -23.7680  -47.9022 H         1 UNK         0.0600 
    204 H204        2.7285  -24.9586  -48.1152 H         1 UNK         0.0600 
    205 H205       -0.6846  -24.5969  -48.9287 H         1 UNK         0.3000 
    206 H206       -0.1161  -26.4194  -51.1979 H         1 UNK         0.0600 
    207 H207        0.3285  -24.0684  -51.5657 H         1 UNK         0.0600 
    208 H208       -1.0800  -24.5006  -52.5202 H         1 UNK         0.0600 
    209 H209       -1.2720  -23.6036  -51.0177 H         1 UNK         0.0600 
    210 H210       -2.5423  -26.2402  -48.8767 H         1 UNK         0.3000 
    211 H211       -4.5582  -27.1398  -48.6289 H         1 UNK         0.0600 
    212 H212       -3.9869  -28.8082  -51.1319 H         1 UNK         0.0600 
    213 H213       -5.1442  -29.1734  -49.8529 H         1 UNK         0.0600 
    214 H214       -3.4281  -29.1934  -49.5092 H         1 UNK         0.0600 
    215 H215       -6.1687  -28.0330  -51.1774 H         1 UNK         0.3000 
    216 H216       -7.7928  -25.6930  -51.3866 H         1 UNK         0.0600 
    217 H217       -9.0317  -27.0688  -53.0649 H         1 UNK         0.0600 
    218 H218       -8.6853  -27.9989  -51.6166 H         1 UNK         0.0600 
    219 H219       -7.7288  -28.2510  -53.0776 H         1 UNK         0.0600 
    220 H220       -4.9341  -26.6399  -53.1210 H         1 UNK         0.3000 
    221 H221       -5.4763  -25.0737  -55.5310 H         1 UNK         0.0600 
    222 H222       -2.9399  -26.5146  -54.5990 H         1 UNK         0.0600 
    223 H223       -4.1937  -27.2146  -55.6221 H         1 UNK         0.0600 
    224 H224       -3.2365  -25.8632  -56.2034 H         1 UNK         0.0600 
    225 H225       -4.6386  -24.1672  -52.4077 H         1 UNK         0.3000 
    226 H226       -2.5521  -22.3069  -52.7340 H         1 UNK         0.0600 
    227 H227       -3.4304  -23.1441  -50.5304 H         1 UNK         0.0600 
    228 H228       -3.3651  -21.3957  -50.5739 H         1 UNK         0.0600 
    229 H229       -4.9060  -22.2227  -50.7620 H         1 UNK         0.0600 
    230 H230       -6.0713  -21.8109  -52.9219 H         1 UNK         0.3000 
    231 H231       -7.4402  -20.3461  -53.8233 H         1 UNK         0.0600 
    232 H232       -6.8655  -19.4908  -56.0739 H         1 UNK         0.0600 
    233 H233       -6.2818  -21.1361  -55.8910 H         1 UNK         0.0600 
    234 H234       -5.1561  -19.7840  -55.7878 H         1 UNK         0.0600 
    235 H235       -4.8571  -19.0617  -52.2275 H         1 UNK         0.3000 
    236 H236       -4.2787  -17.1569  -51.2820 H         1 UNK         0.0600 
    237 H237       -6.6157  -17.1680  -50.4002 H         1 UNK         0.0600 
    238 H238       -5.9927  -15.5384  -50.5890 H         1 UNK         0.0600 
    239 H239       -7.1340  -16.1780  -51.7647 H         1 UNK         0.0600 
    240 H240       -3.9602  -17.4699  -54.2014 H         1 UNK         0.3000 
    241 H241       -3.4562  -16.4734  -56.0917 H         1 UNK         0.0600 
    242 H242       -6.3657  -16.2242  -55.1266 H         1 UNK         0.3800 
    243 H243       -6.9789  -15.0148  -56.2257 H         1 UNK         0.3800 
    244 H244       -2.4280  -14.0673  -56.0314 H         1 UNK         0.0800 
    245 H245       -2.5974  -14.1551  -54.3029 H         1 UNK         0.0800 
    246 H246        0.9202  -15.4118  -53.6826 H         1 UNK         0.0800 
    247 H247       -0.1121  -14.0037  -53.6789 H         1 UNK         0.0800 
@<TRIPOS>BOND
     1    1    2 1    
     2    1  127 1    
     3    1  128 1    
     4    1  129 1    
     5    2    3 2    
     6    2    4 am   BACKBONE|DICT|INTERRES
     7    4    5 1    
     8    4  130 1    
     9    5    6 1    
    10    5   65 1    
    11    5  131 1    
    12    6    7 1    
    13    6  132 1    
    14    6  133 1    
    15    7    8 1    
    16    8    9 1    
    17    8  134 1    
    18    8  135 1    
    19    9   10 ar   
    20    9   14 ar   
    21   10   11 ar   
    22   10  136 1    
    23   11   12 ar   
    24   11  126 1    
    25   12   13 ar   
    26   12  137 1    
    27   13   14 ar   
    28   13   15 1    
    29   14  138 1    
    30   15   16 1    
    31   15  139 1    
    32   15  140 1    
    33   16   17 1    
    34   17   18 1    
    35   17  141 1    
    36   17  142 1    
    37   18   19 1    
    38   18   67 1    
    39   18  143 1    
    40   19   20 am   BACKBONE|DICT|INTERRES
    41   19  144 1    
    42   20   21 2    
    43   20   22 1    
    44   22   23 1    
    45   22   24 1    
    46   22  145 1    
    47   23  146 1    
    48   23  147 1    
    49   23  148 1    
    50   24   25 am   BACKBONE|DICT|INTERRES
    51   24  149 1    
    52   25   26 2    
    53   25   27 1    
    54   27   28 1    
    55   27   29 1    
    56   27  150 1    
    57   28  151 1    
    58   28  152 1    
    59   28  153 1    
    60   29   30 am   BACKBONE|DICT|INTERRES
    61   29  154 1    
    62   30   31 2    
    63   30   32 1    
    64   32   33 1    
    65   32   34 1    
    66   32  155 1    
    67   33  156 1    
    68   33  157 1    
    69   33  158 1    
    70   34   35 am   BACKBONE|DICT|INTERRES
    71   34  159 1    
    72   35   36 2    
    73   35   37 1    
    74   37   38 1    
    75   37   39 1    
    76   37  160 1    
    77   38  161 1    
    78   38  162 1    
    79   38  163 1    
    80   39   40 am   BACKBONE|DICT|INTERRES
    81   39  164 1    
    82   40   41 2    
    83   40   42 1    
    84   42   43 1    
    85   42   44 1    
    86   42  165 1    
    87   43  166 1    
    88   43  167 1    
    89   43  168 1    
    90   44   45 am   BACKBONE|DICT|INTERRES
    91   44  169 1    
    92   45   46 2    
    93   45   47 1    
    94   47   48 1    
    95   47   49 1    
    96   47  170 1    
    97   48  171 1    
    98   48  172 1    
    99   48  173 1    
   100   49   50 am   BACKBONE|DICT|INTERRES
   101   49  174 1    
   102   50   51 2    
   103   50   52 1    
   104   52   53 1    
   105   52   54 1    
   106   52  175 1    
   107   53  176 1    
   108   53  177 1    
   109   53  178 1    
   110   54   55 am   BACKBONE|DICT|INTERRES
   111   54  179 1    
   112   55   56 2    
   113   55   57 1    
   114   57   58 1    
   115   57   59 1    
   116   57  180 1    
   117   58  181 1    
   118   58  182 1    
   119   58  183 1    
   120   59   60 am   BACKBONE|DICT|INTERRES
   121   59  184 1    
   122   60   61 2    
   123   60   62 1    
   124   62   63 1    
   125   62   64 1    
   126   62  185 1    
   127   63  186 1    
   128   63  187 1    
   129   63  188 1    
   130   64   65 am   BACKBONE|DICT|INTERRES
   131   64  189 1    
   132   65   66 2    
   133   67   68 2    
   134   67   69 am   BACKBONE|DICT|INTERRES
   135   69   70 1    
   136   69  190 1    
   137   70   71 1    
   138   70   72 1    
   139   70  191 1    
   140   71  192 1    
   141   71  193 1    
   142   71  194 1    
   143   72   73 2    
   144   72   74 am   BACKBONE|DICT|INTERRES
   145   74   75 1    
   146   74  195 1    
   147   75   76 1    
   148   75   77 1    
   149   75  196 1    
   150   76  197 1    
   151   76  198 1    
   152   76  199 1    
   153   77   78 2    
   154   77   79 am   BACKBONE|DICT|INTERRES
   155   79   80 1    
   156   79  200 1    
   157   80   81 1    
   158   80   82 1    
   159   80  201 1    
   160   81  202 1    
   161   81  203 1    
   162   81  204 1    
   163   82   83 2    
   164   82   84 am   BACKBONE|DICT|INTERRES
   165   84   85 1    
   166   84  205 1    
   167   85   86 1    
   168   85   87 1    
   169   85  206 1    
   170   86  207 1    
   171   86  208 1    
   172   86  209 1    
   173   87   88 2    
   174   87   89 am   BACKBONE|DICT|INTERRES
   175   89   90 1    
   176   89  210 1    
   177   90   91 1    
   178   90   92 1    
   179   90  211 1    
   180   91  212 1    
   181   91  213 1    
   182   91  214 1    
   183   92   93 2    
   184   92   94 am   BACKBONE|DICT|INTERRES
   185   94   95 1    
   186   94  215 1    
   187   95   96 1    
   188   95   97 1    
   189   95  216 1    
   190   96  217 1    
   191   96  218 1    
   192   96  219 1    
   193   97   98 2    
   194   97   99 am   BACKBONE|DICT|INTERRES
   195   99  100 1    
   196   99  220 1    
   197  100  101 1    
   198  100  102 1    
   199  100  221 1    
   200  101  222 1    
   201  101  223 1    
   202  101  224 1    
   203  102  103 2    
   204  102  104 am   BACKBONE|DICT|INTERRES
   205  104  105 1    
   206  104  225 1    
   207  105  106 1    
   208  105  107 1    
   209  105  226 1    
   210  106  227 1    
   211  106  228 1    
   212  106  229 1    
   213  107  108 2    
   214  107  109 am   BACKBONE|DICT|INTERRES
   215  109  110 1    
   216  109  230 1    
   217  110  111 1    
   218  110  112 1    
   219  110  231 1    
   220  111  232 1    
   221  111  233 1    
   222  111  234 1    
   223  112  113 2    
   224  112  114 am   BACKBONE|DICT|INTERRES
   225  114  115 1    
   226  114  235 1    
   227  115  116 1    
   228  115  117 1    
   229  115  236 1    
   230  116  237 1    
   231  116  238 1    
   232  116  239 1    
   233  117  118 2    
   234  117  119 am   BACKBONE|DICT|INTERRES
   235  119  120 1    
   236  119  240 1    
   237  120  121 1    
   238  120  124 1    
   239  120  241 1    
   240  121  122 am   BACKBONE|DICT|INTERRES
   241  121  123 2    
   242  122  242 1    
   243  122  243 1    
   244  124  125 1    
   245  124  244 1    
   246  124  245 1    
   247  125  126 1    
   248  126  246 1    
   249  126  247 1    
@<TRIPOS>SUBSTRUCTURE
     1 UNK         1 GROUP             0       ****    0 ROOT    
