@<TRIPOS>MOLECULE
3R540
247   249    1
SMALL
USER_CHARGES


@<TRIPOS>ATOM
      1 CA         -2.5652  -16.1996  -50.6760 C.3       0 UNK        -0.1800 
      2 C          -1.9651  -14.8246  -50.4354 C.2       0 UNK         0.5000 
      3 O          -2.6627  -13.8208  -50.5866 O.2       0 UNK        -0.5000 
      4 N          -0.6771  -14.7707  -50.0762 N.am      1 UNK        -0.5000 
      5 CA          0.0444  -13.5368  -49.7574 C.3       1 UNK         0.1400 
      6 C6          1.5817  -13.7221  -49.8507 C.3       23 UNK        -0.0398 
      7 S7          2.2793  -14.9519  -48.6928 S.3       23 UNK        -0.2404 
      8 C8          3.0457  -16.1620  -49.8156 C.3       23 UNK        -0.0205 
      9 C9          2.0177  -17.0341  -50.5209 C.ar      23 UNK        -0.0193 
     10 C10         1.6373  -16.7574  -51.8375 C.ar      23 UNK        -0.1150 
     11 C11         0.7300  -17.5866  -52.5030 C.ar      23 UNK        -0.0193 
     12 C12         0.1898  -18.6908  -51.8367 C.ar      23 UNK        -0.1150 
     13 C13         0.5612  -18.9768  -50.5205 C.ar      23 UNK        -0.0193 
     14 C14         1.4783  -18.1472  -49.8697 C.ar      23 UNK        -0.1150 
     15 C15        -0.0068  -20.1925  -49.8078 C.3       23 UNK        -0.0205 
     16 S16         1.1134  -21.6124  -49.9696 S.3       23 UNK        -0.2404 
     17 C17         0.4120  -22.8159  -48.7879 C.3       23 UNK        -0.0398 
     18 CA          1.5475  -23.5716  -48.0513 C.3       11 UNK         0.1400 
     19 N           2.2621  -22.7047  -47.1047 N.am      11 UNK        -0.5000 
     20 C           3.5438  -22.8606  -46.7477 C.2       10 UNK         0.5000 
     21 O           4.2840  -23.7283  -47.2122 O.2       10 UNK        -0.5000 
     22 CA          4.0786  -21.9138  -45.6580 C.3       10 UNK         0.1400 
     23 CB          4.4668  -20.5555  -46.2625 C.3       10 UNK        -0.1800 
     24 N           3.1353  -21.7179  -44.5529 N.am      10 UNK        -0.5000 
     25 C           2.7361  -22.6820  -43.7092 C.2       9 UNK         0.5000 
     26 O           3.1295  -23.8466  -43.7700 O.2       9 UNK        -0.5000 
     27 CA          1.6981  -22.2981  -42.6369 C.3       9 UNK         0.1400 
     28 CB          2.3741  -21.5961  -41.4505 C.3       9 UNK        -0.1800 
     29 N           0.6194  -21.4603  -43.1614 N.am      9 UNK        -0.5000 
     30 C          -0.2638  -21.8606  -44.0880 C.2       8 UNK         0.5000 
     31 O          -0.2884  -22.9944  -44.5651 O.2       8 UNK        -0.5000 
     32 CA         -1.2376  -20.7966  -44.6239 C.3       8 UNK         0.1400 
     33 CB         -2.4113  -20.5731  -43.6585 C.3       8 UNK        -0.1800 
     34 N          -0.5808  -19.5170  -44.8914 N.am      8 UNK        -0.5000 
     35 C           0.4400  -19.3349  -45.7410 C.2       7 UNK         0.5000 
     36 O           0.9041  -20.2231  -46.4543 O.2       7 UNK        -0.5000 
     37 CA          1.0897  -17.9406  -45.7378 C.3       7 UNK         0.1400 
     38 CB          0.2382  -16.9359  -46.5312 C.3       7 UNK        -0.1800 
     39 N           1.3019  -17.4646  -44.3672 N.am      7 UNK        -0.5000 
     40 C           2.1992  -17.9960  -43.5212 C.2       6 UNK         0.5000 
     41 O           3.0017  -18.8680  -43.8491 O.2       6 UNK        -0.5000 
     42 CA          2.1639  -17.5344  -42.0514 C.3       6 UNK         0.1400 
     43 CB          3.2079  -16.4479  -41.7599 C.3       6 UNK        -0.1800 
     44 N           0.8393  -17.0710  -41.6443 N.am      6 UNK        -0.5000 
     45 C          -0.1773  -17.8956  -41.3578 C.2       5 UNK         0.5000 
     46 O          -0.0765  -19.1225  -41.3564 O.2       5 UNK        -0.5000 
     47 CA         -1.5456  -17.2417  -41.0853 C.3       5 UNK         0.1400 
     48 CB         -1.6778  -16.8579  -39.6045 C.3       5 UNK        -0.1800 
     49 N          -1.7837  -16.0592  -41.9169 N.am      5 UNK        -0.5000 
     50 C          -1.8603  -16.0790  -43.2541 C.2       4 UNK         0.5000 
     51 O          -1.7956  -17.1162  -43.9120 O.2       4 UNK        -0.5000 
     52 CA         -2.0003  -14.7295  -43.9860 C.3       4 UNK         0.1400 
     53 CB         -2.7140  -13.6518  -43.1422 C.3       4 UNK        -0.1800 
     54 N          -0.7268  -14.2048  -44.4963 N.am      4 UNK        -0.5000 
     55 C           0.3927  -13.9360  -43.8009 C.2       3 UNK         0.5000 
     56 O           0.5676  -14.2758  -42.6304 O.2       3 UNK        -0.5000 
     57 CA          1.4981  -13.1192  -44.5113 C.3       3 UNK         0.1400 
     58 CB          2.6795  -14.0051  -44.9361 C.3       3 UNK        -0.1800 
     59 N           1.0205  -12.3862  -45.6840 N.am      3 UNK        -0.5000 
     60 C           0.1520  -11.3653  -45.6613 C.2       2 UNK         0.5000 
     61 O          -0.2589  -10.8493  -44.6213 O.2       2 UNK        -0.5000 
     62 CA         -0.3667  -10.8389  -47.0179 C.3       2 UNK         0.1400 
     63 CB          0.1362   -9.4078  -47.2671 C.3       2 UNK        -0.1800 
     64 N          -0.0326  -11.6596  -48.1894 N.am      2 UNK        -0.5000 
     65 C          -0.3995  -12.9316  -48.4040 C.2       1 UNK         0.5000 
     66 O          -1.0177  -13.6099  -47.5770 O.2       1 UNK        -0.5000 
     67 C           1.0591  -24.8901  -47.4033 C.2       11 UNK         0.5000 
     68 O           0.5612  -25.7570  -48.1226 O.2       11 UNK        -0.5000 
     69 N           1.2442  -25.0361  -46.0819 N.am      12 UNK        -0.5000 
     70 CA          0.9576  -26.2048  -45.2455 C.3       12 UNK         0.1400 
     71 CB          1.9336  -27.3519  -45.5792 C.3       12 UNK        -0.1800 
     72 C          -0.5229  -26.6322  -45.2933 C.2       12 UNK         0.5000 
     73 O          -0.8261  -27.8029  -45.5354 O.2       12 UNK        -0.5000 
     74 N          -1.4201  -25.6667  -45.0723 N.am      13 UNK        -0.5000 
     75 CA         -2.8681  -25.8468  -45.1138 C.3       13 UNK         0.1400 
     76 CB         -3.3626  -25.5491  -46.5413 C.3       13 UNK        -0.1800 
     77 C          -3.5537  -24.9633  -44.0584 C.2       13 UNK         0.5000 
     78 O          -2.8982  -24.1539  -43.4003 O.2       13 UNK        -0.5000 
     79 N          -4.8727  -25.1407  -43.9048 N.am      14 UNK        -0.5000 
     80 CA         -5.7149  -24.3831  -42.9706 C.3       14 UNK         0.1400 
     81 CB         -7.0427  -25.1340  -42.7839 C.3       14 UNK        -0.1800 
     82 C          -5.9775  -22.9275  -43.4126 C.2       14 UNK         0.5000 
     83 O          -6.3863  -22.1068  -42.5904 O.2       14 UNK        -0.5000 
     84 N          -5.7409  -22.6378  -44.6948 N.am      15 UNK        -0.5000 
     85 CA         -5.8107  -21.3233  -45.3181 C.3       15 UNK         0.1400 
     86 CB         -7.1739  -21.1607  -46.0116 C.3       15 UNK        -0.1800 
     87 C          -4.6593  -21.2231  -46.3273 C.2       15 UNK         0.5000 
     88 O          -4.0438  -22.2393  -46.6600 O.2       15 UNK        -0.5000 
     89 N          -4.3884  -20.0095  -46.8192 N.am      16 UNK        -0.5000 
     90 CA         -3.3210  -19.6978  -47.7751 C.3       16 UNK         0.1400 
     91 CB         -3.0130  -18.1962  -47.6809 C.3       16 UNK        -0.1800 
     92 C          -3.6498  -20.1618  -49.2117 C.2       16 UNK         0.5000 
     93 O          -3.6852  -19.3518  -50.1393 O.2       16 UNK        -0.5000 
     94 N          -3.9219  -21.4670  -49.3581 N.am      17 UNK        -0.5000 
     95 CA         -4.2522  -22.1995  -50.5891 C.3       17 UNK         0.1400 
     96 CB         -3.0103  -22.2794  -51.5008 C.3       17 UNK        -0.1800 
     97 C          -5.4843  -21.6467  -51.3406 C.2       17 UNK         0.5000 
     98 O          -5.5931  -21.8307  -52.5537 O.2       17 UNK        -0.5000 
     99 N          -6.3523  -20.9134  -50.6231 N.am      18 UNK        -0.5000 
    100 CA        -7.4753  -20.1080  -51.1266 C.3       18 UNK         0.1400 
    101 CB        -8.6014  -21.0284  -51.6407 C.3       18 UNK        -0.1800 
    102 C         -7.0588  -19.0479  -52.1768 C.2       18 UNK         0.5000 
    103 O         -7.8962  -18.6109  -52.9673 O.2       18 UNK        -0.5000 
    104 N         -5.7627  -18.6933  -52.1942 N.am      19 UNK        -0.5000 
    105 CA        -5.0521  -17.9107  -53.2099 C.3       19 UNK         0.1400 
    106 CB        -5.5319  -16.4457  -53.2140 C.3       19 UNK        -0.1800 
    107 C         -5.0549  -18.5391  -54.6237 C.2       19 UNK         0.5000 
    108 O         -4.6905  -17.8600  -55.5840 O.2       19 UNK        -0.5000 
    109 N         -5.4268  -19.8234  -54.7464 N.am      20 UNK        -0.5000 
    110 CA        -5.4809  -20.5503  -56.0175 C.3       20 UNK         0.1400 
    111 CB        -6.3210  -21.8243  -55.8449 C.3       20 UNK        -0.1800 
    112 C         -4.0782  -20.8891  -56.5491 C.2       20 UNK         0.5000 
    113 O         -3.8616  -20.8769  -57.7616 O.2       20 UNK        -0.5000 
    114 N         -3.1369  -21.1305  -55.6253 N.am      21 UNK        -0.5000 
    115 CA        -1.7180  -21.3635  -55.9050 C.3       21 UNK         0.1400 
    116 CB        -1.0309  -21.8392  -54.6155 C.3       21 UNK        -0.1800 
    117 C         -0.9915  -20.1292  -56.4785 C.2       21 UNK         0.5000 
    118 O          0.0729  -20.2812  -57.0787 O.2       21 UNK        -0.5000 
    119 N         -1.5723  -18.9377  -56.2866 N.am      22 UNK        -0.5000 
    120 CA        -1.0642  -17.6570  -56.7989 C.3       22 UNK         0.1400 
    121 C         -1.3902  -17.4017  -58.3008 C.2       22 UNK         0.5000 
    122 N         -2.1844  -18.2329  -58.9672 N.am      22 UNK        -0.7600 
    123 O         -0.9033  -16.4331  -58.8774 O.2       22 UNK        -0.5000 
    124 C124       -1.5204  -16.4584  -55.9214 C.3       23 UNK        -0.0398 
    125 S125       -1.3235  -16.6662  -54.1133 S.3       23 UNK        -0.2404 
    126 C126        0.3663  -17.3211  -53.9548 C.3       23 UNK        -0.0205 
    127 H127       -2.9372  -16.2601  -51.6959 H         1 UNK         0.0600 
    128 H128       -3.4042  -16.3698  -50.0029 H         1 UNK         0.0600 
    129 H129       -1.8363  -16.9969  -50.5319 H         1 UNK         0.0600 
    130 H130       -0.1519  -15.6247  -49.9520 H         1 UNK         0.3000 
    131 H131       -0.2282  -12.8057  -50.5218 H         1 UNK         0.0600 
    132 H132        2.0926  -12.7738  -49.6772 H         1 UNK         0.0800 
    133 H133        1.8453  -13.9966  -50.8720 H         1 UNK         0.0800 
    134 H134        3.6766  -15.6437  -50.5394 H         1 UNK         0.0800 
    135 H135        3.7161  -16.7972  -49.2347 H         1 UNK         0.0800 
    136 H136        2.0646  -15.9093  -52.3534 H         1 UNK         0.1150 
    137 H137       -0.5116  -19.3335  -52.3486 H         1 UNK         0.1150 
    138 H138        1.7863  -18.3805  -48.8601 H         1 UNK         0.1150 
    139 H139       -0.1757  -19.9578  -48.7582 H         1 UNK         0.0800 
    140 H140       -0.9749  -20.4571  -50.2310 H         1 UNK         0.0800 
    141 H141       -0.2448  -22.3163  -48.0736 H         1 UNK         0.0800 
    142 H142       -0.2159  -23.5015  -49.3594 H         1 UNK         0.0800 
    143 H143        2.2613  -23.8914  -48.8140 H         1 UNK         0.0600 
    144 H144        1.7384  -21.9204  -46.7227 H         1 UNK         0.3000 
    145 H145        4.9818  -22.3664  -45.2435 H         1 UNK         0.0600 
    146 H146        4.9380  -19.9132  -45.5185 H         1 UNK         0.0600 
    147 H147        3.6006  -20.0273  -46.6610 H         1 UNK         0.0600 
    148 H148        5.1782  -20.6805  -47.0797 H         1 UNK         0.0600 
    149 H149        2.8039  -20.7694  -44.4091 H         1 UNK         0.3000 
    150 H150        1.2453  -23.2207  -42.2676 H         1 UNK         0.0600 
    151 H151        2.8860  -20.6856  -41.7597 H         1 UNK         0.0600 
    152 H152        1.6494  -21.3310  -40.6804 H         1 UNK         0.0600 
    153 H153        3.1178  -22.2462  -40.9881 H         1 UNK         0.0600 
    154 H154        0.5330  -20.5266  -42.7762 H         1 UNK         0.3000 
    155 H155       -1.6356  -21.1719  -45.5666 H         1 UNK         0.0600 
    156 H156       -2.9883  -21.4885  -43.5293 H         1 UNK         0.0600 
    157 H157       -3.0915  -19.8083  -44.0331 H         1 UNK         0.0600 
    158 H158       -2.0721  -20.2597  -42.6719 H         1 UNK         0.0600 
    159 H159       -0.9347  -18.7098  -44.3839 H         1 UNK         0.3000 
    160 H160        2.0627  -18.0169  -46.2276 H         1 UNK         0.0600 
    161 H161       -0.7749  -16.8507  -46.1494 H         1 UNK         0.0600 
    162 H162        0.1553  -17.2307  -47.5760 H         1 UNK         0.0600 
    163 H163        0.6692  -15.9387  -46.5116 H         1 UNK         0.0600 
    164 H164        0.6332  -16.8003  -44.0073 H         1 UNK         0.3000 
    165 H165        2.4296  -18.4002  -41.4423 H         1 UNK         0.0600 
    166 H166        3.3531  -16.3312  -40.6859 H         1 UNK         0.0600 
    167 H167        4.1771  -16.7004  -42.1923 H         1 UNK         0.0600 
    168 H168        2.9078  -15.4795  -42.1523 H         1 UNK         0.0600 
    169 H169        0.6711  -16.0702  -41.6837 H         1 UNK         0.3000 
    170 H170       -2.3169  -17.9785  -41.3191 H         1 UNK         0.0600 
    171 H171       -1.5230  -17.7254  -38.9615 H         1 UNK         0.0600 
    172 H172       -0.9465  -16.1012  -39.3174 H         1 UNK         0.0600 
    173 H173       -2.6712  -16.4656  -39.3859 H         1 UNK         0.0600 
    174 H174       -1.8063  -15.1662  -41.4463 H         1 UNK         0.3000 
    175 H175       -2.6219  -14.9238  -44.8615 H         1 UNK         0.0600 
    176 H176       -2.1157  -13.3277  -42.2901 H         1 UNK         0.0600 
    177 H177       -2.9265  -12.7685  -43.7448 H         1 UNK         0.0600 
    178 H178       -3.6681  -14.0177  -42.7604 H         1 UNK         0.0600 
    179 H179       -0.7443  -13.9317  -45.4735 H         1 UNK         0.3000 
    180 H180        1.8688  -12.3862  -43.7920 H         1 UNK         0.0600 
    181 H181        3.1675  -14.4533  -44.0739 H         1 UNK         0.0600 
    182 H182        3.4389  -13.4242  -45.4599 H         1 UNK         0.0600 
    183 H183        2.3711  -14.8150  -45.5942 H         1 UNK         0.0600 
    184 H184        1.2974  -12.7489  -46.5840 H         1 UNK         0.3000 
    185 H185       -1.4556  -10.8085  -46.9443 H         1 UNK         0.0600 
    186 H186       -0.1294   -8.7472  -46.4405 H         1 UNK         0.0600 
    187 H187        1.2211   -9.3773  -47.3754 H         1 UNK         0.0600 
    188 H188       -0.3049   -8.9847  -48.1699 H         1 UNK         0.0600 
    189 H189        0.4858  -11.1818  -48.9124 H         1 UNK         0.3000 
    190 H190        1.6249  -24.2436  -45.5826 H         1 UNK         0.3000 
    191 H191        1.1520  -25.8975  -44.2169 H         1 UNK         0.0600 
    192 H192        1.8009  -28.1900  -44.8941 H         1 UNK         0.0600 
    193 H193        2.9693  -27.0232  -45.4918 H         1 UNK         0.0600 
    194 H194        1.7857  -27.7289  -46.5916 H         1 UNK         0.0600 
    195 H195       -1.1019  -24.7284  -44.8329 H         1 UNK         0.3000 
    196 H196       -3.1199  -26.8788  -44.8606 H         1 UNK         0.0600 
    197 H197       -3.0179  -24.5747  -46.8857 H         1 UNK         0.0600 
    198 H198       -2.9865  -26.2927  -47.2441 H         1 UNK         0.0600 
    199 H199       -4.4506  -25.5627  -46.6104 H         1 UNK         0.0600 
    200 H200       -5.3439  -25.8331  -44.4694 H         1 UNK         0.3000 
    201 H201       -5.2075  -24.3429  -42.0043 H         1 UNK         0.0600 
    202 H202       -7.6857  -24.6202  -42.0678 H         1 UNK         0.0600 
    203 H203       -6.8765  -26.1418  -42.4030 H         1 UNK         0.0600 
    204 H204       -7.5947  -25.2144  -43.7212 H         1 UNK         0.0600 
    205 H205       -5.3240  -23.3484  -45.2818 H         1 UNK         0.3000 
    206 H206       -5.6776  -20.5415  -44.5673 H         1 UNK         0.0600 
    207 H207       -7.9912  -21.2579  -45.2967 H         1 UNK         0.0600 
    208 H208       -7.2672  -20.1790  -46.4770 H         1 UNK         0.0600 
    209 H209       -7.3212  -21.9107  -46.7900 H         1 UNK         0.0600 
    210 H210       -4.9547  -19.2276  -46.5229 H         1 UNK         0.3000 
    211 H211       -2.4176  -20.2322  -47.4788 H         1 UNK         0.0600 
    212 H212       -2.7697  -17.9126  -46.6572 H         1 UNK         0.0600 
    213 H213       -3.8616  -17.5903  -47.9994 H         1 UNK         0.0600 
    214 H214       -2.1584  -17.9330  -48.3041 H         1 UNK         0.0600 
    215 H215       -3.9104  -22.0238  -48.5059 H         1 UNK         0.3000 
    216 H216       -4.5110  -23.2144  -50.2848 H         1 UNK         0.0600 
    217 H217       -2.1499  -22.6782  -50.9635 H         1 UNK         0.0600 
    218 H218       -2.7360  -21.2998  -51.8933 H         1 UNK         0.0600 
    219 H219       -3.1893  -22.9363  -52.3526 H         1 UNK         0.0600 
    220 H220       -6.1553  -20.8117  -49.6384 H         1 UNK         0.3000 
    221 H221       -7.8628  -19.5517  -50.2720 H         1 UNK         0.0600 
    222 H222       -9.4981  -20.4563  -51.8812 H         1 UNK         0.0600 
    223 H223       -8.3047  -21.5651  -52.5425 H         1 UNK         0.0600 
    224 H224       -8.8820  -21.7658  -50.8887 H         1 UNK         0.0600 
    225 H225       -5.1598  -19.0836  -51.4752 H         1 UNK         0.3000 
    226 H226       -4.0077  -17.9170  -52.8981 H         1 UNK         0.0600 
    227 H227       -5.5051  -16.0194  -52.2111 H         1 UNK         0.0600 
    228 H228       -4.8913  -15.8269  -53.8437 H         1 UNK         0.0600 
    229 H229       -6.5501  -16.3536  -53.5923 H         1 UNK         0.0600 
    230 H230       -5.6718  -20.3512  -53.9144 H         1 UNK         0.3000 
    231 H231       -5.9753  -19.9153  -56.7558 H         1 UNK         0.0600 
    232 H232       -6.4391  -22.3439  -56.7966 H         1 UNK         0.0600 
    233 H233       -7.3194  -21.5916  -55.4739 H         1 UNK         0.0600 
    234 H234       -5.8583  -22.5224  -55.1466 H         1 UNK         0.0600 
    235 H235       -3.4140  -21.1217  -54.6547 H         1 UNK         0.3000 
    236 H236       -1.6454  -22.1599  -56.6484 H         1 UNK         0.0600 
    237 H237       -1.1004  -21.0927  -53.8245 H         1 UNK         0.0600 
    238 H238       -1.4773  -22.7631  -54.2479 H         1 UNK         0.0600 
    239 H239        0.0280  -22.0381  -54.7854 H         1 UNK         0.0600 
    240 H240       -2.4583  -18.8962  -55.8043 H         1 UNK         0.3000 
    241 H241        0.0253  -17.6921  -56.7525 H         1 UNK         0.0600 
    242 H242       -2.5968  -19.0345  -58.5105 H         1 UNK         0.3800 
    243 H243       -2.3817  -18.0563  -59.9397 H         1 UNK         0.3800 
    244 H244       -2.5741  -16.2418  -56.1046 H         1 UNK         0.0800 
    245 H245       -0.9775  -15.5574  -56.2114 H         1 UNK         0.0800 
    246 H246        1.0681  -16.6194  -54.4081 H         1 UNK         0.0800 
    247 H247        0.4619  -18.2567  -54.5052 H         1 UNK         0.0800 
@<TRIPOS>BOND
     1    1    2 1    
     2    1  127 1    
     3    1  128 1    
     4    1  129 1    
     5    2    3 2    
     6    2    4 am   BACKBONE|DICT|INTERRES
     7    4    5 1    
     8    4  130 1    
     9    5    6 1    
    10    5   65 1    
    11    5  131 1    
    12    6    7 1    
    13    6  132 1    
    14    6  133 1    
    15    7    8 1    
    16    8    9 1    
    17    8  134 1    
    18    8  135 1    
    19    9   10 ar   
    20    9   14 ar   
    21   10   11 ar   
    22   10  136 1    
    23   11   12 ar   
    24   11  126 1    
    25   12   13 ar   
    26   12  137 1    
    27   13   14 ar   
    28   13   15 1    
    29   14  138 1    
    30   15   16 1    
    31   15  139 1    
    32   15  140 1    
    33   16   17 1    
    34   17   18 1    
    35   17  141 1    
    36   17  142 1    
    37   18   19 1    
    38   18   67 1    
    39   18  143 1    
    40   19   20 am   BACKBONE|DICT|INTERRES
    41   19  144 1    
    42   20   21 2    
    43   20   22 1    
    44   22   23 1    
    45   22   24 1    
    46   22  145 1    
    47   23  146 1    
    48   23  147 1    
    49   23  148 1    
    50   24   25 am   BACKBONE|DICT|INTERRES
    51   24  149 1    
    52   25   26 2    
    53   25   27 1    
    54   27   28 1    
    55   27   29 1    
    56   27  150 1    
    57   28  151 1    
    58   28  152 1    
    59   28  153 1    
    60   29   30 am   BACKBONE|DICT|INTERRES
    61   29  154 1    
    62   30   31 2    
    63   30   32 1    
    64   32   33 1    
    65   32   34 1    
    66   32  155 1    
    67   33  156 1    
    68   33  157 1    
    69   33  158 1    
    70   34   35 am   BACKBONE|DICT|INTERRES
    71   34  159 1    
    72   35   36 2    
    73   35   37 1    
    74   37   38 1    
    75   37   39 1    
    76   37  160 1    
    77   38  161 1    
    78   38  162 1    
    79   38  163 1    
    80   39   40 am   BACKBONE|DICT|INTERRES
    81   39  164 1    
    82   40   41 2    
    83   40   42 1    
    84   42   43 1    
    85   42   44 1    
    86   42  165 1    
    87   43  166 1    
    88   43  167 1    
    89   43  168 1    
    90   44   45 am   BACKBONE|DICT|INTERRES
    91   44  169 1    
    92   45   46 2    
    93   45   47 1    
    94   47   48 1    
    95   47   49 1    
    96   47  170 1    
    97   48  171 1    
    98   48  172 1    
    99   48  173 1    
   100   49   50 am   BACKBONE|DICT|INTERRES
   101   49  174 1    
   102   50   51 2    
   103   50   52 1    
   104   52   53 1    
   105   52   54 1    
   106   52  175 1    
   107   53  176 1    
   108   53  177 1    
   109   53  178 1    
   110   54   55 am   BACKBONE|DICT|INTERRES
   111   54  179 1    
   112   55   56 2    
   113   55   57 1    
   114   57   58 1    
   115   57   59 1    
   116   57  180 1    
   117   58  181 1    
   118   58  182 1    
   119   58  183 1    
   120   59   60 am   BACKBONE|DICT|INTERRES
   121   59  184 1    
   122   60   61 2    
   123   60   62 1    
   124   62   63 1    
   125   62   64 1    
   126   62  185 1    
   127   63  186 1    
   128   63  187 1    
   129   63  188 1    
   130   64   65 am   BACKBONE|DICT|INTERRES
   131   64  189 1    
   132   65   66 2    
   133   67   68 2    
   134   67   69 am   BACKBONE|DICT|INTERRES
   135   69   70 1    
   136   69  190 1    
   137   70   71 1    
   138   70   72 1    
   139   70  191 1    
   140   71  192 1    
   141   71  193 1    
   142   71  194 1    
   143   72   73 2    
   144   72   74 am   BACKBONE|DICT|INTERRES
   145   74   75 1    
   146   74  195 1    
   147   75   76 1    
   148   75   77 1    
   149   75  196 1    
   150   76  197 1    
   151   76  198 1    
   152   76  199 1    
   153   77   78 2    
   154   77   79 am   BACKBONE|DICT|INTERRES
   155   79   80 1    
   156   79  200 1    
   157   80   81 1    
   158   80   82 1    
   159   80  201 1    
   160   81  202 1    
   161   81  203 1    
   162   81  204 1    
   163   82   83 2    
   164   82   84 am   BACKBONE|DICT|INTERRES
   165   84   85 1    
   166   84  205 1    
   167   85   86 1    
   168   85   87 1    
   169   85  206 1    
   170   86  207 1    
   171   86  208 1    
   172   86  209 1    
   173   87   88 2    
   174   87   89 am   BACKBONE|DICT|INTERRES
   175   89   90 1    
   176   89  210 1    
   177   90   91 1    
   178   90   92 1    
   179   90  211 1    
   180   91  212 1    
   181   91  213 1    
   182   91  214 1    
   183   92   93 2    
   184   92   94 am   BACKBONE|DICT|INTERRES
   185   94   95 1    
   186   94  215 1    
   187   95   96 1    
   188   95   97 1    
   189   95  216 1    
   190   96  217 1    
   191   96  218 1    
   192   96  219 1    
   193   97   98 2    
   194   97   99 am   BACKBONE|DICT|INTERRES
   195   99  100 1    
   196   99  220 1    
   197  100  101 1    
   198  100  102 1    
   199  100  221 1    
   200  101  222 1    
   201  101  223 1    
   202  101  224 1    
   203  102  103 2    
   204  102  104 am   BACKBONE|DICT|INTERRES
   205  104  105 1    
   206  104  225 1    
   207  105  106 1    
   208  105  107 1    
   209  105  226 1    
   210  106  227 1    
   211  106  228 1    
   212  106  229 1    
   213  107  108 2    
   214  107  109 am   BACKBONE|DICT|INTERRES
   215  109  110 1    
   216  109  230 1    
   217  110  111 1    
   218  110  112 1    
   219  110  231 1    
   220  111  232 1    
   221  111  233 1    
   222  111  234 1    
   223  112  113 2    
   224  112  114 am   BACKBONE|DICT|INTERRES
   225  114  115 1    
   226  114  235 1    
   227  115  116 1    
   228  115  117 1    
   229  115  236 1    
   230  116  237 1    
   231  116  238 1    
   232  116  239 1    
   233  117  118 2    
   234  117  119 am   BACKBONE|DICT|INTERRES
   235  119  120 1    
   236  119  240 1    
   237  120  121 1    
   238  120  124 1    
   239  120  241 1    
   240  121  122 am   BACKBONE|DICT|INTERRES
   241  121  123 2    
   242  122  242 1    
   243  122  243 1    
   244  124  125 1    
   245  124  244 1    
   246  124  245 1    
   247  125  126 1    
   248  126  246 1    
   249  126  247 1    
@<TRIPOS>SUBSTRUCTURE
     1 UNK         1 GROUP             0       ****    0 ROOT    
