@<TRIPOS>MOLECULE
3R540
247   249    1
SMALL
USER_CHARGES


@<TRIPOS>ATOM
      1 CA         -2.2906  -12.0336  -51.0609 C.3       0 UNK        -0.1800 
      2 C          -1.2729  -12.4954  -50.0296 C.2       0 UNK         0.5000 
      3 O          -1.2076  -11.9288  -48.9386 O.2       0 UNK        -0.5000 
      4 N          -0.4846  -13.5276  -50.3667 N.am      1 UNK        -0.5000 
      5 CA          0.6073  -14.0723  -49.5436 C.3       1 UNK         0.1400 
      6 C6          1.3597  -15.2090  -50.2830 C.3       23 UNK        -0.0398 
      7 S7          3.1105  -15.3422  -49.7777 S.3       23 UNK        -0.2404 
      8 C8          3.0462  -16.6959  -48.5539 C.3       23 UNK        -0.0205 
      9 C9          3.3105  -18.0879  -49.1188 C.ar      23 UNK        -0.0193 
     10 C10         2.8124  -18.4859  -50.3633 C.ar      23 UNK        -0.1150 
     11 C11         3.0113  -19.7864  -50.8330 C.ar      23 UNK        -0.0193 
     12 C12         3.7393  -20.6918  -50.0562 C.ar      23 UNK        -0.1150 
     13 C13         4.2555  -20.3065  -48.8157 C.ar      23 UNK        -0.0193 
     14 C14         4.0322  -19.0070  -48.3520 C.ar      23 UNK        -0.1150 
     15 C15         5.0651  -21.2875  -47.9798 C.3       23 UNK        -0.0205 
     16 S16         4.0548  -22.6532  -47.3268 S.3       23 UNK        -0.2404 
     17 C17         2.9163  -21.7798  -46.1987 C.3       23 UNK        -0.0398 
     18 CA          1.5485  -22.4916  -46.0819 C.3       11 UNK         0.1400 
     19 N           0.8396  -22.1038  -44.8608 N.am      11 UNK        -0.5000 
     20 C          -0.2391  -22.7338  -44.3754 C.2       10 UNK         0.5000 
     21 O          -0.7261  -23.7454  -44.8817 O.2       10 UNK        -0.5000 
     22 CA         -0.9071  -22.1056  -43.1376 C.3       10 UNK         0.1400 
     23 CB         -0.1709  -22.5113  -41.8522 C.3       10 UNK        -0.1800 
     24 N          -0.9884  -20.6458  -43.2168 N.am      10 UNK        -0.5000 
     25 C          -1.6968  -19.9761  -44.1373 C.2       9 UNK         0.5000 
     26 O          -2.3860  -20.5198  -44.9977 O.2       9 UNK        -0.5000 
     27 CA         -1.5822  -18.4433  -44.1274 C.3       9 UNK         0.1400 
     28 CB         -2.4453  -17.8469  -43.0047 C.3       9 UNK        -0.1800 
     29 N          -0.1976  -17.9877  -43.9972 N.am      9 UNK        -0.5000 
     30 C           0.7860  -18.2565  -44.8690 C.2       8 UNK         0.5000 
     31 O           0.6191  -18.8637  -45.9248 O.2       8 UNK        -0.5000 
     32 CA          2.2088  -17.8361  -44.4632 C.3       8 UNK         0.1400 
     33 CB          2.4657  -16.3557  -44.7742 C.3       8 UNK        -0.1800 
     34 N           2.4654  -18.0916  -43.0472 N.am      8 UNK        -0.5000 
     35 C           2.5592  -19.3127  -42.5025 C.2       7 UNK         0.5000 
     36 O           2.4876  -20.3571  -43.1496 O.2       7 UNK        -0.5000 
     37 CA          2.7120  -19.3710  -40.9717 C.3       7 UNK         0.1400 
     38 CB          4.1840  -19.2020  -40.5674 C.3       7 UNK        -0.1800 
     39 N           1.9022  -18.3546  -40.2968 N.am      7 UNK        -0.5000 
     40 C           0.5614  -18.3540  -40.2701 C.2       6 UNK         0.5000 
     41 O          -0.1281  -19.2508  -40.7551 O.2       6 UNK        -0.5000 
     42 CA         -0.1185  -17.1188  -39.6455 C.3       6 UNK         0.1400 
     43 CB         -0.2837  -17.3012  -38.1297 C.3       6 UNK        -0.1800 
     44 N           0.6082  -15.8718  -39.9119 N.am      6 UNK        -0.5000 
     45 C           0.7782  -15.3484  -41.1330 C.2       5 UNK         0.5000 
     46 O           0.3018  -15.8436  -42.1559 O.2       5 UNK        -0.5000 
     47 CA          1.6918  -14.1200  -41.2386 C.3       5 UNK         0.1400 
     48 CB          3.1640  -14.5538  -41.0643 C.3       5 UNK        -0.1800 
     49 N           1.4950  -13.4898  -42.5437 N.am      5 UNK        -0.5000 
     50 C           2.0221  -12.3252  -42.9411 C.2       4 UNK         0.5000 
     51 O           2.7034  -11.6000  -42.2144 O.2       4 UNK        -0.5000 
     52 CA          1.7555  -11.8875  -44.3944 C.3       4 UNK         0.1400 
     53 CB          2.8266  -12.4619  -45.3344 C.3       4 UNK        -0.1800 
     54 N           0.4255  -12.2392  -44.8994 N.am      4 UNK        -0.5000 
     55 C          -0.7154  -11.6774  -44.4682 C.2       3 UNK         0.5000 
     56 O          -0.7620  -10.8749  -43.5345 O.2       3 UNK        -0.5000 
     57 CA         -2.0231  -12.0228  -45.2116 C.3       3 UNK         0.1400 
     58 CB         -2.5303  -10.8044  -46.0003 C.3       3 UNK        -0.1800 
     59 N          -1.8930  -13.1560  -46.1286 N.am      3 UNK        -0.5000 
     60 C          -1.9121  -14.4386  -45.7404 C.2       2 UNK         0.5000 
     61 O          -2.0712  -14.7823  -44.5712 O.2       2 UNK        -0.5000 
     62 CA         -1.7200  -15.5234  -46.8221 C.3       2 UNK         0.1400 
     63 CB         -3.0707  -16.1635  -47.1813 C.3       2 UNK        -0.1800 
     64 N          -1.0852  -15.0513  -48.0538 N.am      2 UNK        -0.5000 
     65 C           0.1479  -14.5326  -48.1412 C.2       1 UNK         0.5000 
     66 O           0.8862  -14.3727  -47.1695 O.2       1 UNK        -0.5000 
     67 C           0.6731  -22.3041  -47.3416 C.2       11 UNK         0.5000 
     68 O           0.6579  -23.1846  -48.2017 O.2       11 UNK        -0.5000 
     69 N          -0.0827  -21.1979  -47.4051 N.am      12 UNK        -0.5000 
     70 CA         -1.0625  -20.9323  -48.4571 C.3       12 UNK         0.1400 
     71 CB         -1.5663  -19.4848  -48.3541 C.3       12 UNK        -0.1800 
     72 C          -2.2312  -21.9330  -48.4333 C.2       12 UNK         0.5000 
     73 O          -2.5754  -22.4799  -49.4786 O.2       12 UNK        -0.5000 
     74 N          -2.7866  -22.2006  -47.2415 N.am      13 UNK        -0.5000 
     75 CA         -3.8873  -23.1430  -47.0085 C.3       13 UNK         0.1400 
     76 CB         -4.2755  -23.1286  -45.5230 C.3       13 UNK        -0.1800 
     77 C          -3.5975  -24.5821  -47.4750 C.2       13 UNK         0.5000 
     78 O          -4.5204  -25.2760  -47.9045 O.2       13 UNK        -0.5000 
     79 N          -2.3206  -24.9889  -47.4389 N.am      14 UNK        -0.5000 
     80 CA         -1.8355  -26.2770  -47.9389 C.3       14 UNK         0.1400 
     81 CB         -0.3697  -26.4644  -47.5184 C.3       14 UNK        -0.1800 
     82 C          -1.9989  -26.4653  -49.4640 C.2       14 UNK         0.5000 
     83 O          -1.9722  -27.6062  -49.9276 O.2       14 UNK        -0.5000 
     84 N          -2.1968  -25.3709  -50.2166 N.am      15 UNK        -0.5000 
     85 CA         -2.5122  -25.3932  -51.6479 C.3       15 UNK         0.1400 
     86 CB         -2.0792  -24.0629  -52.2831 C.3       15 UNK        -0.1800 
     87 C          -3.9998  -25.6996  -51.9394 C.2       15 UNK         0.5000 
     88 O          -4.3592  -25.8390  -53.1101 O.2       15 UNK        -0.5000 
     89 N          -4.8322  -25.8148  -50.8901 N.am      16 UNK        -0.5000 
     90 CA         -6.2364  -26.2373  -50.8990 C.3       16 UNK         0.1400 
     91 CB         -6.3337  -27.7464  -51.2146 C.3       16 UNK        -0.1800 
     92 C          -7.1135  -25.3540  -51.8080 C.2       16 UNK         0.5000 
     93 O          -7.4049  -24.2159  -51.4421 O.2       16 UNK        -0.5000 
     94 N          -7.5009  -25.8669  -52.9837 N.am      17 UNK        -0.5000 
     95 CA         -8.2847  -25.1505  -53.9938 C.3       17 UNK         0.1400 
     96 CB         -8.6736  -26.1323  -55.1102 C.3       17 UNK        -0.1800 
     97 C          -7.5633  -23.9207  -54.5842 C.2       17 UNK         0.5000 
     98 O          -8.2312  -22.9967  -55.0498 O.2       17 UNK        -0.5000 
     99 N          -6.2239  -23.9217  -54.5394 N.am      18 UNK        -0.5000 
    100 CA        -5.3647  -22.8368  -55.0107 C.3       18 UNK         0.1400 
    101 CB        -4.1910  -23.4499  -55.7946 C.3       18 UNK        -0.1800 
    102 C         -4.8713  -21.9300  -53.8637 C.2       18 UNK         0.5000 
    103 O         -3.9718  -21.1204  -54.0904 O.2       18 UNK        -0.5000 
    104 N         -5.4414  -22.0605  -52.6548 N.am      19 UNK        -0.5000 
    105 CA        -5.0338  -21.3072  -51.4624 C.3       19 UNK         0.1400 
    106 CB        -5.6965  -21.9073  -50.2158 C.3       19 UNK        -0.1800 
    107 C         -5.3019  -19.7936  -51.5214 C.2       19 UNK         0.5000 
    108 O         -4.6691  -19.0533  -50.7685 O.2       19 UNK        -0.5000 
    109 N         -6.2103  -19.3546  -52.4044 N.am      20 UNK        -0.5000 
    110 CA        -6.5545  -17.9541  -52.6603 C.3       20 UNK         0.1400 
    111 CB        -7.7040  -17.9048  -53.6806 C.3       20 UNK        -0.1800 
    112 C         -5.3299  -17.1471  -53.1389 C.2       20 UNK         0.5000 
    113 O         -4.9791  -17.2103  -54.3177 O.2       20 UNK        -0.5000 
    114 N         -4.6729  -16.4671  -52.1864 N.am      21 UNK        -0.5000 
    115 CA        -3.3987  -15.7418  -52.3001 C.3       21 UNK         0.1400 
    116 CB        -3.4975  -14.6022  -53.3363 C.3       21 UNK        -0.1800 
    117 C         -2.1659  -16.6432  -52.5477 C.2       21 UNK         0.5000 
    118 O         -1.0755  -16.1122  -52.7622 O.2       21 UNK        -0.5000 
    119 N         -2.3507  -17.9690  -52.4790 N.am      22 UNK        -0.5000 
    120 CA        -1.4092  -19.0258  -52.8745 C.3       22 UNK         0.1400 
    121 C         -1.0965  -18.9811  -54.3993 C.2       22 UNK         0.5000 
    122 N         -1.9060  -19.6365  -55.2179 N.am      22 UNK        -0.7600 
    123 O         -0.1304  -18.3684  -54.8475 O.2       22 UNK        -0.5000 
    124 C124       -0.1386  -19.0624  -51.9883 C.3       23 UNK        -0.0398 
    125 S125        0.6885  -20.6913  -52.0365 S.3       23 UNK        -0.2404 
    126 C126        2.4392  -20.2120  -52.1773 C.3       23 UNK        -0.0205 
    127 H127       -1.9069  -12.1562  -52.0733 H         1 UNK         0.0600 
    128 H128       -2.5225  -10.9777  -50.9192 H         1 UNK         0.0600 
    129 H129       -3.2154  -12.6020  -50.9618 H         1 UNK         0.0600 
    130 H130       -0.5926  -13.9494  -51.2797 H         1 UNK         0.3000 
    131 H131        1.3013  -13.2426  -49.3905 H         1 UNK         0.0600 
    132 H132        1.3728  -15.0098  -51.3558 H         1 UNK         0.0800 
    133 H133        0.8457  -16.1658  -50.1737 H         1 UNK         0.0800 
    134 H134        2.0754  -16.7108  -48.0595 H         1 UNK         0.0800 
    135 H135        3.7824  -16.4666  -47.7821 H         1 UNK         0.0800 
    136 H136        2.2618  -17.7857  -50.9695 H         1 UNK         0.1150 
    137 H137        3.9004  -21.7000  -50.4118 H         1 UNK         0.1150 
    138 H138        4.4189  -18.7115  -47.3867 H         1 UNK         0.1150 
    139 H139        5.8621  -21.7046  -48.5968 H         1 UNK         0.0800 
    140 H140        5.5575  -20.7794  -47.1492 H         1 UNK         0.0800 
    141 H141        2.7843  -20.7398  -46.4986 H         1 UNK         0.0800 
    142 H142        3.4068  -21.7514  -45.2252 H         1 UNK         0.0800 
    143 H143        1.7425  -23.5628  -45.9887 H         1 UNK         0.0600 
    144 H144        1.2110  -21.3079  -44.3516 H         1 UNK         0.3000 
    145 H145       -1.9267  -22.4918  -43.0795 H         1 UNK         0.0600 
    146 H146       -0.6808  -22.1269  -40.9686 H         1 UNK         0.0600 
    147 H147        0.8522  -22.1354  -41.8366 H         1 UNK         0.0600 
    148 H148       -0.1241  -23.5967  -41.7554 H         1 UNK         0.0600 
    149 H149       -0.4900  -20.1198  -42.5052 H         1 UNK         0.3000 
    150 H150       -1.9619  -18.0751  -45.0810 H         1 UNK         0.0600 
    151 H151       -3.5015  -18.0545  -43.1790 H         1 UNK         0.0600 
    152 H152       -2.3320  -16.7658  -42.9414 H         1 UNK         0.0600 
    153 H153       -2.1903  -18.2603  -42.0300 H         1 UNK         0.0600 
    154 H154        0.0150  -17.4085  -43.1895 H         1 UNK         0.3000 
    155 H155        2.9133  -18.4316  -45.0480 H         1 UNK         0.0600 
    156 H156        2.3671  -16.1615  -45.8393 H         1 UNK         0.0600 
    157 H157        3.4714  -16.0543  -44.4814 H         1 UNK         0.0600 
    158 H158        1.7564  -15.7024  -44.2706 H         1 UNK         0.0600 
    159 H159        2.4872  -17.2888  -42.4384 H         1 UNK         0.3000 
    160 H160        2.3756  -20.3554  -40.6389 H         1 UNK         0.0600 
    161 H161        4.5727  -18.2236  -40.8532 H         1 UNK         0.0600 
    162 H162        4.8088  -19.9567  -41.0470 H         1 UNK         0.0600 
    163 H163        4.3118  -19.3127  -39.4905 H         1 UNK         0.0600 
    164 H164        2.3950  -17.5888  -39.8623 H         1 UNK         0.3000 
    165 H165       -1.1128  -17.0301  -40.0883 H         1 UNK         0.0600 
    166 H166       -0.8351  -16.4696  -37.6904 H         1 UNK         0.0600 
    167 H167       -0.8395  -18.2127  -37.9050 H         1 UNK         0.0600 
    168 H168        0.6800  -17.3709  -37.6234 H         1 UNK         0.0600 
    169 H169        1.0291  -15.4149  -39.1155 H         1 UNK         0.3000 
    170 H170        1.4141  -13.4111  -40.4562 H         1 UNK         0.0600 
    171 H171        3.4855  -15.2148  -41.8699 H         1 UNK         0.0600 
    172 H172        3.8381  -13.6977  -41.0507 H         1 UNK         0.0600 
    173 H173        3.3157  -15.0840  -40.1235 H         1 UNK         0.0600 
    174 H174        0.9004  -14.0153  -43.1733 H         1 UNK         0.3000 
    175 H175        1.8404  -10.7987  -44.4245 H         1 UNK         0.0600 
    176 H176        2.7959  -13.5512  -45.3623 H         1 UNK         0.0600 
    177 H177        2.6940  -12.0986  -46.3538 H         1 UNK         0.0600 
    178 H178        3.8275  -12.1706  -45.0122 H         1 UNK         0.0600 
    179 H179        0.3915  -12.9013  -45.6665 H         1 UNK         0.3000 
    180 H180       -2.7732  -12.2664  -44.4555 H         1 UNK         0.0600 
    181 H181       -3.4598  -11.0301  -46.5237 H         1 UNK         0.0600 
    182 H182       -1.7999  -10.4716  -46.7391 H         1 UNK         0.0600 
    183 H183       -2.7287   -9.9623  -45.3354 H         1 UNK         0.0600 
    184 H184       -1.7286  -12.9321  -47.1040 H         1 UNK         0.3000 
    185 H185       -1.0717  -16.2922  -46.3986 H         1 UNK         0.0600 
    186 H186       -3.7561  -15.4337  -47.6142 H         1 UNK         0.0600 
    187 H187       -2.9497  -16.9746  -47.8994 H         1 UNK         0.0600 
    188 H188       -3.5547  -16.5821  -46.2973 H         1 UNK         0.0600 
    189 H189       -1.6381  -15.1080  -48.8955 H         1 UNK         0.3000 
    190 H190        0.0256  -20.4802  -46.6930 H         1 UNK         0.3000 
    191 H191       -0.5544  -21.0439  -49.4156 H         1 UNK         0.0600 
    192 H192       -0.7444  -18.7736  -48.4404 H         1 UNK         0.0600 
    193 H193       -2.0678  -19.2993  -47.4044 H         1 UNK         0.0600 
    194 H194       -2.2775  -19.2621  -49.1509 H         1 UNK         0.0600 
    195 H195       -2.4701  -21.6748  -46.4291 H         1 UNK         0.3000 
    196 H196       -4.7460  -22.7886  -47.5789 H         1 UNK         0.0600 
    197 H197       -4.5953  -22.1353  -45.2082 H         1 UNK         0.0600 
    198 H198       -3.4435  -23.4311  -44.8875 H         1 UNK         0.0600 
    199 H199       -5.1033  -23.8115  -45.3276 H         1 UNK         0.0600 
    200 H200       -1.6266  -24.3570  -47.0592 H         1 UNK         0.3000 
    201 H201       -2.4264  -27.0566  -47.4538 H         1 UNK         0.0600 
    202 H202       -0.2446  -26.3350  -46.4426 H         1 UNK         0.0600 
    203 H203        0.2875  -25.7555  -48.0214 H         1 UNK         0.0600 
    204 H204       -0.0187  -27.4662  -47.7693 H         1 UNK         0.0600 
    205 H205       -2.2146  -24.4578  -49.7716 H         1 UNK         0.3000 
    206 H206       -1.9253  -26.1855  -52.1175 H         1 UNK         0.0600 
    207 H207       -2.7226  -23.2414  -51.9744 H         1 UNK         0.0600 
    208 H208       -1.0546  -23.8052  -52.0123 H         1 UNK         0.0600 
    209 H209       -2.1207  -24.1178  -53.3706 H         1 UNK         0.0600 
    210 H210       -4.4565  -25.6291  -49.9667 H         1 UNK         0.3000 
    211 H211       -6.6074  -26.0895  -49.8834 H         1 UNK         0.0600 
    212 H212       -5.9132  -27.9960  -52.1897 H         1 UNK         0.0600 
    213 H213       -7.3706  -28.0859  -51.2003 H         1 UNK         0.0600 
    214 H214       -5.7952  -28.3313  -50.4685 H         1 UNK         0.0600 
    215 H215       -7.1920  -26.7975  -53.2257 H         1 UNK         0.3000 
    216 H216       -9.2000  -24.7938  -53.5162 H         1 UNK         0.0600 
    217 H217       -9.2848  -25.6404  -55.8685 H         1 UNK         0.0600 
    218 H218       -9.2555  -26.9667  -54.7180 H         1 UNK         0.0600 
    219 H219       -7.7941  -26.5403  -55.6108 H         1 UNK         0.0600 
    220 H220       -5.7477  -24.7109  -54.1119 H         1 UNK         0.3000 
    221 H221       -5.9170  -22.1928  -55.6979 H         1 UNK         0.0600 
    222 H222       -3.5951  -24.1170  -55.1726 H         1 UNK         0.0600 
    223 H223       -4.5504  -24.0261  -56.6478 H         1 UNK         0.0600 
    224 H224       -3.5253  -22.6790  -56.1849 H         1 UNK         0.0600 
    225 H225       -6.1745  -22.7477  -52.5248 H         1 UNK         0.3000 
    226 H226       -3.9541  -21.4140  -51.3596 H         1 UNK         0.0600 
    227 H227       -5.3942  -22.9446  -50.0708 H         1 UNK         0.0600 
    228 H228       -5.4064  -21.3574  -49.3197 H         1 UNK         0.0600 
    229 H229       -6.7846  -21.8730  -50.2813 H         1 UNK         0.0600 
    230 H230       -6.6617  -20.0402  -52.9914 H         1 UNK         0.3000 
    231 H231       -6.9165  -17.5183  -51.7268 H         1 UNK         0.0600 
    232 H232       -7.9820  -16.8742  -53.9048 H         1 UNK         0.0600 
    233 H233       -8.5936  -18.4047  -53.2970 H         1 UNK         0.0600 
    234 H234       -7.4309  -18.3837  -54.6220 H         1 UNK         0.0600 
    235 H235       -5.0229  -16.5538  -51.2413 H         1 UNK         0.3000 
    236 H236       -3.2324  -15.2813  -51.3254 H         1 UNK         0.0600 
    237 H237       -3.6395  -14.9803  -54.3486 H         1 UNK         0.0600 
    238 H238       -4.3257  -13.9315  -53.1081 H         1 UNK         0.0600 
    239 H239       -2.5881  -14.0022  -53.3507 H         1 UNK         0.0600 
    240 H240       -3.2776  -18.2895  -52.2297 H         1 UNK         0.3000 
    241 H241       -1.9515  -19.9538  -52.6858 H         1 UNK         0.0600 
    242 H242       -1.7286  -19.6236  -56.2091 H         1 UNK         0.3800 
    243 H243       -2.7031  -20.1586  -54.8524 H         1 UNK         0.3800 
    244 H244       -0.3973  -18.8596  -50.9495 H         1 UNK         0.0800 
    245 H245        0.5481  -18.2708  -52.2873 H         1 UNK         0.0800 
    246 H246        2.5529  -19.4127  -52.9114 H         1 UNK         0.0800 
    247 H247        3.0013  -21.0616  -52.5679 H         1 UNK         0.0800 
@<TRIPOS>BOND
     1    1    2 1    
     2    1  127 1    
     3    1  128 1    
     4    1  129 1    
     5    2    3 2    
     6    2    4 am   BACKBONE|DICT|INTERRES
     7    4    5 1    
     8    4  130 1    
     9    5    6 1    
    10    5   65 1    
    11    5  131 1    
    12    6    7 1    
    13    6  132 1    
    14    6  133 1    
    15    7    8 1    
    16    8    9 1    
    17    8  134 1    
    18    8  135 1    
    19    9   10 ar   
    20    9   14 ar   
    21   10   11 ar   
    22   10  136 1    
    23   11   12 ar   
    24   11  126 1    
    25   12   13 ar   
    26   12  137 1    
    27   13   14 ar   
    28   13   15 1    
    29   14  138 1    
    30   15   16 1    
    31   15  139 1    
    32   15  140 1    
    33   16   17 1    
    34   17   18 1    
    35   17  141 1    
    36   17  142 1    
    37   18   19 1    
    38   18   67 1    
    39   18  143 1    
    40   19   20 am   BACKBONE|DICT|INTERRES
    41   19  144 1    
    42   20   21 2    
    43   20   22 1    
    44   22   23 1    
    45   22   24 1    
    46   22  145 1    
    47   23  146 1    
    48   23  147 1    
    49   23  148 1    
    50   24   25 am   BACKBONE|DICT|INTERRES
    51   24  149 1    
    52   25   26 2    
    53   25   27 1    
    54   27   28 1    
    55   27   29 1    
    56   27  150 1    
    57   28  151 1    
    58   28  152 1    
    59   28  153 1    
    60   29   30 am   BACKBONE|DICT|INTERRES
    61   29  154 1    
    62   30   31 2    
    63   30   32 1    
    64   32   33 1    
    65   32   34 1    
    66   32  155 1    
    67   33  156 1    
    68   33  157 1    
    69   33  158 1    
    70   34   35 am   BACKBONE|DICT|INTERRES
    71   34  159 1    
    72   35   36 2    
    73   35   37 1    
    74   37   38 1    
    75   37   39 1    
    76   37  160 1    
    77   38  161 1    
    78   38  162 1    
    79   38  163 1    
    80   39   40 am   BACKBONE|DICT|INTERRES
    81   39  164 1    
    82   40   41 2    
    83   40   42 1    
    84   42   43 1    
    85   42   44 1    
    86   42  165 1    
    87   43  166 1    
    88   43  167 1    
    89   43  168 1    
    90   44   45 am   BACKBONE|DICT|INTERRES
    91   44  169 1    
    92   45   46 2    
    93   45   47 1    
    94   47   48 1    
    95   47   49 1    
    96   47  170 1    
    97   48  171 1    
    98   48  172 1    
    99   48  173 1    
   100   49   50 am   BACKBONE|DICT|INTERRES
   101   49  174 1    
   102   50   51 2    
   103   50   52 1    
   104   52   53 1    
   105   52   54 1    
   106   52  175 1    
   107   53  176 1    
   108   53  177 1    
   109   53  178 1    
   110   54   55 am   BACKBONE|DICT|INTERRES
   111   54  179 1    
   112   55   56 2    
   113   55   57 1    
   114   57   58 1    
   115   57   59 1    
   116   57  180 1    
   117   58  181 1    
   118   58  182 1    
   119   58  183 1    
   120   59   60 am   BACKBONE|DICT|INTERRES
   121   59  184 1    
   122   60   61 2    
   123   60   62 1    
   124   62   63 1    
   125   62   64 1    
   126   62  185 1    
   127   63  186 1    
   128   63  187 1    
   129   63  188 1    
   130   64   65 am   BACKBONE|DICT|INTERRES
   131   64  189 1    
   132   65   66 2    
   133   67   68 2    
   134   67   69 am   BACKBONE|DICT|INTERRES
   135   69   70 1    
   136   69  190 1    
   137   70   71 1    
   138   70   72 1    
   139   70  191 1    
   140   71  192 1    
   141   71  193 1    
   142   71  194 1    
   143   72   73 2    
   144   72   74 am   BACKBONE|DICT|INTERRES
   145   74   75 1    
   146   74  195 1    
   147   75   76 1    
   148   75   77 1    
   149   75  196 1    
   150   76  197 1    
   151   76  198 1    
   152   76  199 1    
   153   77   78 2    
   154   77   79 am   BACKBONE|DICT|INTERRES
   155   79   80 1    
   156   79  200 1    
   157   80   81 1    
   158   80   82 1    
   159   80  201 1    
   160   81  202 1    
   161   81  203 1    
   162   81  204 1    
   163   82   83 2    
   164   82   84 am   BACKBONE|DICT|INTERRES
   165   84   85 1    
   166   84  205 1    
   167   85   86 1    
   168   85   87 1    
   169   85  206 1    
   170   86  207 1    
   171   86  208 1    
   172   86  209 1    
   173   87   88 2    
   174   87   89 am   BACKBONE|DICT|INTERRES
   175   89   90 1    
   176   89  210 1    
   177   90   91 1    
   178   90   92 1    
   179   90  211 1    
   180   91  212 1    
   181   91  213 1    
   182   91  214 1    
   183   92   93 2    
   184   92   94 am   BACKBONE|DICT|INTERRES
   185   94   95 1    
   186   94  215 1    
   187   95   96 1    
   188   95   97 1    
   189   95  216 1    
   190   96  217 1    
   191   96  218 1    
   192   96  219 1    
   193   97   98 2    
   194   97   99 am   BACKBONE|DICT|INTERRES
   195   99  100 1    
   196   99  220 1    
   197  100  101 1    
   198  100  102 1    
   199  100  221 1    
   200  101  222 1    
   201  101  223 1    
   202  101  224 1    
   203  102  103 2    
   204  102  104 am   BACKBONE|DICT|INTERRES
   205  104  105 1    
   206  104  225 1    
   207  105  106 1    
   208  105  107 1    
   209  105  226 1    
   210  106  227 1    
   211  106  228 1    
   212  106  229 1    
   213  107  108 2    
   214  107  109 am   BACKBONE|DICT|INTERRES
   215  109  110 1    
   216  109  230 1    
   217  110  111 1    
   218  110  112 1    
   219  110  231 1    
   220  111  232 1    
   221  111  233 1    
   222  111  234 1    
   223  112  113 2    
   224  112  114 am   BACKBONE|DICT|INTERRES
   225  114  115 1    
   226  114  235 1    
   227  115  116 1    
   228  115  117 1    
   229  115  236 1    
   230  116  237 1    
   231  116  238 1    
   232  116  239 1    
   233  117  118 2    
   234  117  119 am   BACKBONE|DICT|INTERRES
   235  119  120 1    
   236  119  240 1    
   237  120  121 1    
   238  120  124 1    
   239  120  241 1    
   240  121  122 am   BACKBONE|DICT|INTERRES
   241  121  123 2    
   242  122  242 1    
   243  122  243 1    
   244  124  125 1    
   245  124  244 1    
   246  124  245 1    
   247  125  126 1    
   248  126  246 1    
   249  126  247 1    
@<TRIPOS>SUBSTRUCTURE
     1 UNK         1 GROUP             0       ****    0 ROOT    
