@<TRIPOS>MOLECULE
3R540
247   249    1
SMALL
USER_CHARGES


@<TRIPOS>ATOM
      1 CA         -0.0790  -13.6396  -49.0009 C.3       0 UNK        -0.1800 
      2 C           0.0564  -13.1505  -47.5665 C.2       0 UNK         0.5000 
      3 O           1.0865  -12.5827  -47.2072 O.2       0 UNK        -0.5000 
      4 N          -0.9863  -13.3546  -46.7510 N.am      1 UNK        -0.5000 
      5 CA         -1.0299  -13.0573  -45.3095 C.3       1 UNK         0.1400 
      6 C6         -2.3343  -13.5716  -44.6519 C.3       23 UNK        -0.0398 
      7 S7         -2.5251  -15.3774  -44.8285 S.3       23 UNK        -0.2404 
      8 C8         -3.6900  -15.4808  -46.2238 C.3       23 UNK        -0.0205 
      9 C9         -3.5578  -16.8188  -46.9290 C.ar      23 UNK        -0.0193 
     10 C10        -2.5349  -17.0191  -47.8601 C.ar      23 UNK        -0.1150 
     11 C11        -2.3713  -18.2590  -48.4828 C.ar      23 UNK        -0.0193 
     12 C12        -3.2550  -19.2983  -48.1824 C.ar      23 UNK        -0.1150 
     13 C13        -4.2900  -19.1047  -47.2615 C.ar      23 UNK        -0.0193 
     14 C14        -4.4387  -17.8630  -46.6387 C.ar      23 UNK        -0.1150 
     15 C15        -5.2355  -20.2457  -46.9265 C.3       23 UNK        -0.0205 
     16 S16        -4.9168  -20.9780  -45.2864 S.3       23 UNK        -0.2404 
     17 C17        -3.0980  -21.1429  -45.2378 C.3       23 UNK        -0.0398 
     18 CA         -2.5293  -22.2386  -46.1735 C.3       11 UNK         0.1400 
     19 N          -1.1210  -21.9836  -46.4951 N.am      11 UNK        -0.5000 
     20 C          -0.3678  -22.7166  -47.3273 C.2       10 UNK         0.5000 
     21 O          -0.7900  -23.6673  -47.9813 O.2       10 UNK        -0.5000 
     22 CA          1.1315  -22.3768  -47.3823 C.3       10 UNK         0.1400 
     23 CB          1.4074  -21.2257  -48.3625 C.3       10 UNK        -0.1800 
     24 N           1.6624  -22.0539  -46.0561 N.am      10 UNK        -0.5000 
     25 C           1.7749  -22.9426  -45.0568 C.2       9 UNK         0.5000 
     26 O           1.5101  -24.1378  -45.1752 O.2       9 UNK        -0.5000 
     27 CA          2.1908  -22.3973  -43.6800 C.3       9 UNK         0.1400 
     28 CB          3.7187  -22.2881  -43.5741 C.3       9 UNK        -0.1800 
     29 N           1.5712  -21.1009  -43.4003 N.am      9 UNK        -0.5000 
     30 C           0.2604  -20.9420  -43.1553 C.2       8 UNK         0.5000 
     31 O          -0.5288  -21.8838  -43.0787 O.2       8 UNK        -0.5000 
     32 CA         -0.2749  -19.5005  -43.0187 C.3       8 UNK         0.1400 
     33 CB         -0.3046  -19.0776  -41.5437 C.3       8 UNK        -0.1800 
     34 N           0.4922  -18.5208  -43.7896 N.am      8 UNK        -0.5000 
     35 C           0.6221  -18.5399  -45.1253 C.2       7 UNK         0.5000 
     36 O           0.0181  -19.3343  -45.8459 O.2       7 UNK        -0.5000 
     37 CA          1.6472  -17.5754  -45.7619 C.3       7 UNK         0.1400 
     38 CB          0.9403  -16.3726  -46.3925 C.3       7 UNK        -0.1800 
     39 N           2.6661  -17.0827  -44.8324 N.am      7 UNK        -0.5000 
     40 C           3.5337  -17.8478  -44.1525 C.2       6 UNK         0.5000 
     41 O           3.6173  -19.0667  -44.2996 O.2       6 UNK        -0.5000 
     42 CA          4.4086  -17.1567  -43.0862 C.3       6 UNK         0.1400 
     43 CB          5.8264  -16.9238  -43.6286 C.3       6 UNK        -0.1800 
     44 N           3.8725  -15.8813  -42.6027 N.am      6 UNK        -0.5000 
     45 C           2.6741  -15.6865  -42.0313 C.2       5 UNK         0.5000 
     46 O           1.8816  -16.5959  -41.7853 O.2       5 UNK        -0.5000 
     47 CA          2.2726  -14.2270  -41.7322 C.3       5 UNK         0.1400 
     48 CB          2.4157  -13.9271  -40.2326 C.3       5 UNK        -0.1800 
     49 N           3.0364  -13.2309  -42.4940 N.am      5 UNK        -0.5000 
     50 C           3.0023  -13.0909  -43.8261 C.2       4 UNK         0.5000 
     51 O           2.3350  -13.8087  -44.5721 O.2       4 UNK        -0.5000 
     52 CA          3.9306  -12.0287  -44.4229 C.3       4 UNK         0.1400 
     53 CB          5.2267  -12.6799  -44.9405 C.3       4 UNK        -0.1800 
     54 N           3.2493  -11.3274  -45.5062 N.am      4 UNK        -0.5000 
     55 C           3.5867  -10.1081  -45.9467 C.2       3 UNK         0.5000 
     56 O           4.5272   -9.4539  -45.4936 O.2       3 UNK        -0.5000 
     57 CA          2.7209   -9.5006  -47.0611 C.3       3 UNK         0.1400 
     58 CB          3.0788  -10.1023  -48.4298 C.3       3 UNK        -0.1800 
     59 N           1.2985   -9.6964  -46.7882 N.am      3 UNK        -0.5000 
     60 C           0.5453   -8.8552  -46.0647 C.2       2 UNK         0.5000 
     61 O           0.9679   -7.8009  -45.5880 O.2       2 UNK        -0.5000 
     62 CA         -0.9309   -9.2387  -45.8368 C.3       2 UNK         0.1400 
     63 CB         -1.8329   -8.5285  -46.8580 C.3       2 UNK        -0.1800 
     64 N          -1.1694  -10.6791  -45.9176 N.am      2 UNK        -0.5000 
     65 C          -0.8093  -11.5654  -44.9791 C.2       1 UNK         0.5000 
     66 O          -0.3052  -11.2499  -43.9008 O.2       1 UNK        -0.5000 
     67 C          -2.7526  -23.6519  -45.5910 C.2       11 UNK         0.5000 
     68 O          -3.6893  -24.3431  -45.9909 O.2       11 UNK        -0.5000 
     69 N          -1.8686  -24.0688  -44.6745 N.am      12 UNK        -0.5000 
     70 CA         -1.8752  -25.4031  -44.0810 C.3       12 UNK         0.1400 
     71 CB         -0.9717  -25.4116  -42.8380 C.3       12 UNK        -0.1800 
     72 C          -1.4520  -26.4989  -45.0778 C.2       12 UNK         0.5000 
     73 O          -2.1092  -27.5379  -45.1504 O.2       12 UNK        -0.5000 
     74 N          -0.3563  -26.2591  -45.8102 N.am      13 UNK        -0.5000 
     75 CA          0.2723  -27.2414  -46.6925 C.3       13 UNK         0.1400 
     76 CB          1.7225  -26.8169  -46.9718 C.3       13 UNK        -0.1800 
     77 C          -0.4753  -27.4721  -48.0171 C.2       13 UNK         0.5000 
     78 O          -0.5782  -28.6202  -48.4520 O.2       13 UNK        -0.5000 
     79 N          -0.9433  -26.3905  -48.6520 N.am      14 UNK        -0.5000 
     80 CA         -1.4552  -26.3912  -50.0248 C.3       14 UNK         0.1400 
     81 CB         -0.5425  -25.5038  -50.8917 C.3       14 UNK        -0.1800 
     82 C          -2.9336  -25.9742  -50.1270 C.2       14 UNK         0.5000 
     83 O          -3.4281  -25.8280  -51.2427 O.2       14 UNK        -0.5000 
     84 N          -3.6242  -25.8281  -48.9885 N.am      15 UNK        -0.5000 
     85 CA         -5.0446  -25.4838  -48.8647 C.3       15 UNK         0.1400 
     86 CB         -5.9449  -26.5604  -49.5167 C.3       15 UNK        -0.1800 
     87 C          -5.3522  -24.0350  -49.3069 C.2       15 UNK         0.5000 
     88 O          -4.6116  -23.1270  -48.9361 O.2       15 UNK        -0.5000 
     89 N          -6.4744  -23.8290  -50.0105 N.am      16 UNK        -0.5000 
     90 CA         -7.0608  -22.5260  -50.3347 C.3       16 UNK         0.1400 
     91 CB         -8.3891  -22.7567  -51.0709 C.3       16 UNK        -0.1800 
     92 C          -6.1483  -21.5928  -51.1550 C.2       16 UNK         0.5000 
     93 O          -5.5145  -22.0373  -52.1160 O.2       16 UNK        -0.5000 
     94 N          -6.1457  -20.3063  -50.7771 N.am      17 UNK        -0.5000 
     95 CA         -5.4109  -19.2236  -51.4327 C.3       17 UNK         0.1400 
     96 CB         -5.5963  -17.9266  -50.6290 C.3       17 UNK        -0.1800 
     97 C          -5.8850  -18.9970  -52.8777 C.2       17 UNK         0.5000 
     98 O          -7.0927  -18.9862  -53.1281 O.2       17 UNK        -0.5000 
     99 N          -4.9256  -18.8274  -53.7938 N.am      18 UNK        -0.5000 
    100 CA        -5.0360  -18.6159  -55.2424 C.3       18 UNK         0.1400 
    101 CB        -5.8529  -17.3522  -55.5716 C.3       18 UNK        -0.1800 
    102 C         -5.5545  -19.8405  -56.0212 C.2       18 UNK         0.5000 
    103 O         -5.0873  -20.0908  -57.1328 O.2       18 UNK        -0.5000 
    104 N         -6.4906  -20.5896  -55.4283 N.am      19 UNK        -0.5000 
    105 CA        -7.0531  -21.8284  -55.9565 C.3       19 UNK         0.1400 
    106 CB        -8.2972  -22.1968  -55.1355 C.3       19 UNK        -0.1800 
    107 C         -6.0459  -22.9928  -55.9642 C.2       19 UNK         0.5000 
    108 O         -6.1241  -23.8417  -56.8538 O.2       19 UNK        -0.5000 
    109 N         -5.1249  -23.0168  -54.9913 N.am      20 UNK        -0.5000 
    110 CA        -4.1040  -24.0530  -54.8584 C.3       20 UNK         0.1400 
    111 CB        -4.6817  -25.2652  -54.1097 C.3       20 UNK        -0.1800 
    112 C         -2.8251  -23.5180  -54.1953 C.2       20 UNK         0.5000 
    113 O         -1.7376  -23.7327  -54.7334 O.2       20 UNK        -0.5000 
    114 N         -2.9619  -22.8216  -53.0610 N.am      21 UNK        -0.5000 
    115 CA        -1.8514  -22.1978  -52.3420 C.3       21 UNK         0.1400 
    116 CB        -2.1935  -22.1474  -50.8476 C.3       21 UNK        -0.1800 
    117 C         -1.6007  -20.7738  -52.8575 C.2       21 UNK         0.5000 
    118 O         -2.5489  -20.1115  -53.2786 O.2       21 UNK        -0.5000 
    119 N         -0.3455  -20.3168  -52.7527 N.am      22 UNK        -0.5000 
    120 CA         0.1359  -18.9603  -53.0772 C.3       22 UNK         0.1400 
    121 C         -0.3933  -18.3672  -54.4211 C.2       22 UNK         0.5000 
    122 N         -1.0177  -17.1963  -54.4264 N.am      22 UNK        -0.7600 
    123 O         -0.1855  -18.9538  -55.4805 O.2       22 UNK        -0.5000 
    124 C124        0.1217  -17.9927  -51.8549 C.3       23 UNK        -0.0398 
    125 S125       -1.5039  -17.7100  -51.0621 S.3       23 UNK        -0.2404 
    126 C126       -1.2131  -18.4823  -49.4409 C.3       23 UNK        -0.0205 
    127 H127        0.6454  -14.4306  -49.1946 H         1 UNK         0.0600 
    128 H128        0.1129  -12.8220  -49.6956 H         1 UNK         0.0600 
    129 H129       -1.0751  -14.0330  -49.2049 H         1 UNK         0.0600 
    130 H130       -1.8015  -13.8228  -47.1145 H         1 UNK         0.3000 
    131 H131       -0.2004  -13.5957  -44.8511 H         1 UNK         0.0600 
    132 H132       -2.3311  -13.3524  -43.5824 H         1 UNK         0.0800 
    133 H133       -3.2085  -13.0630  -45.0622 H         1 UNK         0.0800 
    134 H134       -4.7068  -15.3370  -45.8551 H         1 UNK         0.0800 
    135 H135       -3.5077  -14.6788  -46.9392 H         1 UNK         0.0800 
    136 H136       -1.8512  -16.2145  -48.0869 H         1 UNK         0.1150 
    137 H137       -3.1310  -20.2624  -48.6538 H         1 UNK         0.1150 
    138 H138       -5.2279  -17.7182  -45.9144 H         1 UNK         0.1150 
    139 H139       -6.2638  -19.8834  -46.9560 H         1 UNK         0.0800 
    140 H140       -5.1724  -21.0240  -47.6845 H         1 UNK         0.0800 
    141 H141       -2.8137  -21.3312  -44.2024 H         1 UNK         0.0800 
    142 H142       -2.6598  -20.1731  -45.4750 H         1 UNK         0.0800 
    143 H143       -3.0606  -22.1914  -47.1234 H         1 UNK         0.0600 
    144 H144       -0.6928  -21.1752  -46.0551 H         1 UNK         0.3000 
    145 H145        1.6576  -23.2609  -47.7488 H         1 UNK         0.0600 
    146 H146        2.4745  -21.0145  -48.4313 H         1 UNK         0.0600 
    147 H147        1.0616  -21.4796  -49.3652 H         1 UNK         0.0600 
    148 H148        0.9031  -20.3066  -48.0678 H         1 UNK         0.0600 
    149 H149        1.8594  -21.0824  -45.8658 H         1 UNK         0.3000 
    150 H150        1.8520  -23.1068  -42.9219 H         1 UNK         0.0600 
    151 H151        4.1839  -23.2692  -43.6766 H         1 UNK         0.0600 
    152 H152        4.0212  -21.8832  -42.6082 H         1 UNK         0.0600 
    153 H153        4.1355  -21.6488  -44.3527 H         1 UNK         0.0600 
    154 H154        2.1654  -20.2845  -43.4962 H         1 UNK         0.3000 
    155 H155       -1.2989  -19.4885  -43.3959 H         1 UNK         0.0600 
    156 H156       -0.9099  -19.7654  -40.9518 H         1 UNK         0.0600 
    157 H157       -0.7345  -18.0825  -41.4273 H         1 UNK         0.0600 
    158 H158        0.6962  -19.0628  -41.1102 H         1 UNK         0.0600 
    159 H159        1.0177  -17.8386  -43.2540 H         1 UNK         0.3000 
    160 H160        2.1598  -18.1254  -46.5535 H         1 UNK         0.0600 
    161 H161        0.4119  -15.7859  -45.6416 H         1 UNK         0.0600 
    162 H162        0.2119  -16.6928  -47.1345 H         1 UNK         0.0600 
    163 H163        1.6499  -15.7145  -46.8942 H         1 UNK         0.0600 
    164 H164        2.6556  -16.0866  -44.6492 H         1 UNK         0.3000 
    165 H165        4.4715  -17.8331  -42.2315 H         1 UNK         0.0600 
    166 H166        6.4836  -16.5208  -42.8577 H         1 UNK         0.0600 
    167 H167        6.2708  -17.8575  -43.9761 H         1 UNK         0.0600 
    168 H168        5.8258  -16.2276  -44.4685 H         1 UNK         0.0600 
    169 H169        4.4482  -15.0684  -42.7615 H         1 UNK         0.3000 
    170 H170        1.2205  -14.1200  -42.0049 H         1 UNK         0.0600 
    171 H171        1.8351  -14.6320  -39.6358 H         1 UNK         0.0600 
    172 H172        3.4538  -13.9971  -39.9054 H         1 UNK         0.0600 
    173 H173        2.0533  -12.9271  -39.9935 H         1 UNK         0.0600 
    174 H174        3.6255  -12.6143  -41.9526 H         1 UNK         0.3000 
    175 H175        4.1795  -11.3101  -43.6388 H         1 UNK         0.0600 
    176 H176        5.0241  -13.3867  -45.7464 H         1 UNK         0.0600 
    177 H177        5.9248  -11.9333  -45.3190 H         1 UNK         0.0600 
    178 H178        5.7376  -13.2246  -44.1456 H         1 UNK         0.0600 
    179 H179        2.4683  -11.8249  -45.9283 H         1 UNK         0.3000 
    180 H180        2.9363   -8.4308  -47.1087 H         1 UNK         0.0600 
    181 H181        2.9269  -11.1813  -48.4564 H         1 UNK         0.0600 
    182 H182        4.1255   -9.9156  -48.6725 H         1 UNK         0.0600 
    183 H183        2.4771   -9.6598  -49.2237 H         1 UNK         0.0600 
    184 H184        0.9090  -10.5861  -47.0786 H         1 UNK         0.3000 
    185 H185       -1.2113   -8.8961  -44.8384 H         1 UNK         0.0600 
    186 H186       -1.7037   -7.4465  -46.8074 H         1 UNK         0.0600 
    187 H187       -1.6071   -8.8385  -47.8792 H         1 UNK         0.0600 
    188 H188       -2.8857   -8.7377  -46.6676 H         1 UNK         0.0600 
    189 H189       -1.5736  -11.0265  -46.7750 H         1 UNK         0.3000 
    190 H190       -1.1530  -23.4265  -44.3534 H         1 UNK         0.3000 
    191 H191       -2.8937  -25.6248  -43.7550 H         1 UNK         0.0600 
    192 H192        0.0630  -25.1746  -43.0868 H         1 UNK         0.0600 
    193 H193       -1.3110  -24.6840  -42.1004 H         1 UNK         0.0600 
    194 H194       -0.9782  -26.3906  -42.3574 H         1 UNK         0.0600 
    195 H195        0.1547  -25.3927  -45.6626 H         1 UNK         0.3000 
    196 H196        0.3051  -28.1970  -46.1645 H         1 UNK         0.0600 
    197 H197        2.2964  -26.7439  -46.0478 H         1 UNK         0.0600 
    198 H198        1.7683  -25.8484  -47.4713 H         1 UNK         0.0600 
    199 H199        2.2276  -27.5416  -47.6116 H         1 UNK         0.0600 
    200 H200       -0.8386  -25.4696  -48.2278 H         1 UNK         0.3000 
    201 H201       -1.4135  -27.3978  -50.4449 H         1 UNK         0.0600 
    202 H202       -0.8996  -25.4459  -51.9208 H         1 UNK         0.0600 
    203 H203        0.4708  -25.9038  -50.9248 H         1 UNK         0.0600 
    204 H204       -0.4820  -24.4874  -50.5057 H         1 UNK         0.0600 
    205 H205       -3.1188  -25.9074  -48.1173 H         1 UNK         0.3000 
    206 H206       -5.2559  -25.5089  -47.7954 H         1 UNK         0.0600 
    207 H207       -5.6670  -27.5582  -49.1769 H         1 UNK         0.0600 
    208 H208       -5.8778  -26.5518  -50.6052 H         1 UNK         0.0600 
    209 H209       -6.9917  -26.4159  -49.2473 H         1 UNK         0.0600 
    210 H210       -7.0045  -24.6368  -50.3001 H         1 UNK         0.3000 
    211 H211       -7.2817  -22.0347  -49.3849 H         1 UNK         0.0600 
    212 H212       -9.1088  -23.2710  -50.4337 H         1 UNK         0.0600 
    213 H213       -8.2477  -23.3594  -51.9684 H         1 UNK         0.0600 
    214 H214       -8.8426  -21.8122  -51.3752 H         1 UNK         0.0600 
    215 H215       -6.7375  -20.0270  -50.0097 H         1 UNK         0.3000 
    216 H216       -4.3520  -19.4875  -51.4280 H         1 UNK         0.0600 
    217 H217       -4.9852  -17.1239  -51.0439 H         1 UNK         0.0600 
    218 H218       -6.6337  -17.5899  -50.6392 H         1 UNK         0.0600 
    219 H219       -5.3005  -18.0487  -49.5902 H         1 UNK         0.0600 
    220 H220       -3.9702  -19.0157  -53.4895 H         1 UNK         0.3000 
    221 H221       -4.0140  -18.4436  -55.5841 H         1 UNK         0.0600 
    222 H222       -5.8222  -17.1399  -56.6409 H         1 UNK         0.0600 
    223 H223       -5.4536  -16.4794  -55.0550 H         1 UNK         0.0600 
    224 H224       -6.9015  -17.4582  -55.2929 H         1 UNK         0.0600 
    225 H225       -6.8401  -20.2684  -54.5305 H         1 UNK         0.3000 
    226 H226       -7.3630  -21.6490  -56.9881 H         1 UNK         0.0600 
    227 H227       -9.0561  -21.4165  -55.1969 H         1 UNK         0.0600 
    228 H228       -8.7489  -23.1208  -55.4989 H         1 UNK         0.0600 
    229 H229       -8.0497  -22.3408  -54.0841 H         1 UNK         0.0600 
    230 H230       -5.1347  -22.2954  -54.2801 H         1 UNK         0.3000 
    231 H231       -3.8097  -24.3861  -55.8563 H         1 UNK         0.0600 
    232 H232       -3.9153  -26.0217  -53.9375 H         1 UNK         0.0600 
    233 H233       -5.4821  -25.7378  -54.6787 H         1 UNK         0.0600 
    234 H234       -5.0889  -24.9757  -53.1401 H         1 UNK         0.0600 
    235 H235       -3.8908  -22.6457  -52.6840 H         1 UNK         0.3000 
    236 H236       -0.9465  -22.7949  -52.4713 H         1 UNK         0.0600 
    237 H237       -2.4352  -23.1362  -50.4638 H         1 UNK         0.0600 
    238 H238       -1.3540  -21.7741  -50.2624 H         1 UNK         0.0600 
    239 H239       -3.0497  -21.5015  -50.6532 H         1 UNK         0.0600 
    240 H240        0.3642  -20.9500  -52.4156 H         1 UNK         0.3000 
    241 H241        1.1942  -19.1139  -53.2925 H         1 UNK         0.0600 
    242 H242       -1.3326  -16.8087  -55.3014 H         1 UNK         0.3800 
    243 H243       -1.2265  -16.7198  -53.5626 H         1 UNK         0.3800 
    244 H244        0.8130  -18.3787  -51.1050 H         1 UNK         0.0800 
    245 H245        0.5371  -17.0234  -52.1347 H         1 UNK         0.0800 
    246 H246       -0.3037  -18.0737  -48.9997 H         1 UNK         0.0800 
    247 H247       -1.0332  -19.5480  -49.5798 H         1 UNK         0.0800 
@<TRIPOS>BOND
     1    1    2 1    
     2    1  127 1    
     3    1  128 1    
     4    1  129 1    
     5    2    3 2    
     6    2    4 am   BACKBONE|DICT|INTERRES
     7    4    5 1    
     8    4  130 1    
     9    5    6 1    
    10    5   65 1    
    11    5  131 1    
    12    6    7 1    
    13    6  132 1    
    14    6  133 1    
    15    7    8 1    
    16    8    9 1    
    17    8  134 1    
    18    8  135 1    
    19    9   10 ar   
    20    9   14 ar   
    21   10   11 ar   
    22   10  136 1    
    23   11   12 ar   
    24   11  126 1    
    25   12   13 ar   
    26   12  137 1    
    27   13   14 ar   
    28   13   15 1    
    29   14  138 1    
    30   15   16 1    
    31   15  139 1    
    32   15  140 1    
    33   16   17 1    
    34   17   18 1    
    35   17  141 1    
    36   17  142 1    
    37   18   19 1    
    38   18   67 1    
    39   18  143 1    
    40   19   20 am   BACKBONE|DICT|INTERRES
    41   19  144 1    
    42   20   21 2    
    43   20   22 1    
    44   22   23 1    
    45   22   24 1    
    46   22  145 1    
    47   23  146 1    
    48   23  147 1    
    49   23  148 1    
    50   24   25 am   BACKBONE|DICT|INTERRES
    51   24  149 1    
    52   25   26 2    
    53   25   27 1    
    54   27   28 1    
    55   27   29 1    
    56   27  150 1    
    57   28  151 1    
    58   28  152 1    
    59   28  153 1    
    60   29   30 am   BACKBONE|DICT|INTERRES
    61   29  154 1    
    62   30   31 2    
    63   30   32 1    
    64   32   33 1    
    65   32   34 1    
    66   32  155 1    
    67   33  156 1    
    68   33  157 1    
    69   33  158 1    
    70   34   35 am   BACKBONE|DICT|INTERRES
    71   34  159 1    
    72   35   36 2    
    73   35   37 1    
    74   37   38 1    
    75   37   39 1    
    76   37  160 1    
    77   38  161 1    
    78   38  162 1    
    79   38  163 1    
    80   39   40 am   BACKBONE|DICT|INTERRES
    81   39  164 1    
    82   40   41 2    
    83   40   42 1    
    84   42   43 1    
    85   42   44 1    
    86   42  165 1    
    87   43  166 1    
    88   43  167 1    
    89   43  168 1    
    90   44   45 am   BACKBONE|DICT|INTERRES
    91   44  169 1    
    92   45   46 2    
    93   45   47 1    
    94   47   48 1    
    95   47   49 1    
    96   47  170 1    
    97   48  171 1    
    98   48  172 1    
    99   48  173 1    
   100   49   50 am   BACKBONE|DICT|INTERRES
   101   49  174 1    
   102   50   51 2    
   103   50   52 1    
   104   52   53 1    
   105   52   54 1    
   106   52  175 1    
   107   53  176 1    
   108   53  177 1    
   109   53  178 1    
   110   54   55 am   BACKBONE|DICT|INTERRES
   111   54  179 1    
   112   55   56 2    
   113   55   57 1    
   114   57   58 1    
   115   57   59 1    
   116   57  180 1    
   117   58  181 1    
   118   58  182 1    
   119   58  183 1    
   120   59   60 am   BACKBONE|DICT|INTERRES
   121   59  184 1    
   122   60   61 2    
   123   60   62 1    
   124   62   63 1    
   125   62   64 1    
   126   62  185 1    
   127   63  186 1    
   128   63  187 1    
   129   63  188 1    
   130   64   65 am   BACKBONE|DICT|INTERRES
   131   64  189 1    
   132   65   66 2    
   133   67   68 2    
   134   67   69 am   BACKBONE|DICT|INTERRES
   135   69   70 1    
   136   69  190 1    
   137   70   71 1    
   138   70   72 1    
   139   70  191 1    
   140   71  192 1    
   141   71  193 1    
   142   71  194 1    
   143   72   73 2    
   144   72   74 am   BACKBONE|DICT|INTERRES
   145   74   75 1    
   146   74  195 1    
   147   75   76 1    
   148   75   77 1    
   149   75  196 1    
   150   76  197 1    
   151   76  198 1    
   152   76  199 1    
   153   77   78 2    
   154   77   79 am   BACKBONE|DICT|INTERRES
   155   79   80 1    
   156   79  200 1    
   157   80   81 1    
   158   80   82 1    
   159   80  201 1    
   160   81  202 1    
   161   81  203 1    
   162   81  204 1    
   163   82   83 2    
   164   82   84 am   BACKBONE|DICT|INTERRES
   165   84   85 1    
   166   84  205 1    
   167   85   86 1    
   168   85   87 1    
   169   85  206 1    
   170   86  207 1    
   171   86  208 1    
   172   86  209 1    
   173   87   88 2    
   174   87   89 am   BACKBONE|DICT|INTERRES
   175   89   90 1    
   176   89  210 1    
   177   90   91 1    
   178   90   92 1    
   179   90  211 1    
   180   91  212 1    
   181   91  213 1    
   182   91  214 1    
   183   92   93 2    
   184   92   94 am   BACKBONE|DICT|INTERRES
   185   94   95 1    
   186   94  215 1    
   187   95   96 1    
   188   95   97 1    
   189   95  216 1    
   190   96  217 1    
   191   96  218 1    
   192   96  219 1    
   193   97   98 2    
   194   97   99 am   BACKBONE|DICT|INTERRES
   195   99  100 1    
   196   99  220 1    
   197  100  101 1    
   198  100  102 1    
   199  100  221 1    
   200  101  222 1    
   201  101  223 1    
   202  101  224 1    
   203  102  103 2    
   204  102  104 am   BACKBONE|DICT|INTERRES
   205  104  105 1    
   206  104  225 1    
   207  105  106 1    
   208  105  107 1    
   209  105  226 1    
   210  106  227 1    
   211  106  228 1    
   212  106  229 1    
   213  107  108 2    
   214  107  109 am   BACKBONE|DICT|INTERRES
   215  109  110 1    
   216  109  230 1    
   217  110  111 1    
   218  110  112 1    
   219  110  231 1    
   220  111  232 1    
   221  111  233 1    
   222  111  234 1    
   223  112  113 2    
   224  112  114 am   BACKBONE|DICT|INTERRES
   225  114  115 1    
   226  114  235 1    
   227  115  116 1    
   228  115  117 1    
   229  115  236 1    
   230  116  237 1    
   231  116  238 1    
   232  116  239 1    
   233  117  118 2    
   234  117  119 am   BACKBONE|DICT|INTERRES
   235  119  120 1    
   236  119  240 1    
   237  120  121 1    
   238  120  124 1    
   239  120  241 1    
   240  121  122 am   BACKBONE|DICT|INTERRES
   241  121  123 2    
   242  122  242 1    
   243  122  243 1    
   244  124  125 1    
   245  124  244 1    
   246  124  245 1    
   247  125  126 1    
   248  126  246 1    
   249  126  247 1    
@<TRIPOS>SUBSTRUCTURE
     1 UNK         1 GROUP             0       ****    0 ROOT    
