@<TRIPOS>MOLECULE
3R540
247   249    1
SMALL
USER_CHARGES


@<TRIPOS>ATOM
      1 CA          7.3880  -14.0979  -46.9023 C.3       0 UNK        -0.1800 
      2 C           6.1558  -13.2292  -47.1124 C.2       0 UNK         0.5000 
      3 O           6.2840  -12.0839  -47.5449 O.2       0 UNK        -0.5000 
      4 N           4.9710  -13.7757  -46.8042 N.am      1 UNK        -0.5000 
      5 CA          3.6499  -13.1385  -46.9311 C.3       1 UNK         0.1400 
      6 C6          3.2244  -12.8490  -48.3975 C.3       23 UNK        -0.0398 
      7 S7          3.3663  -14.2969  -49.4989 S.3       23 UNK        -0.2404 
      8 C8          1.7995  -15.1628  -49.1788 C.3       23 UNK        -0.0205 
      9 C9          1.6466  -16.3434  -50.1237 C.ar      23 UNK        -0.0193 
     10 C10         0.8881  -16.2189  -51.2928 C.ar      23 UNK        -0.1150 
     11 C11         0.7928  -17.2853  -52.1920 C.ar      23 UNK        -0.0193 
     12 C12         1.4629  -18.4794  -51.9144 C.ar      23 UNK        -0.1150 
     13 C13         2.2126  -18.6202  -50.7439 C.ar      23 UNK        -0.0193 
     14 C14         2.2945  -17.5515  -49.8467 C.ar      23 UNK        -0.1150 
     15 C15         2.9533  -19.9201  -50.4706 C.3       23 UNK        -0.0205 
     16 S16         1.8123  -21.2715  -50.0482 S.3       23 UNK        -0.2404 
     17 C17         1.2092  -20.7247  -48.4169 C.3       23 UNK        -0.0398 
     18 CA          0.7306  -21.9112  -47.5491 C.3       11 UNK         0.1400 
     19 N           0.7386  -21.5915  -46.1212 N.am      11 UNK        -0.5000 
     20 C           0.5588  -22.4915  -45.1438 C.2       10 UNK         0.5000 
     21 O           0.4224  -23.6996  -45.3411 O.2       10 UNK        -0.5000 
     22 CA          0.4679  -21.9422  -43.7093 C.3       10 UNK         0.1400 
     23 CB          1.8685  -21.6714  -43.1403 C.3       10 UNK        -0.1800 
     24 N          -0.3441  -20.7268  -43.6255 N.am      10 UNK        -0.5000 
     25 C          -1.6526  -20.6698  -43.9133 C.2       9 UNK         0.5000 
     26 O          -2.3246  -21.6504  -44.2310 O.2       9 UNK        -0.5000 
     27 CA         -2.3136  -19.2804  -43.8914 C.3       9 UNK         0.1400 
     28 CB         -2.6395  -18.8514  -42.4533 C.3       9 UNK        -0.1800 
     29 N          -1.4963  -18.2540  -44.5382 N.am      9 UNK        -0.5000 
     30 C          -1.1443  -18.2546  -45.8318 C.2       8 UNK         0.5000 
     31 O          -1.4931  -19.1154  -46.6376 O.2       8 UNK        -0.5000 
     32 CA         -0.1956  -17.1350  -46.2911 C.3       8 UNK         0.1400 
     33 CB         -0.9564  -15.8191  -46.5166 C.3       8 UNK        -0.1800 
     34 N           0.8916  -16.9213  -45.3369 N.am      8 UNK        -0.5000 
     35 C           1.8662  -17.8089  -45.0926 C.2       7 UNK         0.5000 
     36 O           1.9735  -18.8877  -45.6751 O.2       7 UNK        -0.5000 
     37 CA          2.8640  -17.4404  -43.9807 C.3       7 UNK         0.1400 
     38 CB          3.9443  -16.4889  -44.5167 C.3       7 UNK        -0.1800 
     39 N           2.2096  -16.8269  -42.8240 N.am      7 UNK        -0.5000 
     40 C           1.3570  -17.4647  -42.0095 C.2       6 UNK         0.5000 
     41 O           1.0475  -18.6490  -42.1324 O.2       6 UNK        -0.5000 
     42 CA          0.7033  -16.6190  -40.9026 C.3       6 UNK         0.1400 
     43 CB          1.6349  -16.4975  -39.6875 C.3       6 UNK        -0.1800 
     44 N           0.3197  -15.2794  -41.3532 N.am      6 UNK        -0.5000 
     45 C          -0.5806  -15.0165  -42.3111 C.2       5 UNK         0.5000 
     46 O          -1.1400  -15.8960  -42.9655 O.2       5 UNK        -0.5000 
     47 CA         -0.8803  -13.5380  -42.6313 C.3       5 UNK         0.1400 
     48 CB         -2.3910  -13.2743  -42.7919 C.3       5 UNK        -0.1800 
     49 N          -0.2650  -12.5729  -41.7115 N.am      5 UNK        -0.5000 
     50 C          -0.5463  -12.3542  -40.4162 C.2       4 UNK         0.5000 
     51 O          -1.3858  -12.9911  -39.7800 O.2       4 UNK        -0.5000 
     52 CA          0.2663  -11.2570  -39.6937 C.3       4 UNK         0.1400 
     53 CB          1.3254  -11.8951  -38.7804 C.3       4 UNK        -0.1800 
     54 N           0.9364  -10.3281  -40.6067 N.am      4 UNK        -0.5000 
     55 C           0.3174   -9.4182  -41.3718 C.2       3 UNK         0.5000 
     56 O          -0.8892   -9.1810  -41.3064 O.2       3 UNK        -0.5000 
     57 CA          1.1820   -8.6661  -42.4060 C.3       3 UNK         0.1400 
     58 CB          1.5200   -7.2566  -41.8960 C.3       3 UNK        -0.1800 
     59 N           2.4291   -9.3438  -42.7873 N.am      3 UNK        -0.5000 
     60 C           2.5240  -10.5537  -43.3563 C.2       2 UNK         0.5000 
     61 O           1.5604  -11.3000  -43.5450 O.2       2 UNK        -0.5000 
     62 CA          3.9467  -11.0256  -43.7147 C.3       2 UNK         0.1400 
     63 CB          4.6446  -11.5923  -42.4678 C.3       2 UNK        -0.1800 
     64 N           3.9676  -12.0498  -44.7610 N.am      2 UNK        -0.5000 
     65 C           3.5259  -11.8957  -46.0181 C.2       1 UNK         0.5000 
     66 O           3.0714  -10.8376  -46.4588 O.2       1 UNK        -0.5000 
     67 C          -0.6447  -22.4405  -48.0048 C.2       11 UNK         0.5000 
     68 O          -0.7018  -23.4711  -48.6730 O.2       11 UNK        -0.5000 
     69 N          -1.7282  -21.7673  -47.5923 N.am      12 UNK        -0.5000 
     70 CA         -3.1079  -22.1656  -47.8705 C.3       12 UNK         0.1400 
     71 CB         -4.0745  -21.0781  -47.3799 C.3       12 UNK        -0.1800 
     72 C          -3.4728  -23.5354  -47.2716 C.2       12 UNK         0.5000 
     73 O          -4.1134  -24.3379  -47.9488 O.2       12 UNK        -0.5000 
     74 N          -3.0234  -23.8007  -46.0374 N.am      13 UNK        -0.5000 
     75 CA         -3.1881  -25.0864  -45.3574 C.3       13 UNK         0.1400 
     76 CB         -2.7123  -24.9637  -43.9020 C.3       13 UNK        -0.1800 
     77 C          -2.4657  -26.2435  -46.0740 C.2       13 UNK         0.5000 
     78 O          -3.0082  -27.3473  -46.1363 O.2       13 UNK        -0.5000 
     79 N          -1.2723  -25.9676  -46.6180 N.am      14 UNK        -0.5000 
     80 CA         -0.4950  -26.9120  -47.4194 C.3       14 UNK         0.1400 
     81 CB          0.9577  -26.4211  -47.5214 C.3       14 UNK        -0.1800 
     82 C          -1.1011  -27.1364  -48.8182 C.2       14 UNK         0.5000 
     83 O          -1.1672  -28.2788  -49.2737 O.2       14 UNK        -0.5000 
     84 N          -1.5260  -26.0472  -49.4731 N.am      15 UNK        -0.5000 
     85 CA         -2.1080  -26.0475  -50.8162 C.3       15 UNK         0.1400 
     86 CB         -2.1310  -24.6089  -51.3537 C.3       15 UNK        -0.1800 
     87 C          -3.5131  -26.6741  -50.8772 C.2       15 UNK         0.5000 
     88 O          -3.8491  -27.2969  -51.8859 O.2       15 UNK        -0.5000 
     89 N          -4.3025  -26.5034  -49.8063 N.am      16 UNK        -0.5000 
     90 CA         -5.6616  -27.0140  -49.6142 C.3       16 UNK         0.1400 
     91 CB         -5.6395  -28.5475  -49.4299 C.3       16 UNK        -0.1800 
     92 C          -6.6092  -26.5247  -50.7278 C.2       16 UNK         0.5000 
     93 O          -6.9305  -25.3375  -50.7641 O.2       16 UNK        -0.5000 
     94 N          -7.0105  -27.4191  -51.6407 N.am      17 UNK        -0.5000 
     95 CA         -7.8447  -27.1092  -52.8051 C.3       17 UNK         0.1400 
     96 CB         -8.2262  -28.4198  -53.5095 C.3       17 UNK        -0.1800 
     97 C          -7.1844  -26.1334  -53.8017 C.2       17 UNK         0.5000 
     98 O          -7.8957  -25.4012  -54.4904 O.2       17 UNK        -0.5000 
     99 N          -5.8446  -26.1168  -53.8460 N.am      18 UNK        -0.5000 
    100 CA        -5.0527  -25.2277  -54.6975 C.3       18 UNK         0.1400 
    101 CB        -3.7182  -25.9151  -55.0320 C.3       18 UNK        -0.1800 
    102 C         -4.8222  -23.8327  -54.0793 C.2       18 UNK         0.5000 
    103 O         -4.1792  -22.9995  -54.7168 O.2       18 UNK        -0.5000 
    104 N         -5.3246  -23.5851  -52.8589 N.am      19 UNK        -0.5000 
    105 CA        -5.1833  -22.3043  -52.1604 C.3       19 UNK         0.1400 
    106 CB        -5.5778  -22.4793  -50.6883 C.3       19 UNK        -0.1800 
    107 C         -6.0103  -21.1657  -52.7858 C.2       19 UNK         0.5000 
    108 O         -5.6584  -20.0016  -52.5935 O.2       19 UNK        -0.5000 
    109 N         -7.0871  -21.5157  -53.5067 N.am      20 UNK        -0.5000 
    110 CA        -8.0255  -20.6124  -54.1774 C.3       20 UNK         0.1400 
    111 CB        -9.1056  -21.4539  -54.8769 C.3       20 UNK        -0.1800 
    112 C         -7.3164  -19.6682  -55.1673 C.2       20 UNK         0.5000 
    113 O         -6.9496  -20.0933  -56.2653 O.2       20 UNK        -0.5000 
    114 N         -7.0682  -18.4285  -54.7168 N.am      21 UNK        -0.5000 
    115 CA        -6.2848  -17.3761  -55.3805 C.3       21 UNK         0.1400 
    116 CB        -7.0454  -16.8406  -56.6114 C.3       21 UNK        -0.1800 
    117 C         -4.8350  -17.7999  -55.7183 C.2       21 UNK         0.5000 
    118 O         -4.2399  -17.2544  -56.6494 O.2       21 UNK        -0.5000 
    119 N         -4.3093  -18.7851  -54.9753 N.am      22 UNK        -0.5000 
    120 CA        -3.0538  -19.5086  -55.2425 C.3       22 UNK         0.1400 
    121 C         -3.0420  -20.3048  -56.5886 C.2       22 UNK         0.5000 
    122 N         -4.1834  -20.6077  -57.1982 N.am      22 UNK        -0.7600 
    123 O         -1.9820  -20.6755  -57.0866 O.2       22 UNK        -0.5000 
    124 C124       -1.7892  -18.6226  -55.0567 C.3       23 UNK        -0.0398 
    125 S125       -1.6184  -17.9800  -53.3571 S.3       23 UNK        -0.2404 
    126 C126       -0.0027  -17.1499  -53.4808 C.3       23 UNK        -0.0205 
    127 H127        7.9156  -14.2342  -47.8463 H         1 UNK         0.0600 
    128 H128        7.1296  -15.0827  -46.5122 H         1 UNK         0.0600 
    129 H129        8.0675  -13.6204  -46.1963 H         1 UNK         0.0600 
    130 H130        4.9572  -14.7298  -46.4759 H         1 UNK         0.3000 
    131 H131        2.9336  -13.8585  -46.5331 H         1 UNK         0.0600 
    132 H132        3.8411  -12.0541  -48.8200 H         1 UNK         0.0800 
    133 H133        2.1972  -12.4822  -48.4338 H         1 UNK         0.0800 
    134 H134        0.9626  -14.4724  -49.2946 H         1 UNK         0.0800 
    135 H135        1.7825  -15.5104  -48.1452 H         1 UNK         0.0800 
    136 H136        0.3879  -15.2859  -51.5118 H         1 UNK         0.1150 
    137 H137        1.3985  -19.3041  -52.6106 H         1 UNK         0.1150 
    138 H138        2.8835  -17.6479  -48.9451 H         1 UNK         0.1150 
    139 H139        3.5181  -20.2023  -51.3603 H         1 UNK         0.0800 
    140 H140        3.6866  -19.7943  -49.6725 H         1 UNK         0.0800 
    141 H141        0.4288  -19.9720  -48.5445 H         1 UNK         0.0800 
    142 H142        2.0366  -20.2201  -47.9178 H         1 UNK         0.0800 
    143 H143        1.4461  -22.7269  -47.6768 H         1 UNK         0.0600 
    144 H144        0.8818  -20.6183  -45.8733 H         1 UNK         0.3000 
    145 H145       -0.0087  -22.7058  -43.0912 H         1 UNK         0.0600 
    146 H146        1.8161  -21.3706  -42.0938 H         1 UNK         0.0600 
    147 H147        2.3809  -20.8810  -43.6897 H         1 UNK         0.0600 
    148 H148        2.4910  -22.5655  -43.1909 H         1 UNK         0.0600 
    149 H149        0.1301  -19.8834  -43.3147 H         1 UNK         0.3000 
    150 H150       -3.2524  -19.3511  -44.4441 H         1 UNK         0.0600 
    151 H151       -3.2722  -19.5897  -41.9592 H         1 UNK         0.0600 
    152 H152       -3.1738  -17.9012  -42.4374 H         1 UNK         0.0600 
    153 H153       -1.7371  -18.7364  -41.8527 H         1 UNK         0.0600 
    154 H154       -1.2028  -17.4757  -43.9526 H         1 UNK         0.3000 
    155 H155        0.2443  -17.4401  -47.2433 H         1 UNK         0.0600 
    156 H156       -1.7301  -15.9455  -47.2749 H         1 UNK         0.0600 
    157 H157       -0.2910  -15.0280  -46.8612 H         1 UNK         0.0600 
    158 H158       -1.4456  -15.4700  -45.6070 H         1 UNK         0.0600 
    159 H159        0.8420  -16.0892  -44.7697 H         1 UNK         0.3000 
    160 H160        3.3498  -18.3613  -43.6509 H         1 UNK         0.0600 
    161 H161        3.5220  -15.5267  -44.8054 H         1 UNK         0.0600 
    162 H162        4.4385  -16.9123  -45.3923 H         1 UNK         0.0600 
    163 H163        4.7140  -16.3059  -43.7667 H         1 UNK         0.0600 
    164 H164        2.4049  -15.8531  -42.6467 H         1 UNK         0.3000 
    165 H165       -0.2050  -17.1354  -40.5856 H         1 UNK         0.0600 
    166 H166        1.1451  -15.9731  -38.8666 H         1 UNK         0.0600 
    167 H167        1.9230  -17.4822  -39.3168 H         1 UNK         0.0600 
    168 H168        2.5505  -15.9574  -39.9318 H         1 UNK         0.0600 
    169 H169        0.7297  -14.4983  -40.8646 H         1 UNK         0.3000 
    170 H170       -0.4168  -13.3512  -43.6009 H         1 UNK         0.0600 
    171 H171       -2.9451  -13.5155  -41.8846 H         1 UNK         0.0600 
    172 H172       -2.5846  -12.2300  -43.0373 H         1 UNK         0.0600 
    173 H173       -2.8101  -13.8784  -43.5975 H         1 UNK         0.0600 
    174 H174        0.4476  -11.9934  -42.1475 H         1 UNK         0.3000 
    175 H175       -0.4286  -10.6887  -39.0720 H         1 UNK         0.0600 
    176 H176        2.0597  -12.4654  -39.3509 H         1 UNK         0.0600 
    177 H177        1.8601  -11.1373  -38.2075 H         1 UNK         0.0600 
    178 H178        0.8657  -12.5766  -38.0633 H         1 UNK         0.0600 
    179 H179        1.9328  -10.4415  -40.7181 H         1 UNK         0.3000 
    180 H180        0.5785   -8.5653  -43.3104 H         1 UNK         0.0600 
    181 H181        2.0390   -6.6742  -42.6576 H         1 UNK         0.0600 
    182 H182        2.1533   -7.2918  -41.0087 H         1 UNK         0.0600 
    183 H183        0.6151   -6.7075  -41.6317 H         1 UNK         0.0600 
    184 H184        3.2763   -8.8125  -42.6444 H         1 UNK         0.3000 
    185 H185        4.5133  -10.1661  -44.0785 H         1 UNK         0.0600 
    186 H186        4.6947  -10.8496  -41.6705 H         1 UNK         0.0600 
    187 H187        4.1185  -12.4626  -42.0726 H         1 UNK         0.0600 
    188 H188        5.6688  -11.8924  -42.6907 H         1 UNK         0.0600 
    189 H189        4.3389  -12.9486  -44.4942 H         1 UNK         0.3000 
    190 H190       -1.6034  -20.8990  -47.0759 H         1 UNK         0.3000 
    191 H191       -3.2068  -22.2428  -48.9542 H         1 UNK         0.0600 
    192 H192       -3.8838  -20.1280  -47.8791 H         1 UNK         0.0600 
    193 H193       -3.9858  -20.9154  -46.3059 H         1 UNK         0.0600 
    194 H194       -5.1098  -21.3526  -47.5856 H         1 UNK         0.0600 
    195 H195       -2.5537  -23.0647  -45.5168 H         1 UNK         0.3000 
    196 H196       -4.2546  -25.3206  -45.3463 H         1 UNK         0.0600 
    197 H197       -3.2796  -24.2033  -43.3651 H         1 UNK         0.0600 
    198 H198       -1.6571  -24.6959  -43.8443 H         1 UNK         0.0600 
    199 H199       -2.8428  -25.9053  -43.3671 H         1 UNK         0.0600 
    200 H200       -0.8787  -25.0426  -46.4895 H         1 UNK         0.3000 
    201 H201       -0.4867  -27.8737  -46.9019 H         1 UNK         0.0600 
    202 H202        1.4096  -26.3227  -46.5342 H         1 UNK         0.0600 
    203 H203        1.0248  -25.4515  -48.0155 H         1 UNK         0.0600 
    204 H204        1.5677  -27.1231  -48.0911 H         1 UNK         0.0600 
    205 H205       -1.3715  -25.1342  -49.0498 H         1 UNK         0.3000 
    206 H206       -1.4574  -26.6386  -51.4640 H         1 UNK         0.0600 
    207 H207       -2.7534  -23.9604  -50.7374 H         1 UNK         0.0600 
    208 H208       -2.5201  -24.5733  -52.3701 H         1 UNK         0.0600 
    209 H209       -1.1284  -24.1817  -51.3786 H         1 UNK         0.0600 
    210 H210       -3.9765  -25.8823  -49.0703 H         1 UNK         0.3000 
    211 H211       -6.0272  -26.5740  -48.6853 H         1 UNK         0.0600 
    212 H212       -5.2278  -29.0662  -50.2961 H         1 UNK         0.0600 
    213 H213       -6.6427  -28.9368  -49.2519 H         1 UNK         0.0600 
    214 H214       -5.0318  -28.8215  -48.5671 H         1 UNK         0.0600 
    215 H215       -6.6745  -28.3680  -51.5624 H         1 UNK         0.3000 
    216 H216       -8.7599  -26.6361  -52.4432 H         1 UNK         0.0600 
    217 H217       -8.8714  -28.2286  -54.3681 H         1 UNK         0.0600 
    218 H218       -8.7697  -29.0853  -52.8385 H         1 UNK         0.0600 
    219 H219       -7.3460  -28.9521  -53.8721 H         1 UNK         0.0600 
    220 H220       -5.3226  -26.7211  -53.2188 H         1 UNK         0.3000 
    221 H221       -5.5853  -25.0712  -55.6379 H         1 UNK         0.0600 
    222 H222       -3.1107  -26.0800  -54.1429 H         1 UNK         0.0600 
    223 H223       -3.8823  -26.8819  -55.5079 H         1 UNK         0.0600 
    224 H224       -3.1282  -25.3117  -55.7230 H         1 UNK         0.0600 
    225 H225       -5.8467  -24.3082  -52.3784 H         1 UNK         0.3000 
    226 H226       -4.1317  -22.0118  -52.1981 H         1 UNK         0.0600 
    227 H227       -5.3593  -21.5763  -50.1179 H         1 UNK         0.0600 
    228 H228       -6.6436  -22.6826  -50.5789 H         1 UNK         0.0600 
    229 H229       -5.0346  -23.3026  -50.2271 H         1 UNK         0.0600 
    230 H230       -7.2678  -22.5025  -53.6198 H         1 UNK         0.3000 
    231 H231       -8.5148  -20.0096  -53.4099 H         1 UNK         0.0600 
    232 H232       -9.6675  -22.0510  -54.1584 H         1 UNK         0.0600 
    233 H233       -8.6741  -22.1352  -55.6117 H         1 UNK         0.0600 
    234 H234       -9.8203  -20.8164  -55.3990 H         1 UNK         0.0600 
    235 H235       -7.3564  -18.2101  -53.7727 H         1 UNK         0.3000 
    236 H236       -6.1990  -16.5594  -54.6625 H         1 UNK         0.0600 
    237 H237       -7.1117  -17.5888  -57.4019 H         1 UNK         0.0600 
    238 H238       -8.0594  -16.5397  -56.3483 H         1 UNK         0.0600 
    239 H239       -6.5483  -15.9650  -57.0306 H         1 UNK         0.0600 
    240 H240       -4.8638  -19.1497  -54.2073 H         1 UNK         0.3000 
    241 H241       -3.0100  -20.2876  -54.4805 H         1 UNK         0.0600 
    242 H242       -4.1563  -21.1313  -58.0578 H         1 UNK         0.3800 
    243 H243       -5.0810  -20.3477  -56.8008 H         1 UNK         0.3800 
    244 H244       -1.7899  -17.7882  -55.7590 H         1 UNK         0.0800 
    245 H245       -0.8896  -19.2017  -55.2713 H         1 UNK         0.0800 
    246 H246       -0.1592  -16.0997  -53.7316 H         1 UNK         0.0800 
    247 H247        0.5807  -17.5740  -54.2993 H         1 UNK         0.0800 
@<TRIPOS>BOND
     1    1    2 1    
     2    1  127 1    
     3    1  128 1    
     4    1  129 1    
     5    2    3 2    
     6    2    4 am   BACKBONE|DICT|INTERRES
     7    4    5 1    
     8    4  130 1    
     9    5    6 1    
    10    5   65 1    
    11    5  131 1    
    12    6    7 1    
    13    6  132 1    
    14    6  133 1    
    15    7    8 1    
    16    8    9 1    
    17    8  134 1    
    18    8  135 1    
    19    9   10 ar   
    20    9   14 ar   
    21   10   11 ar   
    22   10  136 1    
    23   11   12 ar   
    24   11  126 1    
    25   12   13 ar   
    26   12  137 1    
    27   13   14 ar   
    28   13   15 1    
    29   14  138 1    
    30   15   16 1    
    31   15  139 1    
    32   15  140 1    
    33   16   17 1    
    34   17   18 1    
    35   17  141 1    
    36   17  142 1    
    37   18   19 1    
    38   18   67 1    
    39   18  143 1    
    40   19   20 am   BACKBONE|DICT|INTERRES
    41   19  144 1    
    42   20   21 2    
    43   20   22 1    
    44   22   23 1    
    45   22   24 1    
    46   22  145 1    
    47   23  146 1    
    48   23  147 1    
    49   23  148 1    
    50   24   25 am   BACKBONE|DICT|INTERRES
    51   24  149 1    
    52   25   26 2    
    53   25   27 1    
    54   27   28 1    
    55   27   29 1    
    56   27  150 1    
    57   28  151 1    
    58   28  152 1    
    59   28  153 1    
    60   29   30 am   BACKBONE|DICT|INTERRES
    61   29  154 1    
    62   30   31 2    
    63   30   32 1    
    64   32   33 1    
    65   32   34 1    
    66   32  155 1    
    67   33  156 1    
    68   33  157 1    
    69   33  158 1    
    70   34   35 am   BACKBONE|DICT|INTERRES
    71   34  159 1    
    72   35   36 2    
    73   35   37 1    
    74   37   38 1    
    75   37   39 1    
    76   37  160 1    
    77   38  161 1    
    78   38  162 1    
    79   38  163 1    
    80   39   40 am   BACKBONE|DICT|INTERRES
    81   39  164 1    
    82   40   41 2    
    83   40   42 1    
    84   42   43 1    
    85   42   44 1    
    86   42  165 1    
    87   43  166 1    
    88   43  167 1    
    89   43  168 1    
    90   44   45 am   BACKBONE|DICT|INTERRES
    91   44  169 1    
    92   45   46 2    
    93   45   47 1    
    94   47   48 1    
    95   47   49 1    
    96   47  170 1    
    97   48  171 1    
    98   48  172 1    
    99   48  173 1    
   100   49   50 am   BACKBONE|DICT|INTERRES
   101   49  174 1    
   102   50   51 2    
   103   50   52 1    
   104   52   53 1    
   105   52   54 1    
   106   52  175 1    
   107   53  176 1    
   108   53  177 1    
   109   53  178 1    
   110   54   55 am   BACKBONE|DICT|INTERRES
   111   54  179 1    
   112   55   56 2    
   113   55   57 1    
   114   57   58 1    
   115   57   59 1    
   116   57  180 1    
   117   58  181 1    
   118   58  182 1    
   119   58  183 1    
   120   59   60 am   BACKBONE|DICT|INTERRES
   121   59  184 1    
   122   60   61 2    
   123   60   62 1    
   124   62   63 1    
   125   62   64 1    
   126   62  185 1    
   127   63  186 1    
   128   63  187 1    
   129   63  188 1    
   130   64   65 am   BACKBONE|DICT|INTERRES
   131   64  189 1    
   132   65   66 2    
   133   67   68 2    
   134   67   69 am   BACKBONE|DICT|INTERRES
   135   69   70 1    
   136   69  190 1    
   137   70   71 1    
   138   70   72 1    
   139   70  191 1    
   140   71  192 1    
   141   71  193 1    
   142   71  194 1    
   143   72   73 2    
   144   72   74 am   BACKBONE|DICT|INTERRES
   145   74   75 1    
   146   74  195 1    
   147   75   76 1    
   148   75   77 1    
   149   75  196 1    
   150   76  197 1    
   151   76  198 1    
   152   76  199 1    
   153   77   78 2    
   154   77   79 am   BACKBONE|DICT|INTERRES
   155   79   80 1    
   156   79  200 1    
   157   80   81 1    
   158   80   82 1    
   159   80  201 1    
   160   81  202 1    
   161   81  203 1    
   162   81  204 1    
   163   82   83 2    
   164   82   84 am   BACKBONE|DICT|INTERRES
   165   84   85 1    
   166   84  205 1    
   167   85   86 1    
   168   85   87 1    
   169   85  206 1    
   170   86  207 1    
   171   86  208 1    
   172   86  209 1    
   173   87   88 2    
   174   87   89 am   BACKBONE|DICT|INTERRES
   175   89   90 1    
   176   89  210 1    
   177   90   91 1    
   178   90   92 1    
   179   90  211 1    
   180   91  212 1    
   181   91  213 1    
   182   91  214 1    
   183   92   93 2    
   184   92   94 am   BACKBONE|DICT|INTERRES
   185   94   95 1    
   186   94  215 1    
   187   95   96 1    
   188   95   97 1    
   189   95  216 1    
   190   96  217 1    
   191   96  218 1    
   192   96  219 1    
   193   97   98 2    
   194   97   99 am   BACKBONE|DICT|INTERRES
   195   99  100 1    
   196   99  220 1    
   197  100  101 1    
   198  100  102 1    
   199  100  221 1    
   200  101  222 1    
   201  101  223 1    
   202  101  224 1    
   203  102  103 2    
   204  102  104 am   BACKBONE|DICT|INTERRES
   205  104  105 1    
   206  104  225 1    
   207  105  106 1    
   208  105  107 1    
   209  105  226 1    
   210  106  227 1    
   211  106  228 1    
   212  106  229 1    
   213  107  108 2    
   214  107  109 am   BACKBONE|DICT|INTERRES
   215  109  110 1    
   216  109  230 1    
   217  110  111 1    
   218  110  112 1    
   219  110  231 1    
   220  111  232 1    
   221  111  233 1    
   222  111  234 1    
   223  112  113 2    
   224  112  114 am   BACKBONE|DICT|INTERRES
   225  114  115 1    
   226  114  235 1    
   227  115  116 1    
   228  115  117 1    
   229  115  236 1    
   230  116  237 1    
   231  116  238 1    
   232  116  239 1    
   233  117  118 2    
   234  117  119 am   BACKBONE|DICT|INTERRES
   235  119  120 1    
   236  119  240 1    
   237  120  121 1    
   238  120  124 1    
   239  120  241 1    
   240  121  122 am   BACKBONE|DICT|INTERRES
   241  121  123 2    
   242  122  242 1    
   243  122  243 1    
   244  124  125 1    
   245  124  244 1    
   246  124  245 1    
   247  125  126 1    
   248  126  246 1    
   249  126  247 1    
@<TRIPOS>SUBSTRUCTURE
     1 UNK         1 GROUP             0       ****    0 ROOT    
