@<TRIPOS>MOLECULE
3R540
247   249    1
SMALL
USER_CHARGES


@<TRIPOS>ATOM
      1 CA          2.4996  -13.3509  -50.7449 C.3       0 UNK        -0.1800 
      2 C           1.9260  -14.4117  -49.8167 C.2       0 UNK         0.5000 
      3 O           1.4259  -14.0818  -48.7414 O.2       0 UNK        -0.5000 
      4 N           1.9882  -15.6833  -50.2286 N.am      1 UNK        -0.5000 
      5 CA          1.4844  -16.8441  -49.4864 C.3       1 UNK         0.1400 
      6 C6          2.2582  -18.1368  -49.8505 C.3       23 UNK        -0.0398 
      7 S7          3.9905  -18.0610  -49.2870 S.3       23 UNK        -0.2404 
      8 C8          4.8960  -18.0385  -50.8700 C.3       23 UNK        -0.0205 
      9 C9          4.8000  -19.3593  -51.6248 C.ar      23 UNK        -0.0193 
     10 C10         4.4141  -19.3814  -52.9696 C.ar      23 UNK        -0.1150 
     11 C11         4.3577  -20.5889  -53.6744 C.ar      23 UNK        -0.0193 
     12 C12         4.6652  -21.7825  -53.0141 C.ar      23 UNK        -0.1150 
     13 C13         5.0378  -21.7752  -51.6674 C.ar      23 UNK        -0.0193 
     14 C14         5.1266  -20.5595  -50.9869 C.ar      23 UNK        -0.1150 
     15 C15         5.3486  -23.0797  -50.9520 C.3       23 UNK        -0.0205 
     16 S16         3.8520  -23.8021  -50.2100 S.3       23 UNK        -0.2404 
     17 C17         3.7180  -22.8572  -48.6541 C.3       23 UNK        -0.0398 
     18 CA          2.4540  -23.2513  -47.8478 C.3       11 UNK         0.1400 
     19 N           2.7071  -23.3052  -46.4050 N.am      11 UNK        -0.5000 
     20 C           1.8977  -23.9123  -45.5249 C.2       10 UNK         0.5000 
     21 O           0.8662  -24.4998  -45.8468 O.2       10 UNK        -0.5000 
     22 CA          2.2755  -23.8036  -44.0359 C.3       10 UNK         0.1400 
     23 CB          3.1622  -24.9852  -43.6173 C.3       10 UNK        -0.1800 
     24 N           2.9530  -22.5464  -43.7085 N.am      10 UNK        -0.5000 
     25 C           2.3854  -21.3376  -43.8011 C.2       9 UNK         0.5000 
     26 O           1.2211  -21.1560  -44.1641 O.2       9 UNK        -0.5000 
     27 CA          3.2884  -20.1350  -43.4993 C.3       9 UNK         0.1400 
     28 CB          3.4443  -19.2436  -44.7428 C.3       9 UNK        -0.1800 
     29 N           2.7284  -19.3428  -42.4112 N.am      9 UNK        -0.5000 
     30 C           3.0337  -19.5048  -41.1185 C.2       8 UNK         0.5000 
     31 O           3.7929  -20.3815  -40.7031 O.2       8 UNK        -0.5000 
     32 CA          2.4084  -18.5176  -40.1210 C.3       8 UNK         0.1400 
     33 CB          3.0772  -17.1374  -40.2324 C.3       8 UNK        -0.1800 
     34 N           0.9683  -18.3679  -40.3277 N.am      8 UNK        -0.5000 
     35 C           0.0368  -18.5677  -39.3834 C.2       7 UNK         0.5000 
     36 O           0.2954  -18.9450  -38.2395 O.2       7 UNK        -0.5000 
     37 CA         -1.4351  -18.2843  -39.7527 C.3       7 UNK         0.1400 
     38 CB         -1.8968  -16.9574  -39.1308 C.3       7 UNK        -0.1800 
     39 N          -1.6718  -18.2365  -41.1947 N.am      7 UNK        -0.5000 
     40 C          -1.6831  -19.3128  -41.9934 C.2       6 UNK         0.5000 
     41 O          -1.5978  -20.4669  -41.5738 O.2       6 UNK        -0.5000 
     42 CA         -1.7843  -19.0700  -43.5125 C.3       6 UNK         0.1400 
     43 CB         -3.1911  -19.4082  -44.0212 C.3       6 UNK        -0.1800 
     44 N          -1.4466  -17.7088  -43.9423 N.am      6 UNK        -0.5000 
     45 C          -0.2613  -17.1027  -43.7699 C.2       5 UNK         0.5000 
     46 O           0.7022  -17.6351  -43.2214 O.2       5 UNK        -0.5000 
     47 CA         -0.1425  -15.6389  -44.2338 C.3       5 UNK         0.1400 
     48 CB          0.4671  -15.5803  -45.6413 C.3       5 UNK        -0.1800 
     49 N          -1.4163  -14.9130  -44.2156 N.am      5 UNK        -0.5000 
     50 C          -2.1696  -14.7234  -43.1198 C.2       4 UNK         0.5000 
     51 O          -1.8415  -15.1147  -41.9989 O.2       4 UNK        -0.5000 
     52 CA         -3.5293  -14.0176  -43.2900 C.3       4 UNK         0.1400 
     53 CB         -3.4511  -12.5741  -42.7701 C.3       4 UNK        -0.1800 
     54 N          -4.0499  -13.9972  -44.6587 N.am      4 UNK        -0.5000 
     55 C          -4.3632  -15.0659  -45.4035 C.2       3 UNK         0.5000 
     56 O          -4.1954  -16.2307  -45.0365 O.2       3 UNK        -0.5000 
     57 CA         -4.9435  -14.7959  -46.8077 C.3       3 UNK         0.1400 
     58 CB         -5.1998  -13.3048  -47.1207 C.3       3 UNK        -0.1800 
     59 N          -4.1248  -15.3943  -47.8639 N.am      3 UNK        -0.5000 
     60 C          -2.8198  -15.2012  -48.0880 C.2       2 UNK         0.5000 
     61 O          -2.0945  -14.4743  -47.4032 O.2       2 UNK        -0.5000 
     62 CA         -2.2486  -15.9307  -49.3101 C.3       2 UNK         0.1400 
     63 CB         -2.6181  -15.1900  -50.6061 C.3       2 UNK        -0.1800 
     64 N          -0.7984  -16.0092  -49.2037 N.am      2 UNK        -0.5000 
     65 C          -0.0378  -16.9916  -49.6940 C.2       1 UNK         0.5000 
     66 O          -0.4903  -17.9642  -50.2974 O.2       1 UNK        -0.5000 
     67 C           1.2433  -22.3543  -48.1905 C.2       11 UNK         0.5000 
     68 O           0.5045  -22.6682  -49.1207 O.2       11 UNK        -0.5000 
     69 N           1.0209  -21.2887  -47.4049 N.am      12 UNK        -0.5000 
     70 CA         -0.1518  -20.4186  -47.5237 C.3       12 UNK         0.1400 
     71 CB          0.1004  -19.1091  -46.7685 C.3       12 UNK        -0.1800 
     72 C          -1.4376  -21.1023  -47.0229 C.2       12 UNK         0.5000 
     73 O          -2.5089  -20.8773  -47.5874 O.2       12 UNK        -0.5000 
     74 N          -1.3071  -21.9552  -45.9967 N.am      13 UNK        -0.5000 
     75 CA         -2.3831  -22.8213  -45.5154 C.3       13 UNK         0.1400 
     76 CB         -2.0073  -23.4144  -44.1501 C.3       13 UNK        -0.1800 
     77 C          -2.7314  -23.9202  -46.5375 C.2       13 UNK         0.5000 
     78 O          -3.9124  -24.1527  -46.7934 O.2       13 UNK        -0.5000 
     79 N          -1.7068  -24.5287  -47.1547 N.am      14 UNK        -0.5000 
     80 CA         -1.8425  -25.4939  -48.2522 C.3       14 UNK         0.1400 
     81 CB         -0.4744  -26.1183  -48.5629 C.3       14 UNK        -0.1800 
     82 C          -2.4639  -24.8794  -49.5236 C.2       14 UNK         0.5000 
     83 O          -3.2185  -25.5572  -50.2208 O.2       14 UNK        -0.5000 
     84 N          -2.1856  -23.5908  -49.7660 N.am      15 UNK        -0.5000 
     85 CA         -2.7997  -22.7537  -50.8006 C.3       15 UNK         0.1400 
     86 CB         -1.9030  -21.5297  -51.0462 C.3       15 UNK        -0.1800 
     87 C          -4.2471  -22.3156  -50.4801 C.2       15 UNK         0.5000 
     88 O          -4.8357  -21.5728  -51.2679 O.2       15 UNK        -0.5000 
     89 N          -4.7896  -22.7752  -49.3425 N.am      16 UNK        -0.5000 
     90 CA         -6.1466  -22.5634  -48.8407 C.3       16 UNK         0.1400 
     91 CB         -7.1926  -23.2320  -49.7575 C.3       16 UNK        -0.1800 
     92 C          -6.4510  -21.0952  -48.4875 C.2       16 UNK         0.5000 
     93 O          -7.5862  -20.6438  -48.6540 O.2       16 UNK        -0.5000 
     94 N          -5.4343  -20.3936  -47.9607 N.am      17 UNK        -0.5000 
     95 CA         -5.4935  -19.0637  -47.3527 C.3       17 UNK         0.1400 
     96 CB         -6.1927  -19.1528  -45.9777 C.3       17 UNK        -0.1800 
     97 C          -6.1145  -18.0104  -48.2900 C.2       17 UNK         0.5000 
     98 O          -5.4449  -17.5554  -49.2194 O.2       17 UNK        -0.5000 
     99 N          -7.3733  -17.6338  -48.0298 N.am      18 UNK        -0.5000 
    100 CA        -8.1565  -16.6527  -48.7830 C.3       18 UNK         0.1400 
    101 CB        -9.4628  -16.3776  -48.0231 C.3       18 UNK        -0.1800 
    102 C         -8.4494  -17.0525  -50.2434 C.2       18 UNK         0.5000 
    103 O         -8.7882  -16.1779  -51.0414 O.2       18 UNK        -0.5000 
    104 N         -8.2935  -18.3421  -50.5827 N.am      19 UNK        -0.5000 
    105 CA        -8.3445  -18.8445  -51.9592 C.3       19 UNK         0.1400 
    106 CB        -8.3349  -20.3771  -51.9394 C.3       19 UNK        -0.1800 
    107 C         -7.1875  -18.3173  -52.8338 C.2       19 UNK         0.5000 
    108 O         -7.3630  -18.1900  -54.0460 O.2       19 UNK        -0.5000 
    109 N         -6.0516  -17.9929  -52.1946 N.am      20 UNK        -0.5000 
    110 CA        -4.8826  -17.3080  -52.7494 C.3       20 UNK         0.1400 
    111 CB        -5.2333  -15.8360  -53.0525 C.3       20 UNK        -0.1800 
    112 C         -4.2341  -18.0294  -53.9489 C.2       20 UNK         0.5000 
    113 O         -3.8571  -17.3823  -54.9294 O.2       20 UNK        -0.5000 
    114 N         -4.1038  -19.3601  -53.8533 N.am      21 UNK        -0.5000 
    115 CA        -3.3694  -20.1722  -54.8260 C.3       21 UNK         0.1400 
    116 CB        -3.6857  -21.6569  -54.5899 C.3       21 UNK        -0.1800 
    117 C         -1.8495  -19.9039  -54.7666 C.2       21 UNK         0.5000 
    118 O         -1.3482  -19.3786  -53.7708 O.2       21 UNK        -0.5000 
    119 N         -1.1422  -20.2727  -55.8407 N.am      22 UNK        -0.5000 
    120 CA         0.3019  -20.0398  -56.0411 C.3       22 UNK         0.1400 
    121 C          0.6849  -18.5597  -56.3625 C.2       22 UNK         0.5000 
    122 N         -0.2631  -17.6537  -56.5714 N.am      22 UNK        -0.7600 
    123 O          1.8612  -18.2260  -56.4637 O.2       22 UNK        -0.5000 
    124 C124        1.1869  -20.6699  -54.9178 C.3       23 UNK        -0.0398 
    125 S125        2.5855  -21.6405  -55.5746 S.3       23 UNK        -0.2404 
    126 C126        4.0230  -20.5981  -55.1612 C.3       23 UNK        -0.0205 
    127 H127        1.7224  -12.6410  -51.0280 H         1 UNK         0.0600 
    128 H128        2.9103  -13.7874  -51.6556 H         1 UNK         0.0600 
    129 H129        3.2961  -12.8034  -50.2410 H         1 UNK         0.0600 
    130 H130        2.3846  -15.8859  -51.1344 H         1 UNK         0.3000 
    131 H131        1.6350  -16.6646  -48.4196 H         1 UNK         0.0600 
    132 H132        1.8086  -19.0098  -49.3760 H         1 UNK         0.0800 
    133 H133        2.2132  -18.3264  -50.9243 H         1 UNK         0.0800 
    134 H134        5.9474  -17.8308  -50.6677 H         1 UNK         0.0800 
    135 H135        4.5308  -17.2103  -51.4789 H         1 UNK         0.0800 
    136 H136        4.1801  -18.4552  -53.4758 H         1 UNK         0.1150 
    137 H137        4.6157  -22.7191  -53.5517 H         1 UNK         0.1150 
    138 H138        5.4383  -20.5459  -49.9522 H         1 UNK         0.1150 
    139 H139        5.7691  -23.7953  -51.6602 H         1 UNK         0.0800 
    140 H140        6.1110  -22.9277  -50.1864 H         1 UNK         0.0800 
    141 H141        3.7455  -21.7862  -48.8595 H         1 UNK         0.0800 
    142 H142        4.6196  -23.0742  -48.0795 H         1 UNK         0.0800 
    143 H143        2.1767  -24.2683  -48.1333 H         1 UNK         0.0600 
    144 H144        3.5392  -22.8481  -46.0630 H         1 UNK         0.3000 
    145 H145        1.3502  -23.8478  -43.4573 H         1 UNK         0.0600 
    146 H146        3.3711  -24.9619  -42.5476 H         1 UNK         0.0600 
    147 H147        2.6713  -25.9358  -43.8304 H         1 UNK         0.0600 
    148 H148        4.1159  -24.9821  -44.1467 H         1 UNK         0.0600 
    149 H149        3.9102  -22.6181  -43.3941 H         1 UNK         0.3000 
    150 H150        4.2830  -20.4924  -43.2238 H         1 UNK         0.0600 
    151 H151        3.8216  -19.8126  -45.5934 H         1 UNK         0.0600 
    152 H152        4.1494  -18.4336  -44.5561 H         1 UNK         0.0600 
    153 H153        2.4983  -18.7924  -45.0403 H         1 UNK         0.0600 
    154 H154        2.0373  -18.6466  -42.6855 H         1 UNK         0.3000 
    155 H155        2.6149  -18.9065  -39.1218 H         1 UNK         0.0600 
    156 H156        2.8929  -16.6762  -41.2037 H         1 UNK         0.0600 
    157 H157        4.1576  -17.2136  -40.1027 H         1 UNK         0.0600 
    158 H158        2.7047  -16.4586  -39.4651 H         1 UNK         0.0600 
    159 H159        0.6730  -18.0907  -41.2574 H         1 UNK         0.3000 
    160 H160       -2.0420  -19.0871  -39.3288 H         1 UNK         0.0600 
    161 H161       -1.3036  -16.1167  -39.4928 H         1 UNK         0.0600 
    162 H162       -1.8022  -16.9809  -38.0444 H         1 UNK         0.0600 
    163 H163       -2.9427  -16.7542  -39.3615 H         1 UNK         0.0600 
    164 H164       -1.7470  -17.3153  -41.6095 H         1 UNK         0.3000 
    165 H165       -1.0811  -19.7590  -43.9794 H         1 UNK         0.0600 
    166 H166       -3.2307  -19.3685  -45.1092 H         1 UNK         0.0600 
    167 H167       -3.4887  -20.4133  -43.7205 H         1 UNK         0.0600 
    168 H168       -3.9364  -18.7140  -43.6311 H         1 UNK         0.0600 
    169 H169       -2.1974  -17.1777  -44.3668 H         1 UNK         0.3000 
    170 H170        0.5363  -15.1318  -43.5452 H         1 UNK         0.0600 
    171 H171        1.4437  -16.0659  -45.6669 H         1 UNK         0.0600 
    172 H172       -0.1665  -16.0821  -46.3715 H         1 UNK         0.0600 
    173 H173        0.6070  -14.5507  -45.9714 H         1 UNK         0.0600 
    174 H174       -1.7604  -14.5783  -45.1075 H         1 UNK         0.3000 
    175 H175       -4.2485  -14.5631  -42.6756 H         1 UNK         0.0600 
    176 H176       -2.7664  -11.9694  -43.3662 H         1 UNK         0.0600 
    177 H177       -4.4293  -12.0932  -42.7891 H         1 UNK         0.0600 
    178 H178       -3.0989  -12.5474  -41.7379 H         1 UNK         0.0600 
    179 H179       -4.1914  -13.0835  -45.0641 H         1 UNK         0.3000 
    180 H180       -5.9077  -15.3043  -46.8327 H         1 UNK         0.0600 
    181 H181       -4.2786  -12.7209  -47.1302 H         1 UNK         0.0600 
    182 H182       -5.8769  -12.8564  -46.3924 H         1 UNK         0.0600 
    183 H183       -5.6677  -13.1913  -48.0988 H         1 UNK         0.0600 
    184 H184       -4.6128  -16.0456  -48.4732 H         1 UNK         0.3000 
    185 H185       -2.6721  -16.9376  -49.3301 H         1 UNK         0.0600 
    186 H186       -2.1876  -14.1882  -50.6307 H         1 UNK         0.0600 
    187 H187       -2.2617  -15.7279  -51.4848 H         1 UNK         0.0600 
    188 H188       -3.6987  -15.0839  -50.7013 H         1 UNK         0.0600 
    189 H189       -0.3584  -15.2369  -48.7107 H         1 UNK         0.3000 
    190 H190        1.6317  -21.1217  -46.6189 H         1 UNK         0.3000 
    191 H191       -0.2928  -20.1734  -48.5773 H         1 UNK         0.0600 
    192 H192       -0.7511  -18.4340  -46.8626 H         1 UNK         0.0600 
    193 H193        0.9791  -18.5915  -47.1479 H         1 UNK         0.0600 
    194 H194        0.2668  -19.2870  -45.7096 H         1 UNK         0.0600 
    195 H195       -0.4018  -22.0558  -45.5564 H         1 UNK         0.3000 
    196 H196       -3.2751  -22.2065  -45.3784 H         1 UNK         0.0600 
    197 H197       -2.8323  -23.9991  -43.7417 H         1 UNK         0.0600 
    198 H198       -1.7769  -22.6291  -43.4298 H         1 UNK         0.0600 
    199 H199       -1.1420  -24.0728  -44.2140 H         1 UNK         0.0600 
    200 H200       -0.7621  -24.3365  -46.8329 H         1 UNK         0.3000 
    201 H201       -2.5081  -26.2891  -47.9104 H         1 UNK         0.0600 
    202 H202       -0.0339  -26.5709  -47.6743 H         1 UNK         0.0600 
    203 H203        0.2274  -25.3789  -48.9472 H         1 UNK         0.0600 
    204 H204       -0.5670  -26.9016  -49.3160 H         1 UNK         0.0600 
    205 H205       -1.4759  -23.1419  -49.1976 H         1 UNK         0.3000 
    206 H206       -2.8412  -23.3357  -51.7228 H         1 UNK         0.0600 
    207 H207       -0.9056  -21.8240  -51.3728 H         1 UNK         0.0600 
    208 H208       -2.3166  -20.8808  -51.8163 H         1 UNK         0.0600 
    209 H209       -1.7993  -20.9218  -50.1500 H         1 UNK         0.0600 
    210 H210       -4.2074  -23.3462  -48.7420 H         1 UNK         0.3000 
    211 H211       -6.1916  -23.0897  -47.8867 H         1 UNK         0.0600 
    212 H212       -7.1647  -22.8408  -50.7723 H         1 UNK         0.0600 
    213 H213       -8.2047  -23.0915  -49.3766 H         1 UNK         0.0600 
    214 H214       -7.0203  -24.3065  -49.8183 H         1 UNK         0.0600 
    215 H215       -4.5163  -20.8276  -47.9339 H         1 UNK         0.3000 
    216 H216       -4.4618  -18.7523  -47.1821 H         1 UNK         0.0600 
    217 H217       -6.1901  -18.1867  -45.4713 H         1 UNK         0.0600 
    218 H218       -5.6787  -19.8584  -45.3261 H         1 UNK         0.0600 
    219 H219       -7.2273  -19.4883  -46.0565 H         1 UNK         0.0600 
    220 H220       -7.8538  -18.0963  -47.2715 H         1 UNK         0.3000 
    221 H221       -7.5799  -15.7261  -48.8169 H         1 UNK         0.0600 
    222 H222      -10.0728  -17.2775  -47.9356 H         1 UNK         0.0600 
    223 H223       -9.2643  -16.0057  -47.0177 H         1 UNK         0.0600 
    224 H224      -10.0623  -15.6228  -48.5339 H         1 UNK         0.0600 
    225 H225       -8.0417  -19.0116  -49.8623 H         1 UNK         0.3000 
    226 H226       -9.2834  -18.5116  -52.4064 H         1 UNK         0.0600 
    227 H227       -7.3878  -20.7503  -51.5533 H         1 UNK         0.0600 
    228 H228       -9.1363  -20.7759  -51.3171 H         1 UNK         0.0600 
    229 H229       -8.4630  -20.7834  -52.9433 H         1 UNK         0.0600 
    230 H230       -6.0191  -18.1370  -51.1918 H         1 UNK         0.3000 
    231 H231       -4.1329  -17.3150  -51.9576 H         1 UNK         0.0600 
    232 H232       -4.3431  -15.2683  -53.3256 H         1 UNK         0.0600 
    233 H233       -5.6757  -15.3489  -52.1833 H         1 UNK         0.0600 
    234 H234       -5.9420  -15.7522  -53.8771 H         1 UNK         0.0600 
    235 H235       -4.4230  -19.8276  -53.0150 H         1 UNK         0.3000 
    236 H236       -3.7232  -19.9044  -55.8239 H         1 UNK         0.0600 
    237 H237       -4.7599  -21.8415  -54.6169 H         1 UNK         0.0600 
    238 H238       -3.2299  -22.2825  -55.3579 H         1 UNK         0.0600 
    239 H239       -3.3128  -22.0013  -53.6279 H         1 UNK         0.0600 
    240 H240       -1.6239  -20.6959  -56.6215 H         1 UNK         0.3000 
    241 H241        0.5123  -20.5702  -56.9702 H         1 UNK         0.0600 
    242 H242        0.0007  -16.7063  -56.7919 H         1 UNK         0.3800 
    243 H243       -1.2378  -17.8941  -56.4845 H         1 UNK         0.3800 
    244 H244        1.5394  -19.9171  -54.2103 H         1 UNK         0.0800 
    245 H245        0.6020  -21.3679  -54.3177 H         1 UNK         0.0800 
    246 H246        3.8581  -19.5860  -55.5304 H         1 UNK         0.0800 
    247 H247        4.8895  -20.9774  -55.7042 H         1 UNK         0.0800 
@<TRIPOS>BOND
     1    1    2 1    
     2    1  127 1    
     3    1  128 1    
     4    1  129 1    
     5    2    3 2    
     6    2    4 am   BACKBONE|DICT|INTERRES
     7    4    5 1    
     8    4  130 1    
     9    5    6 1    
    10    5   65 1    
    11    5  131 1    
    12    6    7 1    
    13    6  132 1    
    14    6  133 1    
    15    7    8 1    
    16    8    9 1    
    17    8  134 1    
    18    8  135 1    
    19    9   10 ar   
    20    9   14 ar   
    21   10   11 ar   
    22   10  136 1    
    23   11   12 ar   
    24   11  126 1    
    25   12   13 ar   
    26   12  137 1    
    27   13   14 ar   
    28   13   15 1    
    29   14  138 1    
    30   15   16 1    
    31   15  139 1    
    32   15  140 1    
    33   16   17 1    
    34   17   18 1    
    35   17  141 1    
    36   17  142 1    
    37   18   19 1    
    38   18   67 1    
    39   18  143 1    
    40   19   20 am   BACKBONE|DICT|INTERRES
    41   19  144 1    
    42   20   21 2    
    43   20   22 1    
    44   22   23 1    
    45   22   24 1    
    46   22  145 1    
    47   23  146 1    
    48   23  147 1    
    49   23  148 1    
    50   24   25 am   BACKBONE|DICT|INTERRES
    51   24  149 1    
    52   25   26 2    
    53   25   27 1    
    54   27   28 1    
    55   27   29 1    
    56   27  150 1    
    57   28  151 1    
    58   28  152 1    
    59   28  153 1    
    60   29   30 am   BACKBONE|DICT|INTERRES
    61   29  154 1    
    62   30   31 2    
    63   30   32 1    
    64   32   33 1    
    65   32   34 1    
    66   32  155 1    
    67   33  156 1    
    68   33  157 1    
    69   33  158 1    
    70   34   35 am   BACKBONE|DICT|INTERRES
    71   34  159 1    
    72   35   36 2    
    73   35   37 1    
    74   37   38 1    
    75   37   39 1    
    76   37  160 1    
    77   38  161 1    
    78   38  162 1    
    79   38  163 1    
    80   39   40 am   BACKBONE|DICT|INTERRES
    81   39  164 1    
    82   40   41 2    
    83   40   42 1    
    84   42   43 1    
    85   42   44 1    
    86   42  165 1    
    87   43  166 1    
    88   43  167 1    
    89   43  168 1    
    90   44   45 am   BACKBONE|DICT|INTERRES
    91   44  169 1    
    92   45   46 2    
    93   45   47 1    
    94   47   48 1    
    95   47   49 1    
    96   47  170 1    
    97   48  171 1    
    98   48  172 1    
    99   48  173 1    
   100   49   50 am   BACKBONE|DICT|INTERRES
   101   49  174 1    
   102   50   51 2    
   103   50   52 1    
   104   52   53 1    
   105   52   54 1    
   106   52  175 1    
   107   53  176 1    
   108   53  177 1    
   109   53  178 1    
   110   54   55 am   BACKBONE|DICT|INTERRES
   111   54  179 1    
   112   55   56 2    
   113   55   57 1    
   114   57   58 1    
   115   57   59 1    
   116   57  180 1    
   117   58  181 1    
   118   58  182 1    
   119   58  183 1    
   120   59   60 am   BACKBONE|DICT|INTERRES
   121   59  184 1    
   122   60   61 2    
   123   60   62 1    
   124   62   63 1    
   125   62   64 1    
   126   62  185 1    
   127   63  186 1    
   128   63  187 1    
   129   63  188 1    
   130   64   65 am   BACKBONE|DICT|INTERRES
   131   64  189 1    
   132   65   66 2    
   133   67   68 2    
   134   67   69 am   BACKBONE|DICT|INTERRES
   135   69   70 1    
   136   69  190 1    
   137   70   71 1    
   138   70   72 1    
   139   70  191 1    
   140   71  192 1    
   141   71  193 1    
   142   71  194 1    
   143   72   73 2    
   144   72   74 am   BACKBONE|DICT|INTERRES
   145   74   75 1    
   146   74  195 1    
   147   75   76 1    
   148   75   77 1    
   149   75  196 1    
   150   76  197 1    
   151   76  198 1    
   152   76  199 1    
   153   77   78 2    
   154   77   79 am   BACKBONE|DICT|INTERRES
   155   79   80 1    
   156   79  200 1    
   157   80   81 1    
   158   80   82 1    
   159   80  201 1    
   160   81  202 1    
   161   81  203 1    
   162   81  204 1    
   163   82   83 2    
   164   82   84 am   BACKBONE|DICT|INTERRES
   165   84   85 1    
   166   84  205 1    
   167   85   86 1    
   168   85   87 1    
   169   85  206 1    
   170   86  207 1    
   171   86  208 1    
   172   86  209 1    
   173   87   88 2    
   174   87   89 am   BACKBONE|DICT|INTERRES
   175   89   90 1    
   176   89  210 1    
   177   90   91 1    
   178   90   92 1    
   179   90  211 1    
   180   91  212 1    
   181   91  213 1    
   182   91  214 1    
   183   92   93 2    
   184   92   94 am   BACKBONE|DICT|INTERRES
   185   94   95 1    
   186   94  215 1    
   187   95   96 1    
   188   95   97 1    
   189   95  216 1    
   190   96  217 1    
   191   96  218 1    
   192   96  219 1    
   193   97   98 2    
   194   97   99 am   BACKBONE|DICT|INTERRES
   195   99  100 1    
   196   99  220 1    
   197  100  101 1    
   198  100  102 1    
   199  100  221 1    
   200  101  222 1    
   201  101  223 1    
   202  101  224 1    
   203  102  103 2    
   204  102  104 am   BACKBONE|DICT|INTERRES
   205  104  105 1    
   206  104  225 1    
   207  105  106 1    
   208  105  107 1    
   209  105  226 1    
   210  106  227 1    
   211  106  228 1    
   212  106  229 1    
   213  107  108 2    
   214  107  109 am   BACKBONE|DICT|INTERRES
   215  109  110 1    
   216  109  230 1    
   217  110  111 1    
   218  110  112 1    
   219  110  231 1    
   220  111  232 1    
   221  111  233 1    
   222  111  234 1    
   223  112  113 2    
   224  112  114 am   BACKBONE|DICT|INTERRES
   225  114  115 1    
   226  114  235 1    
   227  115  116 1    
   228  115  117 1    
   229  115  236 1    
   230  116  237 1    
   231  116  238 1    
   232  116  239 1    
   233  117  118 2    
   234  117  119 am   BACKBONE|DICT|INTERRES
   235  119  120 1    
   236  119  240 1    
   237  120  121 1    
   238  120  124 1    
   239  120  241 1    
   240  121  122 am   BACKBONE|DICT|INTERRES
   241  121  123 2    
   242  122  242 1    
   243  122  243 1    
   244  124  125 1    
   245  124  244 1    
   246  124  245 1    
   247  125  126 1    
   248  126  246 1    
   249  126  247 1    
@<TRIPOS>SUBSTRUCTURE
     1 UNK         1 GROUP             0       ****    0 ROOT    
