@<TRIPOS>MOLECULE
3R540
247   249    1
SMALL
USER_CHARGES


@<TRIPOS>ATOM
      1 CA          1.4933  -12.5712  -51.4978 C.3       0 UNK        -0.1800 
      2 C           0.6216  -13.0858  -50.3613 C.2       0 UNK         0.5000 
      3 O          -0.6000  -13.1299  -50.5020 O.2       0 UNK        -0.5000 
      4 N           1.2487  -13.4704  -49.2403 N.am      1 UNK        -0.5000 
      5 CA          0.6175  -14.0254  -48.0322 C.3       1 UNK         0.1400 
      6 C6         -0.0624  -15.4006  -48.2656 C.3       23 UNK        -0.0398 
      7 S7          1.1476  -16.6962  -48.6887 S.3       23 UNK        -0.2404 
      8 C8          0.8492  -16.9782  -50.4686 C.3       23 UNK        -0.0205 
      9 C9          1.4286  -18.2995  -50.9783 C.ar      23 UNK        -0.0193 
     10 C10         0.7544  -19.0066  -51.9816 C.ar      23 UNK        -0.1150 
     11 C11         1.2278  -20.2473  -52.4234 C.ar      23 UNK        -0.0193 
     12 C12         2.4018  -20.7679  -51.8742 C.ar      23 UNK        -0.1150 
     13 C13         3.0987  -20.0677  -50.8869 C.ar      23 UNK        -0.0193 
     14 C14         2.6131  -18.8328  -50.4523 C.ar      23 UNK        -0.1150 
     15 C15         4.3795  -20.6406  -50.2961 C.3       23 UNK        -0.0205 
     16 S16         4.1121  -22.2418  -49.4698 S.3       23 UNK        -0.2404 
     17 C17         3.1486  -21.7652  -47.9928 C.3       23 UNK        -0.0398 
     18 CA          3.1852  -22.8663  -46.9010 C.3       11 UNK         0.1400 
     19 N           2.8440  -22.3480  -45.5729 N.am      11 UNK        -0.5000 
     20 C           3.1223  -22.9752  -44.4201 C.2       10 UNK         0.5000 
     21 O           3.7146  -24.0531  -44.3552 O.2       10 UNK        -0.5000 
     22 CA          2.6692  -22.2895  -43.1162 C.3       10 UNK         0.1400 
     23 CB          3.6686  -21.2020  -42.6937 C.3       10 UNK        -0.1800 
     24 N           1.3310  -21.7113  -43.2190 N.am      10 UNK        -0.5000 
     25 C           0.2020  -22.4284  -43.3108 C.2       9 UNK         0.5000 
     26 O           0.1619  -23.6552  -43.2199 O.2       9 UNK        -0.5000 
     27 CA         -1.0990  -21.6463  -43.5795 C.3       9 UNK         0.1400 
     28 CB         -1.7440  -21.1914  -42.2623 C.3       9 UNK        -0.1800 
     29 N          -0.9055  -20.4834  -44.4479 N.am      9 UNK        -0.5000 
     30 C          -0.4483  -20.5461  -45.7056 C.2       8 UNK         0.5000 
     31 O          -0.1515  -21.5906  -46.2798 O.2       8 UNK        -0.5000 
     32 CA         -0.2282  -19.2118  -46.4276 C.3       8 UNK         0.1400 
     33 CB         -1.5648  -18.6018  -46.8776 C.3       8 UNK        -0.1800 
     34 N           0.5267  -18.2684  -45.6073 N.am      8 UNK        -0.5000 
     35 C           1.8138  -18.4327  -45.2679 C.2       7 UNK         0.5000 
     36 O           2.5066  -19.3773  -45.6449 O.2       7 UNK        -0.5000 
     37 CA          2.4099  -17.3893  -44.3054 C.3       7 UNK         0.1400 
     38 CB          2.9329  -16.1738  -45.0844 C.3       7 UNK        -0.1800 
     39 N           1.4420  -16.9377  -43.3055 N.am      7 UNK        -0.5000 
     40 C           0.9001  -17.7173  -42.3586 C.2       6 UNK         0.5000 
     41 O           1.2098  -18.8945  -42.1766 O.2       6 UNK        -0.5000 
     42 CA         -0.2302  -17.0840  -41.5299 C.3       6 UNK         0.1400 
     43 CB          0.3390  -16.2544  -40.3698 C.3       6 UNK        -0.1800 
     44 N          -1.1018  -16.2466  -42.3592 N.am      6 UNK        -0.5000 
     45 C          -1.9348  -16.7307  -43.2942 C.2       5 UNK         0.5000 
     46 O          -2.0422  -17.9362  -43.5242 O.2       5 UNK        -0.5000 
     47 CA         -2.7332  -15.7241  -44.1566 C.3       5 UNK         0.1400 
     48 CB         -4.1553  -16.2258  -44.4835 C.3       5 UNK        -0.1800 
     49 N          -2.7601  -14.3583  -43.6222 N.am      5 UNK        -0.5000 
     50 C          -3.2930  -13.9444  -42.4619 C.2       4 UNK         0.5000 
     51 O          -3.9464  -14.6721  -41.7129 O.2       4 UNK        -0.5000 
     52 CA         -3.0187  -12.4773  -42.0577 C.3       4 UNK         0.1400 
     53 CB         -2.9910  -12.2924  -40.5263 C.3       4 UNK        -0.1800 
     54 N          -1.8044  -11.8959  -42.6495 N.am      4 UNK        -0.5000 
     55 C          -0.5446  -12.3466  -42.5624 C.2       3 UNK         0.5000 
     56 O          -0.2408  -13.4170  -42.0327 O.2       3 UNK        -0.5000 
     57 CA          0.5431  -11.4676  -43.2191 C.3       3 UNK         0.1400 
     58 CB          1.9614  -12.0223  -42.9909 C.3       3 UNK        -0.1800 
     59 N           0.3363  -11.3063  -44.6597 N.am      3 UNK        -0.5000 
     60 C          -0.6053  -10.5598  -45.2541 C.2       2 UNK         0.5000 
     61 O          -1.4143   -9.8692  -44.6322 O.2       2 UNK        -0.5000 
     62 CA         -0.6694  -10.5954  -46.7954 C.3       2 UNK         0.1400 
     63 CB         -0.1244   -9.2860  -47.3865 C.3       2 UNK        -0.1800 
     64 N           0.0497  -11.7200  -47.4024 N.am      2 UNK        -0.5000 
     65 C          -0.3005  -13.0113  -47.3075 C.2       1 UNK         0.5000 
     66 O          -1.2683  -13.4020  -46.6513 O.2       1 UNK        -0.5000 
     67 C           2.3211  -24.0872  -47.2870 C.2       11 UNK         0.5000 
     68 O           2.8660  -25.0995  -47.7313 O.2       11 UNK        -0.5000 
     69 N           1.0000  -23.9788  -47.1050 N.am      12 UNK        -0.5000 
     70 CA          0.0230  -24.9962  -47.4663 C.3       12 UNK         0.1400 
     71 CB         -0.5227  -24.7094  -48.8775 C.3       12 UNK        -0.1800 
     72 C          -1.0932  -25.0128  -46.4160 C.2       12 UNK         0.5000 
     73 O          -2.0121  -24.1933  -46.4789 O.2       12 UNK        -0.5000 
     74 N          -1.0208  -25.9767  -45.4885 N.am      13 UNK        -0.5000 
     75 CA         -2.0054  -26.2023  -44.4217 C.3       13 UNK         0.1400 
     76 CB         -1.4726  -27.2876  -43.4742 C.3       13 UNK        -0.1800 
     77 C          -3.4166  -26.5704  -44.9310 C.2       13 UNK         0.5000 
     78 O          -4.3903  -26.4066  -44.1958 O.2       13 UNK        -0.5000 
     79 N          -3.5052  -27.0222  -46.1906 N.am      14 UNK        -0.5000 
     80 CA         -4.7443  -27.2465  -46.9389 C.3       14 UNK         0.1400 
     81 CB         -4.4114  -28.0802  -48.1872 C.3       14 UNK        -0.1800 
     82 C          -5.4769  -25.9452  -47.3400 C.2       14 UNK         0.5000 
     83 O          -6.6036  -26.0249  -47.8295 O.2       14 UNK        -0.5000 
     84 N          -4.8292  -24.7847  -47.1451 N.am      15 UNK        -0.5000 
     85 CA         -5.3127  -23.4237  -47.4017 C.3       15 UNK         0.1400 
     86 CB         -6.6257  -23.1259  -46.6480 C.3       15 UNK        -0.1800 
     87 C          -5.3814  -23.0473  -48.8947 C.2       15 UNK         0.5000 
     88 O          -5.9654  -22.0174  -49.2325 O.2       15 UNK        -0.5000 
     89 N          -4.7225  -23.8283  -49.7639 N.am      16 UNK        -0.5000 
     90 CA         -4.5725  -23.5421  -51.1963 C.3       16 UNK         0.1400 
     91 CB         -3.8783  -24.7290  -51.8796 C.3       16 UNK        -0.1800 
     92 C          -3.7958  -22.2374  -51.4635 C.2       16 UNK         0.5000 
     93 O          -4.0919  -21.5228  -52.4214 O.2       16 UNK        -0.5000 
     94 N          -2.8433  -21.9298  -50.5746 N.am      17 UNK        -0.5000 
     95 CA         -2.0842  -20.6842  -50.5654 C.3       17 UNK         0.1400 
     96 CB         -0.8956  -20.8390  -49.6098 C.3       17 UNK        -0.1800 
     97 C          -2.9427  -19.4622  -50.1921 C.2       17 UNK         0.5000 
     98 O          -2.7521  -18.3932  -50.7694 O.2       17 UNK        -0.5000 
     99 N          -3.8956  -19.6489  -49.2666 N.am      18 UNK        -0.5000 
    100 CA        -4.8460  -18.6191  -48.8357 C.3       18 UNK         0.1400 
    101 CB        -5.4537  -19.0099  -47.4797 C.3       18 UNK        -0.1800 
    102 C         -5.9441  -18.3825  -49.8884 C.2       18 UNK         0.5000 
    103 O         -6.3848  -17.2474  -50.0677 O.2       18 UNK        -0.5000 
    104 N         -6.3183  -19.4508  -50.6070 N.am      19 UNK        -0.5000 
    105 CA        -7.1766  -19.4217  -51.7940 C.3       19 UNK         0.1400 
    106 CB        -7.6672  -20.8493  -52.0817 C.3       19 UNK        -0.1800 
    107 C         -6.4829  -18.8232  -53.0391 C.2       19 UNK         0.5000 
    108 O         -7.1541  -18.5948  -54.0461 O.2       19 UNK        -0.5000 
    109 N         -5.1669  -18.5785  -52.9454 N.am      20 UNK        -0.5000 
    110 CA        -4.2835  -17.9850  -53.9489 C.3       20 UNK         0.1400 
    111 CB        -4.6952  -16.5309  -54.2602 C.3       20 UNK        -0.1800 
    112 C         -4.1259  -18.8586  -55.2078 C.2       20 UNK         0.5000 
    113 O         -4.0787  -18.3333  -56.3222 O.2       20 UNK        -0.5000 
    114 N         -3.9940  -20.1801  -55.0114 N.am      21 UNK        -0.5000 
    115 CA        -3.7731  -21.1715  -56.0736 C.3       21 UNK         0.1400 
    116 CB        -3.7874  -22.5792  -55.4582 C.3       21 UNK        -0.1800 
    117 C         -2.4745  -20.9525  -56.8807 C.2       21 UNK         0.5000 
    118 O         -2.3944  -21.3807  -58.0327 O.2       21 UNK        -0.5000 
    119 N         -1.4993  -20.2705  -56.2682 N.am      22 UNK        -0.5000 
    120 CA        -0.2506  -19.8107  -56.8955 C.3       22 UNK         0.1400 
    121 C         -0.4106  -18.5271  -57.7657 C.2       22 UNK         0.5000 
    122 N         -1.5667  -17.8736  -57.8088 N.am      22 UNK        -0.7600 
    123 O          0.5375  -18.1179  -58.4302 O.2       22 UNK        -0.5000 
    124 C124        0.8795  -19.6360  -55.8462 C.3       23 UNK        -0.0398 
    125 S125        1.3153  -21.2115  -55.0353 S.3       23 UNK        -0.2404 
    126 C126        0.4474  -21.0663  -53.4423 C.3       23 UNK        -0.0205 
    127 H127        2.5518  -12.5856  -51.2367 H         1 UNK         0.0600 
    128 H128        1.2183  -11.5465  -51.7474 H         1 UNK         0.0600 
    129 H129        1.3542  -13.1888  -52.3851 H         1 UNK         0.0600 
    130 H130        2.2570  -13.4111  -49.2049 H         1 UNK         0.3000 
    131 H131        1.4375  -14.1883  -47.3323 H         1 UNK         0.0600 
    132 H132       -0.5592  -15.7392  -47.3557 H         1 UNK         0.0800 
    133 H133       -0.8416  -15.3379  -49.0260 H         1 UNK         0.0800 
    134 H134        1.2778  -16.1545  -51.0402 H         1 UNK         0.0800 
    135 H135       -0.2273  -16.9617  -50.6470 H         1 UNK         0.0800 
    136 H136       -0.1621  -18.6058  -52.3917 H         1 UNK         0.1150 
    137 H137        2.7681  -21.7289  -52.2076 H         1 UNK         0.1150 
    138 H138        3.1560  -18.2943  -49.6890 H         1 UNK         0.1150 
    139 H139        4.8358  -19.9433  -49.5917 H         1 UNK         0.0800 
    140 H140        5.1026  -20.7790  -51.1008 H         1 UNK         0.0800 
    141 H141        2.1254  -21.5167  -48.2818 H         1 UNK         0.0800 
    142 H142        3.5846  -20.8453  -47.6016 H         1 UNK         0.0800 
    143 H143        4.2177  -23.2172  -46.8325 H         1 UNK         0.0600 
    144 H144        2.3898  -21.4418  -45.5430 H         1 UNK         0.3000 
    145 H145        2.6491  -23.0487  -42.3314 H         1 UNK         0.0600 
    146 H146        4.6711  -21.6162  -42.5799 H         1 UNK         0.0600 
    147 H147        3.3885  -20.7599  -41.7374 H         1 UNK         0.0600 
    148 H148        3.7270  -20.3987  -43.4281 H         1 UNK         0.0600 
    149 H149        1.2672  -20.6994  -43.2237 H         1 UNK         0.3000 
    150 H150       -1.7905  -22.3238  -44.0855 H         1 UNK         0.0600 
    151 H151       -1.1049  -20.4907  -41.7238 H         1 UNK         0.0600 
    152 H152       -2.7009  -20.7005  -42.4411 H         1 UNK         0.0600 
    153 H153       -1.9305  -22.0410  -41.6042 H         1 UNK         0.0600 
    154 H154       -1.1596  -19.5783  -44.0617 H         1 UNK         0.3000 
    155 H155        0.3635  -19.4252  -47.3197 H         1 UNK         0.0600 
    156 H156       -1.4312  -17.9285  -47.7225 H         1 UNK         0.0600 
    157 H157       -2.0617  -18.0507  -46.0836 H         1 UNK         0.0600 
    158 H158       -2.2531  -19.3814  -47.1980 H         1 UNK         0.0600 
    159 H159        0.0202  -17.4911  -45.2164 H         1 UNK         0.3000 
    160 H160        3.2488  -17.8547  -43.7839 H         1 UNK         0.0600 
    161 H161        2.1251  -15.6460  -45.5908 H         1 UNK         0.0600 
    162 H162        3.6540  -16.4772  -45.8447 H         1 UNK         0.0600 
    163 H163        3.4345  -15.4667  -44.4235 H         1 UNK         0.0600 
    164 H164        1.1315  -15.9793  -43.3674 H         1 UNK         0.3000 
    165 H165       -0.8319  -17.8916  -41.1076 H         1 UNK         0.0600 
    166 H166        0.9352  -16.8777  -39.7024 H         1 UNK         0.0600 
    167 H167        0.9812  -15.4477  -40.7250 H         1 UNK         0.0600 
    168 H168       -0.4588  -15.8091  -39.7751 H         1 UNK         0.0600 
    169 H169       -1.0232  -15.2421  -42.2305 H         1 UNK         0.3000 
    170 H170       -2.1918  -15.6557  -45.1009 H         1 UNK         0.0600 
    171 H171       -4.6892  -15.5136  -45.1125 H         1 UNK         0.0600 
    172 H172       -4.7464  -16.3883  -43.5822 H         1 UNK         0.0600 
    173 H173       -4.1252  -17.1722  -45.0241 H         1 UNK         0.0600 
    174 H174       -2.2464  -13.6769  -44.1650 H         1 UNK         0.3000 
    175 H175       -3.8559  -11.8968  -42.4475 H         1 UNK         0.0600 
    176 H176       -2.2081  -12.8940  -40.0628 H         1 UNK         0.0600 
    177 H177       -3.9399  -12.5851  -40.0754 H         1 UNK         0.0600 
    178 H178       -2.8161  -11.2505  -40.2579 H         1 UNK         0.0600 
    179 H179       -1.9400  -11.0385  -43.1788 H         1 UNK         0.3000 
    180 H180        0.4899  -10.4838  -42.7483 H         1 UNK         0.0600 
    181 H181        2.0920  -13.0016  -43.4534 H         1 UNK         0.0600 
    182 H182        2.1726  -12.1310  -41.9262 H         1 UNK         0.0600 
    183 H183        2.7175  -11.3535  -43.4025 H         1 UNK         0.0600 
    184 H184        0.9465  -11.8428  -45.2571 H         1 UNK         0.3000 
    185 H185       -1.7223  -10.6825  -47.0714 H         1 UNK         0.0600 
    186 H186       -0.6594   -8.4231  -46.9876 H         1 UNK         0.0600 
    187 H187        0.9335   -9.1509  -47.1575 H         1 UNK         0.0600 
    188 H188       -0.2399   -9.2641  -48.4704 H         1 UNK         0.0600 
    189 H189        0.8580  -11.4875  -47.9613 H         1 UNK         0.3000 
    190 H190        0.6113  -23.1180  -46.7155 H         1 UNK         0.3000 
    191 H191        0.4911  -25.9828  -47.4775 H         1 UNK         0.0600 
    192 H192        0.2715  -24.7506  -49.6231 H         1 UNK         0.0600 
    193 H193       -1.2774  -25.4431  -49.1629 H         1 UNK         0.0600 
    194 H194       -0.9819  -23.7232  -48.9359 H         1 UNK         0.0600 
    195 H195       -0.2257  -26.5994  -45.4959 H         1 UNK         0.3000 
    196 H196       -2.1001  -25.2721  -43.8577 H         1 UNK         0.0600 
    197 H197       -2.1656  -27.4629  -42.6501 H         1 UNK         0.0600 
    198 H198       -0.5187  -26.9928  -43.0360 H         1 UNK         0.0600 
    199 H199       -1.3283  -28.2375  -43.9904 H         1 UNK         0.0600 
    200 H200       -2.6453  -27.1455  -46.7036 H         1 UNK         0.3000 
    201 H201       -5.4257  -27.8230  -46.3100 H         1 UNK         0.0600 
    202 H202       -5.3123  -28.3110  -48.7574 H         1 UNK         0.0600 
    203 H203       -3.9507  -29.0303  -47.9159 H         1 UNK         0.0600 
    204 H204       -3.7277  -27.5528  -48.8537 H         1 UNK         0.0600 
    205 H205       -3.8869  -24.8234  -46.7682 H         1 UNK         0.3000 
    206 H206       -4.5504  -22.7688  -46.9771 H         1 UNK         0.0600 
    207 H207       -6.5480  -23.4014  -45.5962 H         1 UNK         0.0600 
    208 H208       -6.8669  -22.0635  -46.6857 H         1 UNK         0.0600 
    209 H209       -7.4726  -23.6624  -47.0758 H         1 UNK         0.0600 
    210 H210       -4.2730  -24.6598  -49.4116 H         1 UNK         0.3000 
    211 H211       -5.5697  -23.4315  -51.6258 H         1 UNK         0.0600 
    212 H212       -4.4520  -25.6474  -51.7529 H         1 UNK         0.0600 
    213 H213       -3.7763  -24.5568  -52.9519 H         1 UNK         0.0600 
    214 H214       -2.8786  -24.8990  -51.4776 H         1 UNK         0.0600 
    215 H215       -2.6645  -22.5788  -49.8238 H         1 UNK         0.3000 
    216 H216       -1.7011  -20.5123  -51.5707 H         1 UNK         0.0600 
    217 H217       -1.2205  -21.1691  -48.6246 H         1 UNK         0.0600 
    218 H218       -0.3647  -19.8960  -49.4858 H         1 UNK         0.0600 
    219 H219       -0.1768  -21.5670  -49.9865 H         1 UNK         0.0600 
    220 H220       -4.0303  -20.5729  -48.8858 H         1 UNK         0.3000 
    221 H221       -4.3015  -17.6815  -48.7029 H         1 UNK         0.0600 
    222 H222       -6.0419  -19.9245  -47.5483 H         1 UNK         0.0600 
    223 H223       -4.6818  -19.1624  -46.7256 H         1 UNK         0.0600 
    224 H224       -6.1148  -18.2246  -47.1114 H         1 UNK         0.0600 
    225 H225       -5.9723  -20.3626  -50.3250 H         1 UNK         0.3000 
    226 H226       -8.0454  -18.7989  -51.5721 H         1 UNK         0.0600 
    227 H227       -8.1606  -21.2823  -51.2112 H         1 UNK         0.0600 
    228 H228       -8.3866  -20.8578  -52.9014 H         1 UNK         0.0600 
    229 H229       -6.8447  -21.5063  -52.3629 H         1 UNK         0.0600 
    230 H230       -4.7161  -18.8291  -52.0765 H         1 UNK         0.3000 
    231 H231       -3.2948  -17.9472  -53.4899 H         1 UNK         0.0600 
    232 H232       -5.6508  -16.4811  -54.7829 H         1 UNK         0.0600 
    233 H233       -3.9527  -16.0417  -54.8918 H         1 UNK         0.0600 
    234 H234       -4.7806  -15.9423  -53.3467 H         1 UNK         0.0600 
    235 H235       -4.0602  -20.5467  -54.0643 H         1 UNK         0.3000 
    236 H236       -4.6079  -21.0948  -56.7731 H         1 UNK         0.0600 
    237 H237       -2.9757  -22.7105  -54.7415 H         1 UNK         0.0600 
    238 H238       -4.7270  -22.7749  -54.9411 H         1 UNK         0.0600 
    239 H239       -3.6740  -23.3445  -56.2270 H         1 UNK         0.0600 
    240 H240       -1.6687  -19.9539  -55.3273 H         1 UNK         0.3000 
    241 H241        0.0731  -20.5873  -57.5912 H         1 UNK         0.0600 
    242 H242       -2.3792  -18.1847  -57.2860 H         1 UNK         0.3800 
    243 H243       -1.6408  -17.0511  -58.3861 H         1 UNK         0.3800 
    244 H244        1.7889  -19.2640  -56.3213 H         1 UNK         0.0800 
    245 H245        0.6054  -18.8909  -55.0978 H         1 UNK         0.0800 
    246 H246       -0.5470  -20.6508  -53.6038 H         1 UNK         0.0800 
    247 H247        0.2920  -22.0680  -53.0389 H         1 UNK         0.0800 
@<TRIPOS>BOND
     1    1    2 1    
     2    1  127 1    
     3    1  128 1    
     4    1  129 1    
     5    2    3 2    
     6    2    4 am   BACKBONE|DICT|INTERRES
     7    4    5 1    
     8    4  130 1    
     9    5    6 1    
    10    5   65 1    
    11    5  131 1    
    12    6    7 1    
    13    6  132 1    
    14    6  133 1    
    15    7    8 1    
    16    8    9 1    
    17    8  134 1    
    18    8  135 1    
    19    9   10 ar   
    20    9   14 ar   
    21   10   11 ar   
    22   10  136 1    
    23   11   12 ar   
    24   11  126 1    
    25   12   13 ar   
    26   12  137 1    
    27   13   14 ar   
    28   13   15 1    
    29   14  138 1    
    30   15   16 1    
    31   15  139 1    
    32   15  140 1    
    33   16   17 1    
    34   17   18 1    
    35   17  141 1    
    36   17  142 1    
    37   18   19 1    
    38   18   67 1    
    39   18  143 1    
    40   19   20 am   BACKBONE|DICT|INTERRES
    41   19  144 1    
    42   20   21 2    
    43   20   22 1    
    44   22   23 1    
    45   22   24 1    
    46   22  145 1    
    47   23  146 1    
    48   23  147 1    
    49   23  148 1    
    50   24   25 am   BACKBONE|DICT|INTERRES
    51   24  149 1    
    52   25   26 2    
    53   25   27 1    
    54   27   28 1    
    55   27   29 1    
    56   27  150 1    
    57   28  151 1    
    58   28  152 1    
    59   28  153 1    
    60   29   30 am   BACKBONE|DICT|INTERRES
    61   29  154 1    
    62   30   31 2    
    63   30   32 1    
    64   32   33 1    
    65   32   34 1    
    66   32  155 1    
    67   33  156 1    
    68   33  157 1    
    69   33  158 1    
    70   34   35 am   BACKBONE|DICT|INTERRES
    71   34  159 1    
    72   35   36 2    
    73   35   37 1    
    74   37   38 1    
    75   37   39 1    
    76   37  160 1    
    77   38  161 1    
    78   38  162 1    
    79   38  163 1    
    80   39   40 am   BACKBONE|DICT|INTERRES
    81   39  164 1    
    82   40   41 2    
    83   40   42 1    
    84   42   43 1    
    85   42   44 1    
    86   42  165 1    
    87   43  166 1    
    88   43  167 1    
    89   43  168 1    
    90   44   45 am   BACKBONE|DICT|INTERRES
    91   44  169 1    
    92   45   46 2    
    93   45   47 1    
    94   47   48 1    
    95   47   49 1    
    96   47  170 1    
    97   48  171 1    
    98   48  172 1    
    99   48  173 1    
   100   49   50 am   BACKBONE|DICT|INTERRES
   101   49  174 1    
   102   50   51 2    
   103   50   52 1    
   104   52   53 1    
   105   52   54 1    
   106   52  175 1    
   107   53  176 1    
   108   53  177 1    
   109   53  178 1    
   110   54   55 am   BACKBONE|DICT|INTERRES
   111   54  179 1    
   112   55   56 2    
   113   55   57 1    
   114   57   58 1    
   115   57   59 1    
   116   57  180 1    
   117   58  181 1    
   118   58  182 1    
   119   58  183 1    
   120   59   60 am   BACKBONE|DICT|INTERRES
   121   59  184 1    
   122   60   61 2    
   123   60   62 1    
   124   62   63 1    
   125   62   64 1    
   126   62  185 1    
   127   63  186 1    
   128   63  187 1    
   129   63  188 1    
   130   64   65 am   BACKBONE|DICT|INTERRES
   131   64  189 1    
   132   65   66 2    
   133   67   68 2    
   134   67   69 am   BACKBONE|DICT|INTERRES
   135   69   70 1    
   136   69  190 1    
   137   70   71 1    
   138   70   72 1    
   139   70  191 1    
   140   71  192 1    
   141   71  193 1    
   142   71  194 1    
   143   72   73 2    
   144   72   74 am   BACKBONE|DICT|INTERRES
   145   74   75 1    
   146   74  195 1    
   147   75   76 1    
   148   75   77 1    
   149   75  196 1    
   150   76  197 1    
   151   76  198 1    
   152   76  199 1    
   153   77   78 2    
   154   77   79 am   BACKBONE|DICT|INTERRES
   155   79   80 1    
   156   79  200 1    
   157   80   81 1    
   158   80   82 1    
   159   80  201 1    
   160   81  202 1    
   161   81  203 1    
   162   81  204 1    
   163   82   83 2    
   164   82   84 am   BACKBONE|DICT|INTERRES
   165   84   85 1    
   166   84  205 1    
   167   85   86 1    
   168   85   87 1    
   169   85  206 1    
   170   86  207 1    
   171   86  208 1    
   172   86  209 1    
   173   87   88 2    
   174   87   89 am   BACKBONE|DICT|INTERRES
   175   89   90 1    
   176   89  210 1    
   177   90   91 1    
   178   90   92 1    
   179   90  211 1    
   180   91  212 1    
   181   91  213 1    
   182   91  214 1    
   183   92   93 2    
   184   92   94 am   BACKBONE|DICT|INTERRES
   185   94   95 1    
   186   94  215 1    
   187   95   96 1    
   188   95   97 1    
   189   95  216 1    
   190   96  217 1    
   191   96  218 1    
   192   96  219 1    
   193   97   98 2    
   194   97   99 am   BACKBONE|DICT|INTERRES
   195   99  100 1    
   196   99  220 1    
   197  100  101 1    
   198  100  102 1    
   199  100  221 1    
   200  101  222 1    
   201  101  223 1    
   202  101  224 1    
   203  102  103 2    
   204  102  104 am   BACKBONE|DICT|INTERRES
   205  104  105 1    
   206  104  225 1    
   207  105  106 1    
   208  105  107 1    
   209  105  226 1    
   210  106  227 1    
   211  106  228 1    
   212  106  229 1    
   213  107  108 2    
   214  107  109 am   BACKBONE|DICT|INTERRES
   215  109  110 1    
   216  109  230 1    
   217  110  111 1    
   218  110  112 1    
   219  110  231 1    
   220  111  232 1    
   221  111  233 1    
   222  111  234 1    
   223  112  113 2    
   224  112  114 am   BACKBONE|DICT|INTERRES
   225  114  115 1    
   226  114  235 1    
   227  115  116 1    
   228  115  117 1    
   229  115  236 1    
   230  116  237 1    
   231  116  238 1    
   232  116  239 1    
   233  117  118 2    
   234  117  119 am   BACKBONE|DICT|INTERRES
   235  119  120 1    
   236  119  240 1    
   237  120  121 1    
   238  120  124 1    
   239  120  241 1    
   240  121  122 am   BACKBONE|DICT|INTERRES
   241  121  123 2    
   242  122  242 1    
   243  122  243 1    
   244  124  125 1    
   245  124  244 1    
   246  124  245 1    
   247  125  126 1    
   248  126  246 1    
   249  126  247 1    
@<TRIPOS>SUBSTRUCTURE
     1 UNK         1 GROUP             0       ****    0 ROOT    
