@<TRIPOS>MOLECULE
3R540
247   249    1
SMALL
USER_CHARGES


@<TRIPOS>ATOM
      1 CA         -2.7179  -10.5805  -44.8979 C.3       0 UNK        -0.1800 
      2 C          -1.3978  -11.2483  -45.2572 C.2       0 UNK         0.5000 
      3 O          -0.8546  -11.9878  -44.4393 O.2       0 UNK        -0.5000 
      4 N          -0.9044  -10.9928  -46.4773 N.am      1 UNK        -0.5000 
      5 CA          0.3662  -11.4585  -47.0575 C.3       1 UNK         0.1400 
      6 C6          0.6229  -12.9886  -46.9467 C.3       23 UNK        -0.0398 
      7 S7         -0.7809  -14.0069  -47.5179 S.3       23 UNK        -0.2404 
      8 C8         -0.2714  -14.5539  -49.1761 C.3       23 UNK        -0.0205 
      9 C9         -0.7840  -15.9609  -49.4384 C.ar      23 UNK        -0.0193 
     10 C10        -2.1271  -16.1804  -49.7627 C.ar      23 UNK        -0.1150 
     11 C11        -2.6083  -17.4807  -49.9463 C.ar      23 UNK        -0.0193 
     12 C12        -1.7367  -18.5632  -49.8018 C.ar      23 UNK        -0.1150 
     13 C13        -0.3913  -18.3554  -49.4898 C.ar      23 UNK        -0.0193 
     14 C14         0.0814  -17.0514  -49.3217 C.ar      23 UNK        -0.1150 
     15 C15         0.5460  -19.5382  -49.3142 C.3       23 UNK        -0.0205 
     16 S16         1.1174  -19.6523  -47.5920 S.3       23 UNK        -0.2404 
     17 C17         1.5667  -21.4122  -47.4629 C.3       23 UNK        -0.0398 
     18 CA          0.5384  -22.2733  -46.6897 C.3       11 UNK         0.1400 
     19 N           0.2624  -21.7770  -45.3401 N.am      11 UNK        -0.5000 
     20 C          -0.0845  -22.5683  -44.3169 C.2       10 UNK         0.5000 
     21 O          -0.1902  -23.7928  -44.4039 O.2       10 UNK        -0.5000 
     22 CA         -0.3905  -21.8730  -42.9786 C.3       10 UNK         0.1400 
     23 CB          0.8991  -21.3697  -42.3123 C.3       10 UNK        -0.1800 
     24 N          -1.3331  -20.7631  -43.1131 N.am      10 UNK        -0.5000 
     25 C          -2.6014  -20.8853  -43.5304 C.2       9 UNK         0.5000 
     26 O          -3.1095  -21.9498  -43.8808 O.2       9 UNK        -0.5000 
     27 CA         -3.4463  -19.5986  -43.5896 C.3       9 UNK         0.1400 
     28 CB         -4.1594  -19.3673  -42.2490 C.3       9 UNK        -0.1800 
     29 N          -2.7020  -18.3895  -43.9492 N.am      9 UNK        -0.5000 
     30 C          -1.9415  -18.2297  -45.0409 C.2       8 UNK         0.5000 
     31 O          -1.7142  -19.1305  -45.8495 O.2       8 UNK        -0.5000 
     32 CA         -1.3296  -16.8357  -45.2804 C.3       8 UNK         0.1400 
     33 CB         -1.6726  -15.7841  -44.2000 C.3       8 UNK        -0.1800 
     34 N           0.1173  -16.9053  -45.4815 N.am      8 UNK        -0.5000 
     35 C           1.0347  -17.3851  -44.6296 C.2       7 UNK         0.5000 
     36 O           0.7581  -17.8579  -43.5241 O.2       7 UNK        -0.5000 
     37 CA          2.5026  -17.3355  -45.1075 C.3       7 UNK         0.1400 
     38 CB          2.7714  -16.2221  -46.1419 C.3       7 UNK        -0.1800 
     39 N           3.4133  -17.1394  -43.9857 N.am      7 UNK        -0.5000 
     40 C           3.9793  -18.1071  -43.2562 C.2       6 UNK         0.5000 
     41 O           3.8123  -19.3103  -43.4598 O.2       6 UNK        -0.5000 
     42 CA          4.9093  -17.6565  -42.1176 C.3       6 UNK         0.1400 
     43 CB          6.3283  -17.4159  -42.6580 C.3       6 UNK        -0.1800 
     44 N           4.4369  -16.4271  -41.4768 N.am      6 UNK        -0.5000 
     45 C           3.9560  -16.3499  -40.2289 C.2       5 UNK         0.5000 
     46 O           3.8346  -17.3216  -39.4815 O.2       5 UNK        -0.5000 
     47 CA          3.5654  -14.9531  -39.7026 C.3       5 UNK         0.1400 
     48 CB          4.7030  -14.3672  -38.8518 C.3       5 UNK        -0.1800 
     49 N           3.2287  -13.9969  -40.7580 N.am      5 UNK        -0.5000 
     50 C           2.0908  -14.0142  -41.4644 C.2       4 UNK         0.5000 
     51 O           1.1842  -14.8248  -41.2749 O.2       4 UNK        -0.5000 
     52 CA          1.9330  -12.9456  -42.5665 C.3       4 UNK         0.1400 
     53 CB          1.2204  -11.7136  -41.9866 C.3       4 UNK        -0.1800 
     54 N           3.1696  -12.4958  -43.2212 N.am      4 UNK        -0.5000 
     55 C           4.1374  -13.2625  -43.7415 C.2       3 UNK         0.5000 
     56 O           4.1726  -14.4877  -43.6328 O.2       3 UNK        -0.5000 
     57 CA          5.2193  -12.5281  -44.5468 C.3       3 UNK         0.1400 
     58 CB          6.2609  -13.4842  -45.1578 C.3       3 UNK        -0.1800 
     59 N           4.5708  -11.7777  -45.6192 N.am      3 UNK        -0.5000 
     60 C           4.7027  -10.4658  -45.8456 C.2       2 UNK         0.5000 
     61 O           5.4225   -9.7226  -45.1779 O.2       2 UNK        -0.5000 
     62 CA          3.8862   -9.8803  -47.0152 C.3       2 UNK         0.1400 
     63 CB          4.7483   -9.8100  -48.2852 C.3       2 UNK        -0.1800 
     64 N           2.6577  -10.6263  -47.3142 N.am      2 UNK        -0.5000 
     65 C           1.5723  -10.6490  -46.5272 C.2       1 UNK         0.5000 
     66 O           1.5156  -10.0594  -45.4455 O.2       1 UNK        -0.5000 
     67 C          -0.7616  -22.5007  -47.4835 C.2       11 UNK         0.5000 
     68 O          -0.8154  -23.4465  -48.2682 O.2       11 UNK        -0.5000 
     69 N          -1.7958  -21.6750  -47.2533 N.am      12 UNK        -0.5000 
     70 CA         -3.1046  -21.8024  -47.8982 C.3       12 UNK         0.1400 
     71 CB         -4.0043  -20.6174  -47.5245 C.3       12 UNK        -0.1800 
     72 C          -3.8070  -23.1301  -47.5710 C.2       12 UNK         0.5000 
     73 O          -4.3975  -23.7265  -48.4698 O.2       12 UNK        -0.5000 
     74 N          -3.6977  -23.5910  -46.3159 N.am      13 UNK        -0.5000 
     75 CA         -4.2130  -24.8858  -45.8680 C.3       13 UNK         0.1400 
     76 CB         -4.1136  -24.9836  -44.3387 C.3       13 UNK        -0.1800 
     77 C          -3.4942  -26.0733  -46.5331 C.2       13 UNK         0.5000 
     78 O          -4.1547  -27.0320  -46.9328 O.2       13 UNK        -0.5000 
     79 N          -2.1643  -25.9739  -46.6728 N.am      14 UNK        -0.5000 
     80 CA         -1.3241  -26.9702  -47.3427 C.3       14 UNK         0.1400 
     81 CB          0.1540  -26.6724  -47.0473 C.3       14 UNK        -0.1800 
     82 C          -1.5811  -27.0307  -48.8606 C.2       14 UNK         0.5000 
     83 O          -1.6131  -28.1191  -49.4350 O.2       14 UNK        -0.5000 
     84 N          -1.7939  -25.8582  -49.4706 N.am      15 UNK        -0.5000 
     85 CA         -2.1492  -25.6798  -50.8784 C.3       15 UNK         0.1400 
     86 CB         -1.8690  -24.2161  -51.2540 C.3       15 UNK        -0.1800 
     87 C          -3.6166  -26.0292  -51.2015 C.2       15 UNK         0.5000 
     88 O          -3.9734  -26.0839  -52.3806 O.2       15 UNK        -0.5000 
     89 N          -4.4466  -26.1924  -50.1585 N.am      16 UNK        -0.5000 
     90 CA         -5.9052  -26.3549  -50.1871 C.3       16 UNK         0.1400 
     91 CB         -6.2817  -27.7344  -50.7645 C.3       16 UNK        -0.1800 
     92 C          -6.6100  -25.1864  -50.9115 C.2       16 UNK         0.5000 
     93 O          -7.5915  -25.4005  -51.6254 O.2       16 UNK        -0.5000 
     94 N          -6.0409  -23.9797  -50.7641 N.am      17 UNK        -0.5000 
     95 CA         -6.3003  -22.7167  -51.4674 C.3       17 UNK         0.1400 
     96 CB         -7.7176  -22.1947  -51.1734 C.3       17 UNK        -0.1800 
     97 C          -6.0291  -22.7555  -52.9870 C.2       17 UNK         0.5000 
     98 O          -5.4549  -21.8062  -53.5216 O.2       17 UNK        -0.5000 
     99 N          -6.4403  -23.8401  -53.6526 N.am      18 UNK        -0.5000 
    100 CA        -6.3946  -24.0616  -55.0951 C.3       18 UNK         0.1400 
    101 CB        -7.0310  -25.4226  -55.4139 C.3       18 UNK        -0.1800 
    102 C         -4.9876  -23.9653  -55.7051 C.2       18 UNK         0.5000 
    103 O         -4.8210  -23.2795  -56.7140 O.2       18 UNK        -0.5000 
    104 N         -3.9924  -24.6121  -55.0791 N.am      19 UNK        -0.5000 
    105 CA        -2.6087  -24.6194  -55.5720 C.3       19 UNK         0.1400 
    106 CB        -1.8307  -25.7791  -54.9323 C.3       19 UNK        -0.1800 
    107 C         -1.8793  -23.2753  -55.3693 C.2       19 UNK         0.5000 
    108 O         -0.8843  -23.0202  -56.0481 O.2       19 UNK        -0.5000 
    109 N         -2.3990  -22.4328  -54.4664 N.am      20 UNK        -0.5000 
    110 CA        -1.9434  -21.0612  -54.2373 C.3       20 UNK         0.1400 
    111 CB        -2.1154  -20.7303  -52.7452 C.3       20 UNK        -0.1800 
    112 C         -2.6967  -20.0417  -55.1184 C.2       20 UNK         0.5000 
    113 O         -2.3301  -18.8665  -55.1184 O.2       20 UNK        -0.5000 
    114 N         -3.7312  -20.5031  -55.8413 N.am      21 UNK        -0.5000 
    115 CA        -4.6797  -19.7316  -56.6516 C.3       21 UNK         0.1400 
    116 CB        -3.9720  -19.0401  -57.8357 C.3       21 UNK        -0.1800 
    117 C         -5.5480  -18.7686  -55.8119 C.2       21 UNK         0.5000 
    118 O         -5.9680  -17.7227  -56.3111 O.2       21 UNK        -0.5000 
    119 N         -5.8126  -19.1476  -54.5556 N.am      22 UNK        -0.5000 
    120 CA        -6.6185  -18.3861  -53.5875 C.3       22 UNK         0.1400 
    121 C         -8.1212  -18.7918  -53.5766 C.2       22 UNK         0.5000 
    122 N         -8.5482  -19.7979  -54.3308 N.am      22 UNK        -0.7600 
    123 O         -8.9201  -18.1740  -52.8783 O.2       22 UNK        -0.5000 
    124 C124       -6.0142  -18.4611  -52.1614 C.3       23 UNK        -0.0398 
    125 S125       -4.3141  -17.8069  -52.0851 S.3       23 UNK        -0.2404 
    126 C126       -4.0692  -17.7260  -50.2874 C.3       23 UNK        -0.0205 
    127 H127       -2.5904   -9.9488  -44.0188 H         1 UNK         0.0600 
    128 H128       -3.0953   -9.9601  -45.7112 H         1 UNK         0.0600 
    129 H129       -3.4695  -11.3364  -44.6699 H         1 UNK         0.0600 
    130 H130       -1.4228  -10.3627  -47.0724 H         1 UNK         0.3000 
    131 H131        0.2853  -11.2241  -48.1201 H         1 UNK         0.0600 
    132 H132        0.8284  -13.2679  -45.9124 H         1 UNK         0.0800 
    133 H133        1.5174  -13.2688  -47.5038 H         1 UNK         0.0800 
    134 H134        0.8145  -14.5282  -49.2742 H         1 UNK         0.0800 
    135 H135       -0.6668  -13.8645  -49.9234 H         1 UNK         0.0800 
    136 H136       -2.7998  -15.3394  -49.8561 H         1 UNK         0.1150 
    137 H137       -2.1090  -19.5689  -49.9328 H         1 UNK         0.1150 
    138 H138        1.1212  -16.8922  -49.0756 H         1 UNK         0.1150 
    139 H139        0.0434  -20.4632  -49.6004 H         1 UNK         0.0800 
    140 H140        1.4053  -19.4303  -49.9773 H         1 UNK         0.0800 
    141 H141        1.7491  -21.8257  -48.4565 H         1 UNK         0.0800 
    142 H142        2.5275  -21.4622  -46.9489 H         1 UNK         0.0800 
    143 H143        0.9994  -23.2588  -46.5914 H         1 UNK         0.0600 
    144 H144        0.2711  -20.7739  -45.2155 H         1 UNK         0.3000 
    145 H145       -0.8448  -22.6148  -42.3184 H         1 UNK         0.0600 
    146 H146        0.6990  -20.9666  -41.3195 H         1 UNK         0.0600 
    147 H147        1.6214  -22.1786  -42.1953 H         1 UNK         0.0600 
    148 H148        1.3773  -20.5852  -42.9001 H         1 UNK         0.0600 
    149 H149       -0.9854  -19.8395  -42.8941 H         1 UNK         0.3000 
    150 H150       -4.2117  -19.7447  -44.3523 H         1 UNK         0.0600 
    151 H151       -4.7440  -20.2422  -41.9611 H         1 UNK         0.0600 
    152 H152       -4.8480  -18.5242  -42.3073 H         1 UNK         0.0600 
    153 H153       -3.4496  -19.1677  -41.4452 H         1 UNK         0.0600 
    154 H154       -2.8081  -17.6001  -43.3293 H         1 UNK         0.3000 
    155 H155       -1.7536  -16.4918  -46.2244 H         1 UNK         0.0600 
    156 H156       -1.2368  -14.8167  -44.4511 H         1 UNK         0.0600 
    157 H157       -1.2956  -16.0641  -43.2156 H         1 UNK         0.0600 
    158 H158       -2.7497  -15.6333  -44.1199 H         1 UNK         0.0600 
    159 H159        0.4306  -16.5923  -46.3883 H         1 UNK         0.3000 
    160 H160        2.7252  -18.2937  -45.5788 H         1 UNK         0.0600 
    161 H161        2.4667  -15.2440  -45.7680 H         1 UNK         0.0600 
    162 H162        2.2414  -16.4056  -47.0758 H         1 UNK         0.0600 
    163 H163        3.8318  -16.1646  -46.3885 H         1 UNK         0.0600 
    164 H164        3.6256  -16.1709  -43.7591 H         1 UNK         0.3000 
    165 H165        4.9597  -18.4734  -41.3948 H         1 UNK         0.0600 
    166 H166        6.3490  -16.6070  -43.3897 H         1 UNK         0.0600 
    167 H167        7.0164  -17.1567  -41.8532 H         1 UNK         0.0600 
    168 H168        6.7187  -18.3106  -43.1446 H         1 UNK         0.0600 
    169 H169        4.4509  -15.5882  -42.0473 H         1 UNK         0.3000 
    170 H170        2.6915  -15.0780  -39.0595 H         1 UNK         0.0600 
    171 H171        4.9635  -15.0378  -38.0318 H         1 UNK         0.0600 
    172 H172        5.6054  -14.2059  -39.4429 H         1 UNK         0.0600 
    173 H173        4.4147  -13.4132  -38.4098 H         1 UNK         0.0600 
    174 H174        3.9195  -13.2943  -40.9765 H         1 UNK         0.3000 
    175 H175        1.3001  -13.3770  -43.3444 H         1 UNK         0.0600 
    176 H176        1.8090  -11.2413  -41.1993 H         1 UNK         0.0600 
    177 H177        1.0313  -10.9657  -42.7568 H         1 UNK         0.0600 
    178 H178        0.2543  -11.9862  -41.5594 H         1 UNK         0.0600 
    179 H179        3.2305  -11.5009  -43.3853 H         1 UNK         0.3000 
    180 H180        5.7329  -11.8588  -43.8538 H         1 UNK         0.0600 
    181 H181        5.8012  -14.1975  -45.8433 H         1 UNK         0.0600 
    182 H182        6.7714  -14.0553  -44.3813 H         1 UNK         0.0600 
    183 H183        7.0227  -12.9336  -45.7096 H         1 UNK         0.0600 
    184 H184        3.9386  -12.3006  -46.2068 H         1 UNK         0.3000 
    185 H185        3.6061   -8.8613  -46.7394 H         1 UNK         0.0600 
    186 H186        5.6595   -9.2370  -48.1079 H         1 UNK         0.0600 
    187 H187        5.0463  -10.8025  -48.6255 H         1 UNK         0.0600 
    188 H188        4.2131   -9.3211  -49.0995 H         1 UNK         0.0600 
    189 H189        2.6381  -11.1117  -48.1997 H         1 UNK         0.3000 
    190 H190       -1.6709  -20.8781  -46.6332 H         1 UNK         0.3000 
    191 H191       -2.9405  -21.7709  -48.9769 H         1 UNK         0.0600 
    192 H192       -4.9474  -20.6566  -48.0709 H         1 UNK         0.0600 
    193 H193       -3.5294  -19.6661  -47.7608 H         1 UNK         0.0600 
    194 H194       -4.2411  -20.6179  -46.4619 H         1 UNK         0.0600 
    195 H195       -3.2383  -23.0186  -45.6146 H         1 UNK         0.3000 
    196 H196       -5.2683  -24.9409  -46.1435 H         1 UNK         0.0600 
    197 H197       -4.4768  -25.9483  -43.9822 H         1 UNK         0.0600 
    198 H198       -4.7148  -24.2129  -43.8563 H         1 UNK         0.0600 
    199 H199       -3.0847  -24.8697  -43.9941 H         1 UNK         0.0600 
    200 H200       -1.7014  -25.1448  -46.3276 H         1 UNK         0.3000 
    201 H201       -1.5629  -27.9504  -46.9245 H         1 UNK         0.0600 
    202 H202        0.3493  -26.6698  -45.9747 H         1 UNK         0.0600 
    203 H203        0.4598  -25.7044  -47.4446 H         1 UNK         0.0600 
    204 H204        0.8002  -27.4287  -47.4944 H         1 UNK         0.0600 
    205 H205       -1.6664  -25.0051  -48.9316 H         1 UNK         0.3000 
    206 H206       -1.5131  -26.3266  -51.4854 H         1 UNK         0.0600 
    207 H207       -0.8155  -23.9682  -51.1238 H         1 UNK         0.0600 
    208 H208       -2.1231  -24.0175  -52.2925 H         1 UNK         0.0600 
    209 H209       -2.4530  -23.5274  -50.6433 H         1 UNK         0.0600 
    210 H210       -4.0475  -26.0823  -49.2361 H         1 UNK         0.3000 
    211 H211       -6.2398  -26.3213  -49.1494 H         1 UNK         0.0600 
    212 H212       -6.0221  -27.8154  -51.8206 H         1 UNK         0.0600 
    213 H213       -7.3531  -27.9171  -50.6754 H         1 UNK         0.0600 
    214 H214       -5.7709  -28.5360  -50.2311 H         1 UNK         0.0600 
    215 H215       -5.2783  -23.9348  -50.0909 H         1 UNK         0.3000 
    216 H216       -5.5929  -21.9999  -51.0472 H         1 UNK         0.0600 
    217 H217       -8.4871  -22.8601  -51.5652 H         1 UNK         0.0600 
    218 H218       -7.8754  -21.2157  -51.6266 H         1 UNK         0.0600 
    219 H219       -7.8816  -22.0866  -50.1013 H         1 UNK         0.0600 
    220 H220       -6.9026  -24.5584  -53.1006 H         1 UNK         0.3000 
    221 H221       -7.0056  -23.2848  -55.5591 H         1 UNK         0.0600 
    222 H222       -6.4976  -26.2396  -54.9258 H         1 UNK         0.0600 
    223 H223       -8.0694  -25.4584  -55.0839 H         1 UNK         0.0600 
    224 H224       -7.0242  -25.6180  -56.4871 H         1 UNK         0.0600 
    225 H225       -4.1851  -25.1394  -54.2325 H         1 UNK         0.3000 
    226 H226       -2.6380  -24.8045  -56.6480 H         1 UNK         0.0600 
    227 H227       -2.3343  -26.7316  -55.0982 H         1 UNK         0.0600 
    228 H228       -0.8319  -25.8605  -55.3627 H         1 UNK         0.0600 
    229 H229       -1.7104  -25.6476  -53.8595 H         1 UNK         0.0600 
    230 H230       -3.2402  -22.7101  -53.9797 H         1 UNK         0.3000 
    231 H231       -0.8819  -20.9791  -54.4796 H         1 UNK         0.0600 
    232 H232       -3.1573  -20.7985  -52.4312 H         1 UNK         0.0600 
    233 H233       -1.5293  -21.4029  -52.1196 H         1 UNK         0.0600 
    234 H234       -1.7761  -19.7160  -52.5316 H         1 UNK         0.0600 
    235 H235       -3.9367  -21.4924  -55.7843 H         1 UNK         0.3000 
    236 H236       -5.3718  -20.4629  -57.0713 H         1 UNK         0.0600 
    237 H237       -3.3672  -19.7488  -58.4014 H         1 UNK         0.0600 
    238 H238       -4.6978  -18.6107  -58.5271 H         1 UNK         0.0600 
    239 H239       -3.3208  -18.2309  -57.5046 H         1 UNK         0.0600 
    240 H240       -5.4644  -20.0450  -54.2289 H         1 UNK         0.3000 
    241 H241       -6.6083  -17.3344  -53.8797 H         1 UNK         0.0600 
    242 H242       -7.9045  -20.3055  -54.9151 H         1 UNK         0.3800 
    243 H243       -9.5253  -20.0445  -54.3233 H         1 UNK         0.3800 
    244 H244       -6.6248  -17.8933  -51.4570 H         1 UNK         0.0800 
    245 H245       -6.0044  -19.4917  -51.8043 H         1 UNK         0.0800 
    246 H246       -4.4035  -18.6602  -49.8347 H         1 UNK         0.0800 
    247 H247       -4.6951  -16.9365  -49.8688 H         1 UNK         0.0800 
@<TRIPOS>BOND
     1    1    2 1    
     2    1  127 1    
     3    1  128 1    
     4    1  129 1    
     5    2    3 2    
     6    2    4 am   BACKBONE|DICT|INTERRES
     7    4    5 1    
     8    4  130 1    
     9    5    6 1    
    10    5   65 1    
    11    5  131 1    
    12    6    7 1    
    13    6  132 1    
    14    6  133 1    
    15    7    8 1    
    16    8    9 1    
    17    8  134 1    
    18    8  135 1    
    19    9   10 ar   
    20    9   14 ar   
    21   10   11 ar   
    22   10  136 1    
    23   11   12 ar   
    24   11  126 1    
    25   12   13 ar   
    26   12  137 1    
    27   13   14 ar   
    28   13   15 1    
    29   14  138 1    
    30   15   16 1    
    31   15  139 1    
    32   15  140 1    
    33   16   17 1    
    34   17   18 1    
    35   17  141 1    
    36   17  142 1    
    37   18   19 1    
    38   18   67 1    
    39   18  143 1    
    40   19   20 am   BACKBONE|DICT|INTERRES
    41   19  144 1    
    42   20   21 2    
    43   20   22 1    
    44   22   23 1    
    45   22   24 1    
    46   22  145 1    
    47   23  146 1    
    48   23  147 1    
    49   23  148 1    
    50   24   25 am   BACKBONE|DICT|INTERRES
    51   24  149 1    
    52   25   26 2    
    53   25   27 1    
    54   27   28 1    
    55   27   29 1    
    56   27  150 1    
    57   28  151 1    
    58   28  152 1    
    59   28  153 1    
    60   29   30 am   BACKBONE|DICT|INTERRES
    61   29  154 1    
    62   30   31 2    
    63   30   32 1    
    64   32   33 1    
    65   32   34 1    
    66   32  155 1    
    67   33  156 1    
    68   33  157 1    
    69   33  158 1    
    70   34   35 am   BACKBONE|DICT|INTERRES
    71   34  159 1    
    72   35   36 2    
    73   35   37 1    
    74   37   38 1    
    75   37   39 1    
    76   37  160 1    
    77   38  161 1    
    78   38  162 1    
    79   38  163 1    
    80   39   40 am   BACKBONE|DICT|INTERRES
    81   39  164 1    
    82   40   41 2    
    83   40   42 1    
    84   42   43 1    
    85   42   44 1    
    86   42  165 1    
    87   43  166 1    
    88   43  167 1    
    89   43  168 1    
    90   44   45 am   BACKBONE|DICT|INTERRES
    91   44  169 1    
    92   45   46 2    
    93   45   47 1    
    94   47   48 1    
    95   47   49 1    
    96   47  170 1    
    97   48  171 1    
    98   48  172 1    
    99   48  173 1    
   100   49   50 am   BACKBONE|DICT|INTERRES
   101   49  174 1    
   102   50   51 2    
   103   50   52 1    
   104   52   53 1    
   105   52   54 1    
   106   52  175 1    
   107   53  176 1    
   108   53  177 1    
   109   53  178 1    
   110   54   55 am   BACKBONE|DICT|INTERRES
   111   54  179 1    
   112   55   56 2    
   113   55   57 1    
   114   57   58 1    
   115   57   59 1    
   116   57  180 1    
   117   58  181 1    
   118   58  182 1    
   119   58  183 1    
   120   59   60 am   BACKBONE|DICT|INTERRES
   121   59  184 1    
   122   60   61 2    
   123   60   62 1    
   124   62   63 1    
   125   62   64 1    
   126   62  185 1    
   127   63  186 1    
   128   63  187 1    
   129   63  188 1    
   130   64   65 am   BACKBONE|DICT|INTERRES
   131   64  189 1    
   132   65   66 2    
   133   67   68 2    
   134   67   69 am   BACKBONE|DICT|INTERRES
   135   69   70 1    
   136   69  190 1    
   137   70   71 1    
   138   70   72 1    
   139   70  191 1    
   140   71  192 1    
   141   71  193 1    
   142   71  194 1    
   143   72   73 2    
   144   72   74 am   BACKBONE|DICT|INTERRES
   145   74   75 1    
   146   74  195 1    
   147   75   76 1    
   148   75   77 1    
   149   75  196 1    
   150   76  197 1    
   151   76  198 1    
   152   76  199 1    
   153   77   78 2    
   154   77   79 am   BACKBONE|DICT|INTERRES
   155   79   80 1    
   156   79  200 1    
   157   80   81 1    
   158   80   82 1    
   159   80  201 1    
   160   81  202 1    
   161   81  203 1    
   162   81  204 1    
   163   82   83 2    
   164   82   84 am   BACKBONE|DICT|INTERRES
   165   84   85 1    
   166   84  205 1    
   167   85   86 1    
   168   85   87 1    
   169   85  206 1    
   170   86  207 1    
   171   86  208 1    
   172   86  209 1    
   173   87   88 2    
   174   87   89 am   BACKBONE|DICT|INTERRES
   175   89   90 1    
   176   89  210 1    
   177   90   91 1    
   178   90   92 1    
   179   90  211 1    
   180   91  212 1    
   181   91  213 1    
   182   91  214 1    
   183   92   93 2    
   184   92   94 am   BACKBONE|DICT|INTERRES
   185   94   95 1    
   186   94  215 1    
   187   95   96 1    
   188   95   97 1    
   189   95  216 1    
   190   96  217 1    
   191   96  218 1    
   192   96  219 1    
   193   97   98 2    
   194   97   99 am   BACKBONE|DICT|INTERRES
   195   99  100 1    
   196   99  220 1    
   197  100  101 1    
   198  100  102 1    
   199  100  221 1    
   200  101  222 1    
   201  101  223 1    
   202  101  224 1    
   203  102  103 2    
   204  102  104 am   BACKBONE|DICT|INTERRES
   205  104  105 1    
   206  104  225 1    
   207  105  106 1    
   208  105  107 1    
   209  105  226 1    
   210  106  227 1    
   211  106  228 1    
   212  106  229 1    
   213  107  108 2    
   214  107  109 am   BACKBONE|DICT|INTERRES
   215  109  110 1    
   216  109  230 1    
   217  110  111 1    
   218  110  112 1    
   219  110  231 1    
   220  111  232 1    
   221  111  233 1    
   222  111  234 1    
   223  112  113 2    
   224  112  114 am   BACKBONE|DICT|INTERRES
   225  114  115 1    
   226  114  235 1    
   227  115  116 1    
   228  115  117 1    
   229  115  236 1    
   230  116  237 1    
   231  116  238 1    
   232  116  239 1    
   233  117  118 2    
   234  117  119 am   BACKBONE|DICT|INTERRES
   235  119  120 1    
   236  119  240 1    
   237  120  121 1    
   238  120  124 1    
   239  120  241 1    
   240  121  122 am   BACKBONE|DICT|INTERRES
   241  121  123 2    
   242  122  242 1    
   243  122  243 1    
   244  124  125 1    
   245  124  244 1    
   246  124  245 1    
   247  125  126 1    
   248  126  246 1    
   249  126  247 1    
@<TRIPOS>SUBSTRUCTURE
     1 UNK         1 GROUP             0       ****    0 ROOT    
