@<TRIPOS>MOLECULE
3R540
247   249    1
SMALL
USER_CHARGES


@<TRIPOS>ATOM
      1 CA          6.4372  -17.9177  -48.5521 C.3       0 UNK        -0.1800 
      2 C           5.6743  -16.9967  -47.6104 C.2       0 UNK         0.5000 
      3 O           5.9271  -17.0073  -46.4055 O.2       0 UNK        -0.5000 
      4 N           4.7369  -16.2117  -48.1542 N.am      1 UNK        -0.5000 
      5 CA          3.9124  -15.2526  -47.4131 C.3       1 UNK         0.1400 
      6 C6          2.6898  -14.7809  -48.2412 C.3       23 UNK        -0.0398 
      7 S7          1.5802  -16.1661  -48.6742 S.3       23 UNK        -0.2404 
      8 C8          1.1969  -15.8209  -50.4208 C.3       23 UNK        -0.0205 
      9 C9          0.4388  -16.9820  -51.0487 C.ar      23 UNK        -0.0193 
     10 C10         1.0878  -17.8624  -51.9188 C.ar      23 UNK        -0.1150 
     11 C11         0.4145  -18.9580  -52.4682 C.ar      23 UNK        -0.0193 
     12 C12        -0.9233  -19.1732  -52.1134 C.ar      23 UNK        -0.1150 
     13 C13        -1.5883  -18.3080  -51.2406 C.ar      23 UNK        -0.0193 
     14 C14        -0.9065  -17.1937  -50.7365 C.ar      23 UNK        -0.1150 
     15 C15        -3.0258  -18.6485  -50.8485 C.3       23 UNK        -0.0205 
     16 S16        -3.6312  -17.9613  -49.2701 S.3       23 UNK        -0.2404 
     17 C17        -2.4255  -18.4316  -47.9770 C.3       23 UNK        -0.0398 
     18 CA         -1.5429  -19.6966  -48.1466 C.3       11 UNK         0.1400 
     19 N          -0.4222  -19.6619  -47.2051 N.am      11 UNK        -0.5000 
     20 C           0.5951  -20.5304  -47.1624 C.2       10 UNK         0.5000 
     21 O           0.7025  -21.4976  -47.9126 O.2       10 UNK        -0.5000 
     22 CA          1.6462  -20.3129  -46.0622 C.3       10 UNK         0.1400 
     23 CB          2.6112  -19.1800  -46.4455 C.3       10 UNK        -0.1800 
     24 N           1.0459  -20.0370  -44.7565 N.am      10 UNK        -0.5000 
     25 C           0.2670  -20.8920  -44.0780 C.2       9 UNK         0.5000 
     26 O          -0.0161  -22.0221  -44.4745 O.2       9 UNK        -0.5000 
     27 CA         -0.3256  -20.3911  -42.7483 C.3       9 UNK         0.1400 
     28 CB          0.7321  -20.3976  -41.6342 C.3       9 UNK        -0.1800 
     29 N          -0.9160  -19.0578  -42.8576 N.am      9 UNK        -0.5000 
     30 C          -1.9663  -18.7542  -43.6344 C.2       8 UNK         0.5000 
     31 O          -2.5711  -19.5720  -44.3301 O.2       8 UNK        -0.5000 
     32 CA         -2.3743  -17.2701  -43.6834 C.3       8 UNK         0.1400 
     33 CB         -3.1587  -16.8753  -42.4232 C.3       8 UNK        -0.1800 
     34 N          -1.2297  -16.3727  -43.8559 N.am      8 UNK        -0.5000 
     35 C          -0.3889  -16.4217  -44.8991 C.2       7 UNK         0.5000 
     36 O          -0.5014  -17.2144  -45.8288 O.2       7 UNK        -0.5000 
     37 CA          0.8194  -15.4791  -44.8802 C.3       7 UNK         0.1400 
     38 CB          0.4127  -14.0391  -45.2252 C.3       7 UNK        -0.1800 
     39 N           1.5271  -15.5082  -43.6061 N.am      7 UNK        -0.5000 
     40 C           2.1103  -16.5842  -43.0622 C.2       6 UNK         0.5000 
     41 O           2.1689  -17.6848  -43.6060 O.2       6 UNK        -0.5000 
     42 CA          2.6833  -16.4061  -41.6480 C.3       6 UNK         0.1400 
     43 CB          4.0703  -15.7458  -41.6986 C.3       6 UNK        -0.1800 
     44 N           1.7909  -15.6170  -40.7991 N.am      6 UNK        -0.5000 
     45 C           0.5950  -16.0334  -40.3601 C.2       5 UNK         0.5000 
     46 O           0.1273  -17.1485  -40.5963 O.2       5 UNK        -0.5000 
     47 CA         -0.2263  -15.0157  -39.5466 C.3       5 UNK         0.1400 
     48 CB          0.2509  -14.9745  -38.0871 C.3       5 UNK        -0.1800 
     49 N          -0.1772  -13.6652  -40.1131 N.am      5 UNK        -0.5000 
     50 C          -0.7507  -13.3204  -41.2739 C.2       4 UNK         0.5000 
     51 O          -1.3803  -14.1057  -41.9829 O.2       4 UNK        -0.5000 
     52 CA         -0.5593  -11.8643  -41.7456 C.3       4 UNK         0.1400 
     53 CB         -1.5514  -10.9343  -41.0308 C.3       4 UNK        -0.1800 
     54 N           0.7998  -11.3211  -41.6088 N.am      4 UNK        -0.5000 
     55 C           1.9227  -11.9107  -42.0402 C.2       3 UNK         0.5000 
     56 O           1.9705  -13.0721  -42.4429 O.2       3 UNK        -0.5000 
     57 CA          3.2185  -11.0778  -42.0043 C.3       3 UNK         0.1400 
     58 CB          3.8228  -11.0958  -40.5920 C.3       3 UNK        -0.1800 
     59 N           4.2158  -11.5961  -42.9474 N.am      3 UNK        -0.5000 
     60 C           4.0730  -11.6344  -44.2804 C.2       2 UNK         0.5000 
     61 O           3.1411  -11.0975  -44.8822 O.2       2 UNK        -0.5000 
     62 CA          5.1184  -12.4247  -45.0857 C.3       2 UNK         0.1400 
     63 CB          6.3116  -12.9476  -44.2571 C.3       2 UNK        -0.1800 
     64 N           4.4412  -13.5476  -45.7305 N.am      2 UNK        -0.5000 
     65 C           4.7523  -14.0494  -46.9311 C.2       1 UNK         0.5000 
     66 O           5.6441  -13.5964  -47.6537 O.2       1 UNK        -0.5000 
     67 C          -2.3521  -21.0017  -48.0237 C.2       11 UNK         0.5000 
     68 O          -2.5970  -21.6592  -49.0346 O.2       11 UNK        -0.5000 
     69 N          -2.6921  -21.3863  -46.7848 N.am      12 UNK        -0.5000 
     70 CA         -3.4148  -22.6209  -46.4735 C.3       12 UNK         0.1400 
     71 CB         -3.9041  -22.5580  -45.0193 C.3       12 UNK        -0.1800 
     72 C          -2.6029  -23.9088  -46.7161 C.2       12 UNK         0.5000 
     73 O          -3.2051  -24.9681  -46.8964 O.2       12 UNK        -0.5000 
     74 N          -1.2676  -23.8105  -46.6927 N.am      13 UNK        -0.5000 
     75 CA         -0.3574  -24.9206  -46.9607 C.3       13 UNK         0.1400 
     76 CB          0.9535  -24.7082  -46.1869 C.3       13 UNK        -0.1800 
     77 C          -0.0810  -25.0831  -48.4644 C.2       13 UNK         0.5000 
     78 O          -0.1348  -26.2041  -48.9720 O.2       13 UNK        -0.5000 
     79 N           0.2385  -23.9728  -49.1433 N.am      14 UNK        -0.5000 
     80 CA          0.6533  -23.9500  -50.5457 C.3       14 UNK         0.1400 
     81 CB          1.3353  -22.6098  -50.8543 C.3       14 UNK        -0.1800 
     82 C          -0.5007  -24.2055  -51.5281 C.2       14 UNK         0.5000 
     83 O          -0.2845  -24.8585  -52.5502 O.2       14 UNK        -0.5000 
     84 N          -1.6962  -23.7034  -51.2017 N.am      15 UNK        -0.5000 
     85 CA         -2.9185  -23.9039  -51.9681 C.3       15 UNK         0.1400 
     86 CB         -3.4954  -22.5329  -52.3395 C.3       15 UNK        -0.1800 
     87 C          -3.9140  -24.6959  -51.1145 C.2       15 UNK         0.5000 
     88 O          -4.0213  -24.4365  -49.9151 O.2       15 UNK        -0.5000 
     89 N          -4.6404  -25.6239  -51.7530 N.am      16 UNK        -0.5000 
     90 CA         -5.6343  -26.5143  -51.1464 C.3       16 UNK         0.1400 
     91 CB         -6.2453  -27.3978  -52.2465 C.3       16 UNK        -0.1800 
     92 C          -6.7258  -25.7400  -50.3850 C.2       16 UNK         0.5000 
     93 O          -7.5902  -25.1280  -51.0155 O.2       16 UNK        -0.5000 
     94 N          -6.6074  -25.7194  -49.0486 N.am      17 UNK        -0.5000 
     95 CA         -7.4288  -24.9628  -48.0942 C.3       17 UNK         0.1400 
     96 CB         -8.8470  -25.5659  -48.0183 C.3       17 UNK        -0.1800 
     97 C          -7.4464  -23.4405  -48.3674 C.2       17 UNK         0.5000 
     98 O          -8.4400  -22.7786  -48.0662 O.2       17 UNK        -0.5000 
     99 N          -6.3650  -22.9293  -48.9791 N.am      18 UNK        -0.5000 
    100 CA        -6.1698  -21.5734  -49.5096 C.3       18 UNK         0.1400 
    101 CB        -6.3069  -20.5101  -48.3999 C.3       18 UNK        -0.1800 
    102 C         -7.0416  -21.2263  -50.7398 C.2       18 UNK         0.5000 
    103 O         -6.8777  -20.1414  -51.2983 O.2       18 UNK        -0.5000 
    104 N         -7.9385  -22.1298  -51.1607 N.am      19 UNK        -0.5000 
    105 CA        -8.9660  -21.8797  -52.1728 C.3       19 UNK         0.1400 
    106 CB       -10.0775  -22.9305  -52.0299 C.3       19 UNK        -0.1800 
    107 C         -8.4229  -21.8607  -53.6107 C.2       19 UNK         0.5000 
    108 O         -8.9569  -21.1311  -54.4468 O.2       19 UNK        -0.5000 
    109 N         -7.3726  -22.6510  -53.8761 N.am      20 UNK        -0.5000 
    110 CA        -6.7179  -22.7321  -55.1869 C.3       20 UNK         0.1400 
    111 CB        -5.8715  -24.0138  -55.2522 C.3       20 UNK        -0.1800 
    112 C         -5.8647  -21.4904  -55.5227 C.2       20 UNK         0.5000 
    113 O         -5.5611  -21.2634  -56.6950 O.2       20 UNK        -0.5000 
    114 N         -5.4788  -20.7262  -54.4879 N.am      21 UNK        -0.5000 
    115 CA        -4.7517  -19.4497  -54.5190 C.3       21 UNK         0.1400 
    116 CB        -5.6769  -18.3407  -55.0589 C.3       21 UNK        -0.1800 
    117 C         -3.3872  -19.4741  -55.2477 C.2       21 UNK         0.5000 
    118 O         -2.8910  -18.4158  -55.6367 O.2       21 UNK        -0.5000 
    119 N         -2.8182  -20.6732  -55.4390 N.am      22 UNK        -0.5000 
    120 CA        -1.6496  -20.9524  -56.2932 C.3       22 UNK         0.1400 
    121 C         -1.8883  -20.6460  -57.8072 C.2       22 UNK         0.5000 
    122 N         -3.1271  -20.6342  -58.2888 N.am      22 UNK        -0.7600 
    123 O         -0.9450  -20.4491  -58.5689 O.2       22 UNK        -0.5000 
    124 C124       -0.3238  -20.3557  -55.7367 C.3       23 UNK        -0.0398 
    125 S125        0.2220  -21.2073  -54.2188 S.3       23 UNK        -0.2404 
    126 C126        1.1938  -19.8980  -53.3911 C.3       23 UNK        -0.0205 
    127 H127        6.2927  -18.9572  -48.2577 H         1 UNK         0.0600 
    128 H128        7.5036  -17.6954  -48.5122 H         1 UNK         0.0600 
    129 H129        6.1049  -17.8078  -49.5847 H         1 UNK         0.0600 
    130 H130        4.5840  -16.2386  -49.1514 H         1 UNK         0.3000 
    131 H131        3.5482  -15.7729  -46.5260 H         1 UNK         0.0600 
    132 H132        2.1034  -14.0497  -47.6830 H         1 UNK         0.0800 
    133 H133        3.0198  -14.2738  -49.1495 H         1 UNK         0.0800 
    134 H134        2.1216  -15.6325  -50.9682 H         1 UNK         0.0800 
    135 H135        0.6008  -14.9098  -50.4896 H         1 UNK         0.0800 
    136 H136        2.1295  -17.7024  -52.1600 H         1 UNK         0.1150 
    137 H137       -1.4572  -20.0303  -52.4948 H         1 UNK         0.1150 
    138 H138       -1.4009  -16.5073  -50.0649 H         1 UNK         0.1150 
    139 H139       -3.6825  -18.2758  -51.6328 H         1 UNK         0.0800 
    140 H140       -3.1592  -19.7290  -50.8196 H         1 UNK         0.0800 
    141 H141       -2.9494  -18.4605  -47.0200 H         1 UNK         0.0800 
    142 H142       -1.7678  -17.5656  -47.9168 H         1 UNK         0.0800 
    143 H143       -1.0863  -19.6966  -49.1337 H         1 UNK         0.0600 
    144 H144       -0.4111  -18.8719  -46.5619 H         1 UNK         0.3000 
    145 H145        2.2257  -21.2340  -45.9730 H         1 UNK         0.0600 
    146 H146        3.4325  -19.1021  -45.7330 H         1 UNK         0.0600 
    147 H147        3.0490  -19.3499  -47.4300 H         1 UNK         0.0600 
    148 H148        2.1050  -18.2150  -46.4740 H         1 UNK         0.0600 
    149 H149        1.2617  -19.1319  -44.3444 H         1 UNK         0.3000 
    150 H150       -1.1214  -21.0817  -42.4615 H         1 UNK         0.0600 
    151 H151        1.1738  -21.3884  -41.5208 H         1 UNK         0.0600 
    152 H152        0.2938  -20.1241  -40.6742 H         1 UNK         0.0600 
    153 H153        1.5422  -19.6979  -41.8412 H         1 UNK         0.0600 
    154 H154       -0.4827  -18.3216  -42.3117 H         1 UNK         0.3000 
    155 H155       -3.0298  -17.1373  -44.5465 H         1 UNK         0.0600 
    156 H156       -2.5378  -16.9284  -41.5283 H         1 UNK         0.0600 
    157 H157       -4.0140  -17.5350  -42.2715 H         1 UNK         0.0600 
    158 H158       -3.5429  -15.8582  -42.5023 H         1 UNK         0.0600 
    159 H159       -1.0902  -15.6676  -43.1379 H         1 UNK         0.3000 
    160 H160        1.5083  -15.8315  -45.6454 H         1 UNK         0.0600 
    161 H161       -0.2750  -13.6273  -44.4870 H         1 UNK         0.0600 
    162 H162       -0.0834  -13.9972  -46.1956 H         1 UNK         0.0600 
    163 H163        1.2806  -13.3816  -45.2731 H         1 UNK         0.0600 
    164 H164        1.5628  -14.6310  -43.0866 H         1 UNK         0.3000 
    165 H165        2.7923  -17.3973  -41.2026 H         1 UNK         0.0600 
    166 H166        4.5070  -15.6703  -40.7027 H         1 UNK         0.0600 
    167 H167        4.7573  -16.3309  -42.3115 H         1 UNK         0.0600 
    168 H168        4.0289  -14.7424  -42.1227 H         1 UNK         0.0600 
    169 H169        2.0586  -14.6580  -40.6317 H         1 UNK         0.3000 
    170 H170       -1.2662  -15.3500  -39.5532 H         1 UNK         0.0600 
    171 H171        0.2109  -15.9669  -37.6358 H         1 UNK         0.0600 
    172 H172        1.2788  -14.6186  -38.0073 H         1 UNK         0.0600 
    173 H173       -0.3791  -14.3194  -37.4851 H         1 UNK         0.0600 
    174 H174        0.3353  -12.9647  -39.5980 H         1 UNK         0.3000 
    175 H175       -0.7960  -11.8448  -42.8110 H         1 UNK         0.0600 
    176 H176       -1.3317  -10.8536  -39.9656 H         1 UNK         0.0600 
    177 H177       -1.5285   -9.9305  -41.4556 H         1 UNK         0.0600 
    178 H178       -2.5737  -11.3024  -41.1285 H         1 UNK         0.0600 
    179 H179        0.8598  -10.3741  -41.2634 H         1 UNK         0.3000 
    180 H180        2.9818  -10.0490  -42.2824 H         1 UNK         0.0600 
    181 H181        4.0748  -12.1089  -40.2751 H         1 UNK         0.0600 
    182 H182        3.1254  -10.6868  -39.8598 H         1 UNK         0.0600 
    183 H183        4.7304  -10.4937  -40.5437 H         1 UNK         0.0600 
    184 H184        5.0007  -12.0814  -42.5397 H         1 UNK         0.3000 
    185 H185        5.5004  -11.7386  -45.8446 H         1 UNK         0.0600 
    186 H186        6.8325  -12.1326  -43.7530 H         1 UNK         0.0600 
    187 H187        5.9997  -13.6708  -43.5025 H         1 UNK         0.0600 
    188 H188        7.0417  -13.4413  -44.8988 H         1 UNK         0.0600 
    189 H189        3.6661  -13.9346  -45.2105 H         1 UNK         0.3000 
    190 H190       -2.4488  -20.7950  -45.9960 H         1 UNK         0.3000 
    191 H191       -4.2891  -22.6713  -47.1234 H         1 UNK         0.0600 
    192 H192       -3.0697  -22.4791  -44.3208 H         1 UNK         0.0600 
    193 H193       -4.4722  -23.4512  -44.7566 H         1 UNK         0.0600 
    194 H194       -4.5563  -21.6991  -44.8602 H         1 UNK         0.0600 
    195 H195       -0.8479  -22.9121  -46.4914 H         1 UNK         0.3000 
    196 H196       -0.8047  -25.8495  -46.6003 H         1 UNK         0.0600 
    197 H197        1.6550  -25.5219  -46.3747 H         1 UNK         0.0600 
    198 H198        0.7731  -24.6759  -45.1123 H         1 UNK         0.0600 
    199 H199        1.4458  -23.7771  -46.4692 H         1 UNK         0.0600 
    200 H200        0.2857  -23.0831  -48.6489 H         1 UNK         0.3000 
    201 H201        1.3921  -24.7411  -50.6901 H         1 UNK         0.0600 
    202 H202        2.1769  -22.4290  -50.1856 H         1 UNK         0.0600 
    203 H203        0.6423  -21.7726  -50.7562 H         1 UNK         0.0600 
    204 H204        1.7230  -22.6025  -51.8730 H         1 UNK         0.0600 
    205 H205       -1.8146  -23.2203  -50.3167 H         1 UNK         0.3000 
    206 H206       -2.7242  -24.4592  -52.8880 H         1 UNK         0.0600 
    207 H207       -2.8450  -22.0199  -53.0456 H         1 UNK         0.0600 
    208 H208       -4.4808  -22.6282  -52.7898 H         1 UNK         0.0600 
    209 H209       -3.5993  -21.8938  -51.4665 H         1 UNK         0.0600 
    210 H210       -4.4899  -25.7560  -52.7420 H         1 UNK         0.3000 
    211 H211       -5.1122  -27.1657  -50.4427 H         1 UNK         0.0600 
    212 H212       -6.7303  -26.8018  -53.0209 H         1 UNK         0.0600 
    213 H213       -6.9967  -28.0717  -51.8330 H         1 UNK         0.0600 
    214 H214       -5.4852  -28.0152  -52.7255 H         1 UNK         0.0600 
    215 H215       -5.8111  -26.1922  -48.6424 H         1 UNK         0.3000 
    216 H216       -6.9596  -25.0886  -47.1174 H         1 UNK         0.0600 
    217 H217       -9.4268  -25.1081  -47.2161 H         1 UNK         0.0600 
    218 H218       -8.8099  -26.6366  -47.8180 H         1 UNK         0.0600 
    219 H219       -9.3991  -25.4174  -48.9471 H         1 UNK         0.0600 
    220 H220       -5.6044  -23.5719  -49.1909 H         1 UNK         0.3000 
    221 H221       -5.1388  -21.5403  -49.8562 H         1 UNK         0.0600 
    222 H222       -7.3203  -20.4552  -48.0037 H         1 UNK         0.0600 
    223 H223       -5.6303  -20.7097  -47.5698 H         1 UNK         0.0600 
    224 H224       -6.0646  -19.5184  -48.7803 H         1 UNK         0.0600 
    225 H225       -7.9672  -23.0363  -50.7092 H         1 UNK         0.3000 
    226 H226       -9.4041  -20.8991  -51.9745 H         1 UNK         0.0600 
    227 H227      -10.5017  -22.9222  -51.0256 H         1 UNK         0.0600 
    228 H228      -10.8917  -22.7350  -52.7289 H         1 UNK         0.0600 
    229 H229       -9.7092  -23.9373  -52.2295 H         1 UNK         0.0600 
    230 H230       -7.0253  -23.2489  -53.1399 H         1 UNK         0.3000 
    231 H231       -7.4934  -22.8052  -55.9524 H         1 UNK         0.0600 
    232 H232       -6.4837  -24.8985  -55.0753 H         1 UNK         0.0600 
    233 H233       -5.0654  -24.0136  -54.5204 H         1 UNK         0.0600 
    234 H234       -5.4164  -24.1289  -56.2369 H         1 UNK         0.0600 
    235 H235       -5.8122  -20.9993  -53.5744 H         1 UNK         0.3000 
    236 H236       -4.5301  -19.2153  -53.4798 H         1 UNK         0.0600 
    237 H237       -5.9042  -18.4867  -56.1154 H         1 UNK         0.0600 
    238 H238       -6.6205  -18.3163  -54.5133 H         1 UNK         0.0600 
    239 H239       -5.2193  -17.3564  -54.9534 H         1 UNK         0.0600 
    240 H240       -3.3122  -21.4839  -55.1008 H         1 UNK         0.3000 
    241 H241       -1.5373  -22.0370  -56.2761 H         1 UNK         0.0600 
    242 H242       -3.9268  -20.8162  -57.6893 H         1 UNK         0.3800 
    243 H243       -3.2739  -20.4472  -59.2678 H         1 UNK         0.3800 
    244 H244       -0.4238  -19.2862  -55.5498 H         1 UNK         0.0800 
    245 H245        0.4889  -20.4618  -56.4566 H         1 UNK         0.0800 
    246 H246        1.7159  -19.3121  -54.1490 H         1 UNK         0.0800 
    247 H247        1.9702  -20.3806  -52.7972 H         1 UNK         0.0800 
@<TRIPOS>BOND
     1    1    2 1    
     2    1  127 1    
     3    1  128 1    
     4    1  129 1    
     5    2    3 2    
     6    2    4 am   BACKBONE|DICT|INTERRES
     7    4    5 1    
     8    4  130 1    
     9    5    6 1    
    10    5   65 1    
    11    5  131 1    
    12    6    7 1    
    13    6  132 1    
    14    6  133 1    
    15    7    8 1    
    16    8    9 1    
    17    8  134 1    
    18    8  135 1    
    19    9   10 ar   
    20    9   14 ar   
    21   10   11 ar   
    22   10  136 1    
    23   11   12 ar   
    24   11  126 1    
    25   12   13 ar   
    26   12  137 1    
    27   13   14 ar   
    28   13   15 1    
    29   14  138 1    
    30   15   16 1    
    31   15  139 1    
    32   15  140 1    
    33   16   17 1    
    34   17   18 1    
    35   17  141 1    
    36   17  142 1    
    37   18   19 1    
    38   18   67 1    
    39   18  143 1    
    40   19   20 am   BACKBONE|DICT|INTERRES
    41   19  144 1    
    42   20   21 2    
    43   20   22 1    
    44   22   23 1    
    45   22   24 1    
    46   22  145 1    
    47   23  146 1    
    48   23  147 1    
    49   23  148 1    
    50   24   25 am   BACKBONE|DICT|INTERRES
    51   24  149 1    
    52   25   26 2    
    53   25   27 1    
    54   27   28 1    
    55   27   29 1    
    56   27  150 1    
    57   28  151 1    
    58   28  152 1    
    59   28  153 1    
    60   29   30 am   BACKBONE|DICT|INTERRES
    61   29  154 1    
    62   30   31 2    
    63   30   32 1    
    64   32   33 1    
    65   32   34 1    
    66   32  155 1    
    67   33  156 1    
    68   33  157 1    
    69   33  158 1    
    70   34   35 am   BACKBONE|DICT|INTERRES
    71   34  159 1    
    72   35   36 2    
    73   35   37 1    
    74   37   38 1    
    75   37   39 1    
    76   37  160 1    
    77   38  161 1    
    78   38  162 1    
    79   38  163 1    
    80   39   40 am   BACKBONE|DICT|INTERRES
    81   39  164 1    
    82   40   41 2    
    83   40   42 1    
    84   42   43 1    
    85   42   44 1    
    86   42  165 1    
    87   43  166 1    
    88   43  167 1    
    89   43  168 1    
    90   44   45 am   BACKBONE|DICT|INTERRES
    91   44  169 1    
    92   45   46 2    
    93   45   47 1    
    94   47   48 1    
    95   47   49 1    
    96   47  170 1    
    97   48  171 1    
    98   48  172 1    
    99   48  173 1    
   100   49   50 am   BACKBONE|DICT|INTERRES
   101   49  174 1    
   102   50   51 2    
   103   50   52 1    
   104   52   53 1    
   105   52   54 1    
   106   52  175 1    
   107   53  176 1    
   108   53  177 1    
   109   53  178 1    
   110   54   55 am   BACKBONE|DICT|INTERRES
   111   54  179 1    
   112   55   56 2    
   113   55   57 1    
   114   57   58 1    
   115   57   59 1    
   116   57  180 1    
   117   58  181 1    
   118   58  182 1    
   119   58  183 1    
   120   59   60 am   BACKBONE|DICT|INTERRES
   121   59  184 1    
   122   60   61 2    
   123   60   62 1    
   124   62   63 1    
   125   62   64 1    
   126   62  185 1    
   127   63  186 1    
   128   63  187 1    
   129   63  188 1    
   130   64   65 am   BACKBONE|DICT|INTERRES
   131   64  189 1    
   132   65   66 2    
   133   67   68 2    
   134   67   69 am   BACKBONE|DICT|INTERRES
   135   69   70 1    
   136   69  190 1    
   137   70   71 1    
   138   70   72 1    
   139   70  191 1    
   140   71  192 1    
   141   71  193 1    
   142   71  194 1    
   143   72   73 2    
   144   72   74 am   BACKBONE|DICT|INTERRES
   145   74   75 1    
   146   74  195 1    
   147   75   76 1    
   148   75   77 1    
   149   75  196 1    
   150   76  197 1    
   151   76  198 1    
   152   76  199 1    
   153   77   78 2    
   154   77   79 am   BACKBONE|DICT|INTERRES
   155   79   80 1    
   156   79  200 1    
   157   80   81 1    
   158   80   82 1    
   159   80  201 1    
   160   81  202 1    
   161   81  203 1    
   162   81  204 1    
   163   82   83 2    
   164   82   84 am   BACKBONE|DICT|INTERRES
   165   84   85 1    
   166   84  205 1    
   167   85   86 1    
   168   85   87 1    
   169   85  206 1    
   170   86  207 1    
   171   86  208 1    
   172   86  209 1    
   173   87   88 2    
   174   87   89 am   BACKBONE|DICT|INTERRES
   175   89   90 1    
   176   89  210 1    
   177   90   91 1    
   178   90   92 1    
   179   90  211 1    
   180   91  212 1    
   181   91  213 1    
   182   91  214 1    
   183   92   93 2    
   184   92   94 am   BACKBONE|DICT|INTERRES
   185   94   95 1    
   186   94  215 1    
   187   95   96 1    
   188   95   97 1    
   189   95  216 1    
   190   96  217 1    
   191   96  218 1    
   192   96  219 1    
   193   97   98 2    
   194   97   99 am   BACKBONE|DICT|INTERRES
   195   99  100 1    
   196   99  220 1    
   197  100  101 1    
   198  100  102 1    
   199  100  221 1    
   200  101  222 1    
   201  101  223 1    
   202  101  224 1    
   203  102  103 2    
   204  102  104 am   BACKBONE|DICT|INTERRES
   205  104  105 1    
   206  104  225 1    
   207  105  106 1    
   208  105  107 1    
   209  105  226 1    
   210  106  227 1    
   211  106  228 1    
   212  106  229 1    
   213  107  108 2    
   214  107  109 am   BACKBONE|DICT|INTERRES
   215  109  110 1    
   216  109  230 1    
   217  110  111 1    
   218  110  112 1    
   219  110  231 1    
   220  111  232 1    
   221  111  233 1    
   222  111  234 1    
   223  112  113 2    
   224  112  114 am   BACKBONE|DICT|INTERRES
   225  114  115 1    
   226  114  235 1    
   227  115  116 1    
   228  115  117 1    
   229  115  236 1    
   230  116  237 1    
   231  116  238 1    
   232  116  239 1    
   233  117  118 2    
   234  117  119 am   BACKBONE|DICT|INTERRES
   235  119  120 1    
   236  119  240 1    
   237  120  121 1    
   238  120  124 1    
   239  120  241 1    
   240  121  122 am   BACKBONE|DICT|INTERRES
   241  121  123 2    
   242  122  242 1    
   243  122  243 1    
   244  124  125 1    
   245  124  244 1    
   246  124  245 1    
   247  125  126 1    
   248  126  246 1    
   249  126  247 1    
@<TRIPOS>SUBSTRUCTURE
     1 UNK         1 GROUP             0       ****    0 ROOT    
