@<TRIPOS>MOLECULE
3R540
247   249    1
SMALL
USER_CHARGES


@<TRIPOS>ATOM
      1 CA         -1.2842  -10.7150  -46.1577 C.3       0 UNK        -0.1800 
      2 C          -0.2518  -11.5159  -46.9377 C.2       0 UNK         0.5000 
      3 O           0.7857  -10.9739  -47.3212 O.2       0 UNK        -0.5000 
      4 N          -0.5280  -12.8049  -47.1710 N.am      1 UNK        -0.5000 
      5 CA          0.3369  -13.7501  -47.8867 C.3       1 UNK         0.1400 
      6 C6         -0.4591  -14.9599  -48.4372 C.3       23 UNK        -0.0398 
      7 S7         -1.7639  -14.4643  -49.6097 S.3       23 UNK        -0.2404 
      8 C8         -2.6970  -16.0178  -49.7696 C.3       23 UNK        -0.0205 
      9 C9         -1.8605  -17.1205  -50.4013 C.ar      23 UNK        -0.0193 
     10 C10        -1.6272  -17.1235  -51.7790 C.ar      23 UNK        -0.1150 
     11 C11        -0.8763  -18.1442  -52.3689 C.ar      23 UNK        -0.0193 
     12 C12        -0.3501  -19.1604  -51.5669 C.ar      23 UNK        -0.1150 
     13 C13        -0.5789  -19.1726  -50.1880 C.ar      23 UNK        -0.0193 
     14 C14        -1.3333  -18.1461  -49.6115 C.ar      23 UNK        -0.1150 
     15 C15        -0.0565  -20.3267  -49.3440 C.3       23 UNK        -0.0205 
     16 S16         1.2442  -19.8281  -48.1722 S.3       23 UNK        -0.2404 
     17 C17         0.2974  -19.5971  -46.6313 C.3       23 UNK        -0.0398 
     18 CA          0.3142  -20.8465  -45.7147 C.3       11 UNK         0.1400 
     19 N           0.2310  -20.4768  -44.2962 N.am      11 UNK        -0.5000 
     20 C           0.3392  -21.3250  -43.2617 C.2       10 UNK         0.5000 
     21 O           0.5216  -22.5357  -43.3873 O.2       10 UNK        -0.5000 
     22 CA          0.1675  -20.7290  -41.8558 C.3       10 UNK         0.1400 
     23 CB          1.4869  -20.1374  -41.3395 C.3       10 UNK        -0.1800 
     24 N          -0.8795  -19.7066  -41.8429 N.am      10 UNK        -0.5000 
     25 C          -2.1776  -19.9730  -41.6408 C.2       9 UNK         0.5000 
     26 O          -2.6088  -21.0878  -41.3461 O.2       9 UNK        -0.5000 
     27 CA         -3.1702  -18.8078  -41.8157 C.3       9 UNK         0.1400 
     28 CB         -3.3976  -18.0884  -40.4778 C.3       9 UNK        -0.1800 
     29 N          -2.7510  -17.8342  -42.8258 N.am      9 UNK        -0.5000 
     30 C          -2.6843  -18.0869  -44.1414 C.2       8 UNK         0.5000 
     31 O          -2.9648  -19.1737  -44.6440 O.2       8 UNK        -0.5000 
     32 CA         -2.1679  -16.9540  -45.0496 C.3       8 UNK         0.1400 
     33 CB         -3.3357  -16.1020  -45.5677 C.3       8 UNK        -0.1800 
     34 N          -1.1728  -16.0821  -44.4210 N.am      8 UNK        -0.5000 
     35 C          -0.0163  -16.4871  -43.8781 C.2       7 UNK         0.5000 
     36 O           0.3178  -17.6718  -43.7922 O.2       7 UNK        -0.5000 
     37 CA          0.9208  -15.4059  -43.3058 C.3       7 UNK         0.1400 
     38 CB          0.3432  -13.9723  -43.3183 C.3       7 UNK        -0.1800 
     39 N           1.3885  -15.7691  -41.9697 N.am      7 UNK        -0.5000 
     40 C           0.6332  -16.0127  -40.8885 C.2       6 UNK         0.5000 
     41 O          -0.5922  -15.8847  -40.8721 O.2       6 UNK        -0.5000 
     42 CA          1.3659  -16.5133  -39.6289 C.3       6 UNK         0.1400 
     43 CB          0.4978  -17.4878  -38.8113 C.3       6 UNK        -0.1800 
     44 N           2.6365  -17.1615  -39.9762 N.am      6 UNK        -0.5000 
     45 C           3.8483  -16.6427  -39.7437 C.2       5 UNK         0.5000 
     46 O           4.0372  -15.5713  -39.1667 O.2       5 UNK        -0.5000 
     47 CA          5.0614  -17.4455  -40.2538 C.3       5 UNK         0.1400 
     48 CB          5.4897  -18.4823  -39.2036 C.3       5 UNK        -0.1800 
     49 N           4.8897  -18.1214  -41.5471 N.am      5 UNK        -0.5000 
     50 C           4.5616  -17.5351  -42.7068 C.2       4 UNK         0.5000 
     51 O           4.1645  -16.3703  -42.8026 O.2       4 UNK        -0.5000 
     52 CA          4.7236  -18.3958  -43.9721 C.3       4 UNK         0.1400 
     53 CB          3.6366  -19.4749  -44.0818 C.3       4 UNK        -0.1800 
     54 N           4.6487  -17.5369  -45.1464 N.am      4 UNK        -0.5000 
     55 C           5.3658  -17.6648  -46.2686 C.2       3 UNK         0.5000 
     56 O           6.1923  -18.5599  -46.4508 O.2       3 UNK        -0.5000 
     57 CA          5.1175  -16.6272  -47.3827 C.3       3 UNK         0.1400 
     58 CB          4.4324  -17.2866  -48.5905 C.3       3 UNK        -0.1800 
     59 N           4.2775  -15.5189  -46.9309 N.am      3 UNK        -0.5000 
     60 C           4.6961  -14.4076  -46.3182 C.2       2 UNK         0.5000 
     61 O           5.8868  -14.1501  -46.1348 O.2       2 UNK        -0.5000 
     62 CA          3.6001  -13.4348  -45.8145 C.3       2 UNK         0.1400 
     63 CB          4.1536  -12.0318  -45.5087 C.3       2 UNK        -0.1800 
     64 N           2.4394  -13.2891  -46.7032 N.am      2 UNK        -0.5000 
     65 C           1.5023  -14.2038  -46.9827 C.2       1 UNK         0.5000 
     66 O           1.5263  -15.3517  -46.5369 O.2       1 UNK        -0.5000 
     67 C          -0.7724  -21.8668  -46.1273 C.2       11 UNK         0.5000 
     68 O          -0.5296  -22.6985  -47.0017 O.2       11 UNK        -0.5000 
     69 N          -1.9306  -21.8308  -45.4512 N.am      12 UNK        -0.5000 
     70 CA         -3.0415  -22.7764  -45.5827 C.3       12 UNK         0.1400 
     71 CB         -4.1656  -22.3668  -44.6203 C.3       12 UNK        -0.1800 
     72 C          -2.6680  -24.2590  -45.3779 C.2       12 UNK         0.5000 
     73 O          -3.3812  -25.1219  -45.8885 O.2       12 UNK        -0.5000 
     74 N          -1.5409  -24.5425  -44.7065 N.am      13 UNK        -0.5000 
     75 CA         -0.9559  -25.8820  -44.5948 C.3       13 UNK         0.1400 
     76 CB          0.2231  -25.8385  -43.6120 C.3       13 UNK        -0.1800 
     77 C          -0.5064  -26.4744  -45.9490 C.2       13 UNK         0.5000 
     78 O          -0.4849  -27.6973  -46.0912 O.2       13 UNK        -0.5000 
     79 N          -0.1847  -25.6102  -46.9240 N.am      14 UNK        -0.5000 
     80 CA          0.1342  -25.9879  -48.3032 C.3       14 UNK         0.1400 
     81 CB          1.1108  -24.9533  -48.8880 C.3       14 UNK        -0.1800 
     82 C          -1.1221  -26.1060  -49.1923 C.2       14 UNK         0.5000 
     83 O          -1.0006  -26.5220  -50.3442 O.2       14 UNK        -0.5000 
     84 N          -2.2926  -25.7146  -48.6621 N.am      15 UNK        -0.5000 
     85 CA         -3.6289  -25.7215  -49.2753 C.3       15 UNK         0.1400 
     86 CB         -4.0486  -27.1533  -49.6661 C.3       15 UNK        -0.1800 
     87 C          -3.8277  -24.7246  -50.4390 C.2       15 UNK         0.5000 
     88 O          -4.9157  -24.6862  -51.0140 O.2       15 UNK        -0.5000 
     89 N          -2.8042  -23.9216  -50.7587 N.am      16 UNK        -0.5000 
     90 CA         -2.8273  -22.9330  -51.8390 C.3       16 UNK         0.1400 
     91 CB         -1.3903  -22.6898  -52.3214 C.3       16 UNK        -0.1800 
     92 C          -3.5056  -21.6082  -51.4403 C.2       16 UNK         0.5000 
     93 O          -3.8923  -20.8428  -52.3239 O.2       16 UNK        -0.5000 
     94 N          -3.6502  -21.3556  -50.1305 N.am      17 UNK        -0.5000 
     95 CA         -4.2950  -20.1631  -49.5805 C.3       17 UNK         0.1400 
     96 CB         -4.1448  -20.1468  -48.0505 C.3       17 UNK        -0.1800 
     97 C          -5.7710  -20.0728  -50.0082 C.2       17 UNK         0.5000 
     98 O          -6.5773  -20.9113  -49.6015 O.2       17 UNK        -0.5000 
     99 N          -6.0676  -19.0749  -50.8521 N.am      18 UNK        -0.5000 
    100 CA        -7.3577  -18.8057  -51.4964 C.3       18 UNK         0.1400 
    101 CB        -8.4427  -18.4702  -50.4509 C.3       18 UNK        -0.1800 
    102 C         -7.8047  -19.8952  -52.4985 C.2       18 UNK         0.5000 
    103 O         -8.9949  -19.9810  -52.8083 O.2       18 UNK        -0.5000 
    104 N         -6.8562  -20.6901  -53.0163 N.am      19 UNK        -0.5000 
    105 CA        -7.0867  -21.6373  -54.1082 C.3       19 UNK         0.1400 
    106 CB        -5.9345  -22.6522  -54.1474 C.3       19 UNK        -0.1800 
    107 C         -7.1945  -20.9059  -55.4578 C.2       19 UNK         0.5000 
    108 O         -6.7205  -19.7742  -55.5862 O.2       19 UNK        -0.5000 
    109 N         -7.7638  -21.5824  -56.4639 N.am      20 UNK        -0.5000 
    110 CA        -7.9691  -21.0605  -57.8221 C.3       20 UNK         0.1400 
    111 CB        -8.7496  -22.0992  -58.6422 C.3       20 UNK        -0.1800 
    112 C         -6.6740  -20.6554  -58.5590 C.2       20 UNK         0.5000 
    113 O         -6.7239  -19.8065  -59.4497 O.2       20 UNK        -0.5000 
    114 N         -5.5409  -21.2511  -58.1634 N.am      21 UNK        -0.5000 
    115 CA        -4.2034  -20.9151  -58.6517 C.3       21 UNK         0.1400 
    116 CB        -3.2454  -22.0597  -58.2855 C.3       21 UNK        -0.1800 
    117 C         -3.6665  -19.5759  -58.1038 C.2       21 UNK         0.5000 
    118 O         -2.7967  -18.9791  -58.7403 O.2       21 UNK        -0.5000 
    119 N         -4.1720  -19.1400  -56.9429 N.am      22 UNK        -0.5000 
    120 CA        -3.7450  -17.9226  -56.2343 C.3       22 UNK         0.1400 
    121 C         -4.8273  -16.8091  -56.2433 C.2       22 UNK         0.5000 
    122 N         -6.1138  -17.1325  -56.2560 N.am      22 UNK        -0.7600 
    123 O         -4.4924  -15.6279  -56.2505 O.2       22 UNK        -0.5000 
    124 C124       -3.3103  -18.2424  -54.7823 C.3       23 UNK        -0.0398 
    125 S125       -1.7952  -19.2618  -54.7317 S.3       23 UNK        -0.2404 
    126 C126       -0.6297  -18.1588  -53.8703 C.3       23 UNK        -0.0205 
    127 H127       -1.6294   -9.8689  -46.7518 H         1 UNK         0.0600 
    128 H128       -0.8427  -10.3304  -45.2382 H         1 UNK         0.0600 
    129 H129       -2.1511  -11.3202  -45.8916 H         1 UNK         0.0600 
    130 H130       -1.4067  -13.1823  -46.8492 H         1 UNK         0.3000 
    131 H131        0.7788  -13.2348  -48.7425 H         1 UNK         0.0600 
    132 H132       -0.9121  -15.5273  -47.6229 H         1 UNK         0.0800 
    133 H133        0.2115  -15.6483  -48.9555 H         1 UNK         0.0800 
    134 H134       -3.5795  -15.8366  -50.3847 H         1 UNK         0.0800 
    135 H135       -3.0672  -16.3234  -48.7899 H         1 UNK         0.0800 
    136 H136       -2.0316  -16.3281  -52.3887 H         1 UNK         0.1150 
    137 H137        0.2229  -19.9538  -52.0255 H         1 UNK         0.1150 
    138 H138       -1.5272  -18.1482  -48.5506 H         1 UNK         0.1150 
    139 H139       -0.8917  -20.7968  -48.8271 H         1 UNK         0.0800 
    140 H140        0.3712  -21.0994  -49.9823 H         1 UNK         0.0800 
    141 H141       -0.7219  -19.2799  -46.8444 H         1 UNK         0.0800 
    142 H142        0.7706  -18.7542  -46.1269 H         1 UNK         0.0800 
    143 H143        1.2779  -21.3468  -45.8326 H         1 UNK         0.0600 
    144 H144        0.1264  -19.4850  -44.0977 H         1 UNK         0.3000 
    145 H145       -0.1062  -21.5480  -41.1869 H         1 UNK         0.0600 
    146 H146        1.4298  -19.9336  -40.2717 H         1 UNK         0.0600 
    147 H147        2.3097  -20.8397  -41.4767 H         1 UNK         0.0600 
    148 H148        1.7424  -19.2116  -41.8539 H         1 UNK         0.0600 
    149 H149       -0.6166  -18.7758  -42.1409 H         1 UNK         0.3000 
    150 H150       -4.1227  -19.2340  -42.1378 H         1 UNK         0.0600 
    151 H151       -3.7630  -18.7822  -39.7196 H         1 UNK         0.0600 
    152 H152       -4.1388  -17.2952  -40.5761 H         1 UNK         0.0600 
    153 H153       -2.4778  -17.6438  -40.0972 H         1 UNK         0.0600 
    154 H154       -2.4581  -16.9272  -42.4890 H         1 UNK         0.3000 
    155 H155       -1.6877  -17.4187  -45.9107 H         1 UNK         0.0600 
    156 H156       -4.0745  -16.7223  -46.0773 H         1 UNK         0.0600 
    157 H157       -2.9968  -15.3522  -46.2823 H         1 UNK         0.0600 
    158 H158       -3.8465  -15.5842  -44.7550 H         1 UNK         0.0600 
    159 H159       -1.3844  -15.0960  -44.4056 H         1 UNK         0.3000 
    160 H160        1.8057  -15.4175  -43.9396 H         1 UNK         0.0600 
    161 H161       -0.5621  -13.8869  -42.7164 H         1 UNK         0.0600 
    162 H162        0.1044  -13.6472  -44.3308 H         1 UNK         0.0600 
    163 H163        1.0685  -13.2609  -42.9231 H         1 UNK         0.0600 
    164 H164        2.3865  -15.9394  -41.9061 H         1 UNK         0.3000 
    165 H165        1.5457  -15.6349  -39.0062 H         1 UNK         0.0600 
    166 H166        1.0597  -17.9253  -37.9860 H         1 UNK         0.0600 
    167 H167       -0.3599  -16.9710  -38.3792 H         1 UNK         0.0600 
    168 H168        0.1057  -18.2989  -39.4233 H         1 UNK         0.0600 
    169 H169        2.5786  -18.0372  -40.4743 H         1 UNK         0.3000 
    170 H170        5.8815  -16.7349  -40.3760 H         1 UNK         0.0600 
    171 H171        5.6497  -18.0134  -38.2316 H         1 UNK         0.0600 
    172 H172        4.7340  -19.2580  -39.0733 H         1 UNK         0.0600 
    173 H173        6.4247  -18.9673  -39.4847 H         1 UNK         0.0600 
    174 H174        5.1843  -19.0870  -41.5710 H         1 UNK         0.3000 
    175 H175        5.7048  -18.8728  -43.9254 H         1 UNK         0.0600 
    176 H176        2.6406  -19.0339  -44.0780 H         1 UNK         0.0600 
    177 H177        3.7394  -20.0474  -45.0040 H         1 UNK         0.0600 
    178 H178        3.7005  -20.1840  -43.2577 H         1 UNK         0.0600 
    179 H179        4.0465  -16.7323  -45.0414 H         1 UNK         0.3000 
    180 H180        6.0883  -16.2434  -47.7025 H         1 UNK         0.0600 
    181 H181        3.4498  -17.6802  -48.3278 H         1 UNK         0.0600 
    182 H182        5.0265  -18.1158  -48.9766 H         1 UNK         0.0600 
    183 H183        4.3002  -16.5750  -49.4057 H         1 UNK         0.0600 
    184 H184        3.2719  -15.6591  -46.9912 H         1 UNK         0.3000 
    185 H185        3.2414  -13.8487  -44.8715 H         1 UNK         0.0600 
    186 H186        4.9577  -12.0745  -44.7729 H         1 UNK         0.0600 
    187 H187        4.5505  -11.5545  -46.4055 H         1 UNK         0.0600 
    188 H188        3.3791  -11.3834  -45.0984 H         1 UNK         0.0600 
    189 H189        2.2903  -12.3599  -47.0823 H         1 UNK         0.3000 
    190 H190       -2.0795  -21.0644  -44.8045 H         1 UNK         0.3000 
    191 H191       -3.4161  -22.6924  -46.6035 H         1 UNK         0.0600 
    192 H192       -4.5391  -21.3692  -44.8513 H         1 UNK         0.0600 
    193 H193       -5.0125  -23.0509  -44.6893 H         1 UNK         0.0600 
    194 H194       -3.8251  -22.3667  -43.5842 H         1 UNK         0.0600 
    195 H195       -0.9939  -23.7805  -44.3217 H         1 UNK         0.3000 
    196 H196       -1.7192  -26.5454  -44.1831 H         1 UNK         0.0600 
    197 H197        0.6423  -26.8339  -43.4598 H         1 UNK         0.0600 
    198 H198       -0.0881  -25.4636  -42.6368 H         1 UNK         0.0600 
    199 H199        1.0258  -25.1966  -43.9773 H         1 UNK         0.0600 
    200 H200       -0.2405  -24.6118  -46.7418 H         1 UNK         0.3000 
    201 H201        0.6315  -26.9600  -48.3070 H         1 UNK         0.0600 
    202 H202        1.9969  -24.8480  -48.2618 H         1 UNK         0.0600 
    203 H203        0.6510  -23.9696  -48.9861 H         1 UNK         0.0600 
    204 H204        1.4496  -25.2538  -49.8802 H         1 UNK         0.0600 
    205 H205       -2.2839  -25.4163  -47.6945 H         1 UNK         0.3000 
    206 H206       -4.3104  -25.3901  -48.4908 H         1 UNK         0.0600 
    207 H207       -3.9336  -27.8403  -48.8276 H         1 UNK         0.0600 
    208 H208       -5.0961  -27.1857  -49.9678 H         1 UNK         0.0600 
    209 H209       -3.4599  -27.5373  -50.4994 H         1 UNK         0.0600 
    210 H210       -1.9369  -24.0320  -50.2553 H         1 UNK         0.3000 
    211 H211       -3.3902  -23.3431  -52.6795 H         1 UNK         0.0600 
    212 H212       -0.9540  -23.6018  -52.7292 H         1 UNK         0.0600 
    213 H213       -0.7479  -22.3464  -51.5132 H         1 UNK         0.0600 
    214 H214       -1.3621  -21.9360  -53.1095 H         1 UNK         0.0600 
    215 H215       -3.3481  -22.0572  -49.4735 H         1 UNK         0.3000 
    216 H216       -3.7680  -19.2957  -49.9780 H         1 UNK         0.0600 
    217 H217       -4.5461  -19.2236  -47.6310 H         1 UNK         0.0600 
    218 H218       -3.0995  -20.2088  -47.7493 H         1 UNK         0.0600 
    219 H219       -4.6816  -20.9736  -47.5854 H         1 UNK         0.0600 
    220 H220       -5.3110  -18.4769  -51.1534 H         1 UNK         0.3000 
    221 H221       -7.2026  -17.9085  -52.0972 H         1 UNK         0.0600 
    222 H222       -8.7236  -19.3436  -49.8619 H         1 UNK         0.0600 
    223 H223       -8.1027  -17.6959  -49.7633 H         1 UNK         0.0600 
    224 H224       -9.3482  -18.0985  -50.9319 H         1 UNK         0.0600 
    225 H225       -5.8907  -20.5544  -52.7359 H         1 UNK         0.3000 
    226 H226       -8.0199  -22.1730  -53.9224 H         1 UNK         0.0600 
    227 H227       -5.8229  -23.1539  -53.1862 H         1 UNK         0.0600 
    228 H228       -6.1149  -23.4257  -54.8946 H         1 UNK         0.0600 
    229 H229       -4.9849  -22.1752  -54.3934 H         1 UNK         0.0600 
    230 H230       -8.1124  -22.5140  -56.2888 H         1 UNK         0.3000 
    231 H231       -8.5834  -20.1617  -57.7375 H         1 UNK         0.0600 
    232 H232       -8.1976  -23.0355  -58.7343 H         1 UNK         0.0600 
    233 H233       -8.9468  -21.7339  -59.6510 H         1 UNK         0.0600 
    234 H234       -9.7143  -22.3202  -58.1851 H         1 UNK         0.0600 
    235 H235       -5.5971  -21.9468  -57.4349 H         1 UNK         0.3000 
    236 H236       -4.2418  -20.8361  -59.7403 H         1 UNK         0.0600 
    237 H237       -3.5739  -23.0045  -58.7187 H         1 UNK         0.0600 
    238 H238       -2.2403  -21.8631  -58.6613 H         1 UNK         0.0600 
    239 H239       -3.1709  -22.1914  -57.2051 H         1 UNK         0.0600 
    240 H240       -4.9319  -19.6525  -56.5126 H         1 UNK         0.3000 
    241 H241       -2.8788  -17.4911  -56.7398 H         1 UNK         0.0600 
    242 H242       -6.4045  -18.1022  -56.1484 H         1 UNK         0.3800 
    243 H243       -6.8080  -16.4030  -56.2736 H         1 UNK         0.3800 
    244 H244       -3.1403  -17.3216  -54.2241 H         1 UNK         0.0800 
    245 H245       -4.1025  -18.7743  -54.2522 H         1 UNK         0.0800 
    246 H246        0.3867  -18.5035  -54.0658 H         1 UNK         0.0800 
    247 H247       -0.6923  -17.1518  -54.2855 H         1 UNK         0.0800 
@<TRIPOS>BOND
     1    1    2 1    
     2    1  127 1    
     3    1  128 1    
     4    1  129 1    
     5    2    3 2    
     6    2    4 am   BACKBONE|DICT|INTERRES
     7    4    5 1    
     8    4  130 1    
     9    5    6 1    
    10    5   65 1    
    11    5  131 1    
    12    6    7 1    
    13    6  132 1    
    14    6  133 1    
    15    7    8 1    
    16    8    9 1    
    17    8  134 1    
    18    8  135 1    
    19    9   10 ar   
    20    9   14 ar   
    21   10   11 ar   
    22   10  136 1    
    23   11   12 ar   
    24   11  126 1    
    25   12   13 ar   
    26   12  137 1    
    27   13   14 ar   
    28   13   15 1    
    29   14  138 1    
    30   15   16 1    
    31   15  139 1    
    32   15  140 1    
    33   16   17 1    
    34   17   18 1    
    35   17  141 1    
    36   17  142 1    
    37   18   19 1    
    38   18   67 1    
    39   18  143 1    
    40   19   20 am   BACKBONE|DICT|INTERRES
    41   19  144 1    
    42   20   21 2    
    43   20   22 1    
    44   22   23 1    
    45   22   24 1    
    46   22  145 1    
    47   23  146 1    
    48   23  147 1    
    49   23  148 1    
    50   24   25 am   BACKBONE|DICT|INTERRES
    51   24  149 1    
    52   25   26 2    
    53   25   27 1    
    54   27   28 1    
    55   27   29 1    
    56   27  150 1    
    57   28  151 1    
    58   28  152 1    
    59   28  153 1    
    60   29   30 am   BACKBONE|DICT|INTERRES
    61   29  154 1    
    62   30   31 2    
    63   30   32 1    
    64   32   33 1    
    65   32   34 1    
    66   32  155 1    
    67   33  156 1    
    68   33  157 1    
    69   33  158 1    
    70   34   35 am   BACKBONE|DICT|INTERRES
    71   34  159 1    
    72   35   36 2    
    73   35   37 1    
    74   37   38 1    
    75   37   39 1    
    76   37  160 1    
    77   38  161 1    
    78   38  162 1    
    79   38  163 1    
    80   39   40 am   BACKBONE|DICT|INTERRES
    81   39  164 1    
    82   40   41 2    
    83   40   42 1    
    84   42   43 1    
    85   42   44 1    
    86   42  165 1    
    87   43  166 1    
    88   43  167 1    
    89   43  168 1    
    90   44   45 am   BACKBONE|DICT|INTERRES
    91   44  169 1    
    92   45   46 2    
    93   45   47 1    
    94   47   48 1    
    95   47   49 1    
    96   47  170 1    
    97   48  171 1    
    98   48  172 1    
    99   48  173 1    
   100   49   50 am   BACKBONE|DICT|INTERRES
   101   49  174 1    
   102   50   51 2    
   103   50   52 1    
   104   52   53 1    
   105   52   54 1    
   106   52  175 1    
   107   53  176 1    
   108   53  177 1    
   109   53  178 1    
   110   54   55 am   BACKBONE|DICT|INTERRES
   111   54  179 1    
   112   55   56 2    
   113   55   57 1    
   114   57   58 1    
   115   57   59 1    
   116   57  180 1    
   117   58  181 1    
   118   58  182 1    
   119   58  183 1    
   120   59   60 am   BACKBONE|DICT|INTERRES
   121   59  184 1    
   122   60   61 2    
   123   60   62 1    
   124   62   63 1    
   125   62   64 1    
   126   62  185 1    
   127   63  186 1    
   128   63  187 1    
   129   63  188 1    
   130   64   65 am   BACKBONE|DICT|INTERRES
   131   64  189 1    
   132   65   66 2    
   133   67   68 2    
   134   67   69 am   BACKBONE|DICT|INTERRES
   135   69   70 1    
   136   69  190 1    
   137   70   71 1    
   138   70   72 1    
   139   70  191 1    
   140   71  192 1    
   141   71  193 1    
   142   71  194 1    
   143   72   73 2    
   144   72   74 am   BACKBONE|DICT|INTERRES
   145   74   75 1    
   146   74  195 1    
   147   75   76 1    
   148   75   77 1    
   149   75  196 1    
   150   76  197 1    
   151   76  198 1    
   152   76  199 1    
   153   77   78 2    
   154   77   79 am   BACKBONE|DICT|INTERRES
   155   79   80 1    
   156   79  200 1    
   157   80   81 1    
   158   80   82 1    
   159   80  201 1    
   160   81  202 1    
   161   81  203 1    
   162   81  204 1    
   163   82   83 2    
   164   82   84 am   BACKBONE|DICT|INTERRES
   165   84   85 1    
   166   84  205 1    
   167   85   86 1    
   168   85   87 1    
   169   85  206 1    
   170   86  207 1    
   171   86  208 1    
   172   86  209 1    
   173   87   88 2    
   174   87   89 am   BACKBONE|DICT|INTERRES
   175   89   90 1    
   176   89  210 1    
   177   90   91 1    
   178   90   92 1    
   179   90  211 1    
   180   91  212 1    
   181   91  213 1    
   182   91  214 1    
   183   92   93 2    
   184   92   94 am   BACKBONE|DICT|INTERRES
   185   94   95 1    
   186   94  215 1    
   187   95   96 1    
   188   95   97 1    
   189   95  216 1    
   190   96  217 1    
   191   96  218 1    
   192   96  219 1    
   193   97   98 2    
   194   97   99 am   BACKBONE|DICT|INTERRES
   195   99  100 1    
   196   99  220 1    
   197  100  101 1    
   198  100  102 1    
   199  100  221 1    
   200  101  222 1    
   201  101  223 1    
   202  101  224 1    
   203  102  103 2    
   204  102  104 am   BACKBONE|DICT|INTERRES
   205  104  105 1    
   206  104  225 1    
   207  105  106 1    
   208  105  107 1    
   209  105  226 1    
   210  106  227 1    
   211  106  228 1    
   212  106  229 1    
   213  107  108 2    
   214  107  109 am   BACKBONE|DICT|INTERRES
   215  109  110 1    
   216  109  230 1    
   217  110  111 1    
   218  110  112 1    
   219  110  231 1    
   220  111  232 1    
   221  111  233 1    
   222  111  234 1    
   223  112  113 2    
   224  112  114 am   BACKBONE|DICT|INTERRES
   225  114  115 1    
   226  114  235 1    
   227  115  116 1    
   228  115  117 1    
   229  115  236 1    
   230  116  237 1    
   231  116  238 1    
   232  116  239 1    
   233  117  118 2    
   234  117  119 am   BACKBONE|DICT|INTERRES
   235  119  120 1    
   236  119  240 1    
   237  120  121 1    
   238  120  124 1    
   239  120  241 1    
   240  121  122 am   BACKBONE|DICT|INTERRES
   241  121  123 2    
   242  122  242 1    
   243  122  243 1    
   244  124  125 1    
   245  124  244 1    
   246  124  245 1    
   247  125  126 1    
   248  126  246 1    
   249  126  247 1    
@<TRIPOS>SUBSTRUCTURE
     1 UNK         1 GROUP             0       ****    0 ROOT    
