@<TRIPOS>MOLECULE
3R540
247   249    1
SMALL
USER_CHARGES


@<TRIPOS>ATOM
      1 CA          6.0251  -13.5836  -45.6297 C.3       0 UNK        -0.1800 
      2 C           4.5124  -13.5778  -45.7859 C.2       0 UNK         0.5000 
      3 O           3.8186  -12.9062  -45.0238 O.2       0 UNK        -0.5000 
      4 N           3.9916  -14.2993  -46.7856 N.am      1 UNK        -0.5000 
      5 CA          2.5521  -14.4719  -47.0409 C.3       1 UNK         0.1400 
      6 C6          2.2589  -15.6963  -47.9431 C.3       23 UNK        -0.0398 
      7 S7          2.9992  -17.2262  -47.2708 S.3       23 UNK        -0.2404 
      8 C8          3.8347  -17.9337  -48.7231 C.3       23 UNK        -0.0205 
      9 C9          2.8629  -18.7331  -49.5748 C.ar      23 UNK        -0.0193 
     10 C10         2.2620  -18.1600  -50.6966 C.ar      23 UNK        -0.1150 
     11 C11         1.3611  -18.8933  -51.4741 C.ar      23 UNK        -0.0193 
     12 C12         1.0565  -20.2104  -51.1077 C.ar      23 UNK        -0.1150 
     13 C13         1.6356  -20.7947  -49.9759 C.ar      23 UNK        -0.0193 
     14 C14         2.5603  -20.0523  -49.2307 C.ar      23 UNK        -0.1150 
     15 C15         1.2396  -22.2199  -49.5885 C.3       23 UNK        -0.0205 
     16 S16         1.3402  -22.5711  -47.7968 S.3       23 UNK        -0.2404 
     17 C17         0.5643  -24.2183  -47.7109 C.3       23 UNK        -0.0398 
     18 CA         -0.6253  -24.2861  -46.7162 C.3       11 UNK         0.1400 
     19 N          -1.6172  -23.2257  -46.9451 N.am      11 UNK        -0.5000 
     20 C          -2.4768  -22.7433  -46.0372 C.2       10 UNK         0.5000 
     21 O          -2.5831  -23.2086  -44.9007 O.2       10 UNK        -0.5000 
     22 CA         -3.3387  -21.5356  -46.4640 C.3       10 UNK         0.1400 
     23 CB         -4.3774  -21.1450  -45.3979 C.3       10 UNK        -0.1800 
     24 N          -2.4917  -20.3775  -46.7345 N.am      10 UNK        -0.5000 
     25 C          -1.8141  -20.1673  -47.8702 C.2       9 UNK         0.5000 
     26 O          -1.9542  -20.8832  -48.8637 O.2       9 UNK        -0.5000 
     27 CA         -0.8479  -18.9644  -47.9214 C.3       9 UNK         0.1400 
     28 CB         -1.2862  -17.9517  -48.9909 C.3       9 UNK        -0.1800 
     29 N          -0.6919  -18.2710  -46.6403 N.am      9 UNK        -0.5000 
     30 C          -0.0070  -18.7340  -45.5832 C.2       8 UNK         0.5000 
     31 O           0.6088  -19.7983  -45.5809 O.2       8 UNK        -0.5000 
     32 CA         -0.0535  -17.8889  -44.2932 C.3       8 UNK         0.1400 
     33 CB          1.2780  -17.1684  -44.0464 C.3       8 UNK        -0.1800 
     34 N          -1.1401  -16.9063  -44.2874 N.am      8 UNK        -0.5000 
     35 C          -2.4337  -17.2206  -44.1274 C.2       7 UNK         0.5000 
     36 O          -2.8418  -18.3680  -43.9503 O.2       7 UNK        -0.5000 
     37 CA         -3.4325  -16.0627  -44.2460 C.3       7 UNK         0.1400 
     38 CB         -3.4377  -15.2083  -42.9687 C.3       7 UNK        -0.1800 
     39 N          -3.0997  -15.2206  -45.3912 N.am      7 UNK        -0.5000 
     40 C          -3.4702  -15.4598  -46.6548 C.2       6 UNK         0.5000 
     41 O          -4.1487  -16.4335  -46.9817 O.2       6 UNK        -0.5000 
     42 CA         -2.9793  -14.4808  -47.7458 C.3       6 UNK         0.1400 
     43 CB         -4.1208  -14.0569  -48.6904 C.3       6 UNK        -0.1800 
     44 N          -2.2609  -13.3035  -47.2442 N.am      6 UNK        -0.5000 
     45 C          -2.7382  -12.3072  -46.4853 C.2       5 UNK         0.5000 
     46 O          -3.8954  -12.2385  -46.0672 O.2       5 UNK        -0.5000 
     47 CA         -1.7197  -11.2162  -46.1152 C.3       5 UNK         0.1400 
     48 CB         -2.3816   -9.8305  -46.0247 C.3       5 UNK        -0.1800 
     49 N          -0.9672  -11.4476  -44.8791 N.am      5 UNK        -0.5000 
     50 C          -0.4616  -12.5779  -44.3599 C.2       4 UNK         0.5000 
     51 O          -0.7184  -13.7208  -44.7463 O.2       4 UNK        -0.5000 
     52 CA          0.5810  -12.3605  -43.2441 C.3       4 UNK         0.1400 
     53 CB          1.1694  -13.6791  -42.7133 C.3       4 UNK        -0.1800 
     54 N           1.6729  -11.5314  -43.7570 N.am      4 UNK        -0.5000 
     55 C           1.6691  -10.1934  -43.8251 C.2       3 UNK         0.5000 
     56 O           0.7939   -9.4881  -43.3222 O.2       3 UNK        -0.5000 
     57 CA          2.7637   -9.5537  -44.6924 C.3       3 UNK         0.1400 
     58 CB          4.1331   -9.6029  -43.9964 C.3       3 UNK        -0.1800 
     59 N           2.8382  -10.2243  -45.9924 N.am      3 UNK        -0.5000 
     60 C           2.0163   -9.9764  -47.0244 C.2       2 UNK         0.5000 
     61 O           1.1445   -9.1076  -47.0068 O.2       2 UNK        -0.5000 
     62 CA          2.1870  -10.8417  -48.2891 C.3       2 UNK         0.1400 
     63 CB          3.1800  -10.1834  -49.2589 C.3       2 UNK        -0.1800 
     64 N           2.6524  -12.1908  -47.9721 N.am      2 UNK        -0.5000 
     65 C           1.8610  -13.1971  -47.5757 C.2       1 UNK         0.5000 
     66 O           0.6306  -13.1436  -47.6001 O.2       1 UNK        -0.5000 
     67 C          -1.2717  -25.6914  -46.6873 C.2       11 UNK         0.5000 
     68 O          -0.8640  -26.5830  -47.4356 O.2       11 UNK        -0.5000 
     69 N          -2.2771  -25.8772  -45.8227 N.am      12 UNK        -0.5000 
     70 CA         -3.0417  -27.1157  -45.6524 C.3       12 UNK         0.1400 
     71 CB         -4.1817  -26.8706  -44.6536 C.3       12 UNK        -0.1800 
     72 C          -2.1843  -28.3187  -45.2182 C.2       12 UNK         0.5000 
     73 O          -2.4668  -29.4425  -45.6325 O.2       12 UNK        -0.5000 
     74 N          -1.1152  -28.0564  -44.4532 N.am      13 UNK        -0.5000 
     75 CA         -0.1144  -29.0442  -44.0379 C.3       13 UNK         0.1400 
     76 CB          0.8124  -28.4038  -42.9934 C.3       13 UNK        -0.1800 
     77 C           0.7103  -29.6193  -45.2093 C.2       13 UNK         0.5000 
     78 O           1.2099  -30.7396  -45.1030 O.2       13 UNK        -0.5000 
     79 N           0.8204  -28.8556  -46.3047 N.am      14 UNK        -0.5000 
     80 CA          1.4657  -29.2557  -47.5562 C.3       14 UNK         0.1400 
     81 CB          2.2776  -28.0604  -48.0847 C.3       14 UNK        -0.1800 
     82 C           0.4409  -29.7221  -48.6114 C.2       14 UNK         0.5000 
     83 O           0.8405  -30.0335  -49.7339 O.2       14 UNK        -0.5000 
     84 N          -0.8535  -29.7347  -48.2502 N.am      15 UNK        -0.5000 
     85 CA         -2.0192  -29.9852  -49.1053 C.3       15 UNK         0.1400 
     86 CB         -2.0343  -31.4440  -49.6074 C.3       15 UNK        -0.1800 
     87 C          -2.1622  -28.9479  -50.2416 C.2       15 UNK         0.5000 
     88 O          -2.6246  -29.2848  -51.3331 O.2       15 UNK        -0.5000 
     89 N          -1.7630  -27.7014  -49.9606 N.am      16 UNK        -0.5000 
     90 CA         -1.7463  -26.5792  -50.8931 C.3       16 UNK         0.1400 
     91 CB         -0.2931  -26.3071  -51.3236 C.3       16 UNK        -0.1800 
     92 C          -2.4191  -25.3665  -50.2328 C.2       16 UNK         0.5000 
     93 O          -1.8302  -24.2872  -50.1537 O.2       16 UNK        -0.5000 
     94 N          -3.6480  -25.5691  -49.7394 N.am      17 UNK        -0.5000 
     95 CA         -4.4781  -24.5621  -49.0743 C.3       17 UNK         0.1400 
     96 CB         -5.5691  -25.2751  -48.2565 C.3       17 UNK        -0.1800 
     97 C          -5.0558  -23.5255  -50.0629 C.2       17 UNK         0.5000 
     98 O          -6.2739  -23.4251  -50.2165 O.2       17 UNK        -0.5000 
     99 N          -4.1619  -22.7950  -50.7388 N.am      18 UNK        -0.5000 
    100 CA        -4.4759  -21.7706  -51.7311 C.3       18 UNK         0.1400 
    101 CB        -3.1877  -21.3781  -52.4680 C.3       18 UNK        -0.1800 
    102 C         -5.1516  -20.5417  -51.1035 C.2       18 UNK         0.5000 
    103 O         -6.1776  -20.0871  -51.6118 O.2       18 UNK        -0.5000 
    104 N         -4.5775  -20.0513  -49.9946 N.am      19 UNK        -0.5000 
    105 CA        -5.0567  -18.9254  -49.1889 C.3       19 UNK         0.1400 
    106 CB        -6.3022  -19.3561  -48.3823 C.3       19 UNK        -0.1800 
    107 C         -5.2647  -17.6598  -50.0488 C.2       19 UNK         0.5000 
    108 O         -4.3066  -17.1729  -50.6535 O.2       19 UNK        -0.5000 
    109 N         -6.5136  -17.1836  -50.1392 N.am      20 UNK        -0.5000 
    110 CA        -6.9527  -16.0313  -50.9303 C.3       20 UNK         0.1400 
    111 CB        -8.4466  -15.7947  -50.6601 C.3       20 UNK        -0.1800 
    112 C         -6.6890  -16.1366  -52.4475 C.2       20 UNK         0.5000 
    113 O         -6.7235  -15.1102  -53.1274 O.2       20 UNK        -0.5000 
    114 N         -6.4190  -17.3478  -52.9585 N.am      21 UNK        -0.5000 
    115 CA        -6.0410  -17.5848  -54.3526 C.3       21 UNK         0.1400 
    116 CB        -6.1642  -19.0821  -54.6735 C.3       21 UNK        -0.1800 
    117 C         -4.6300  -17.0723  -54.7087 C.2       21 UNK         0.5000 
    118 O         -4.3524  -16.9011  -55.8971 O.2       21 UNK        -0.5000 
    119 N         -3.7679  -16.8326  -53.7093 N.am      22 UNK        -0.5000 
    120 CA        -2.4092  -16.3050  -53.9176 C.3       22 UNK         0.1400 
    121 C         -1.8833  -15.3629  -52.7978 C.2       22 UNK         0.5000 
    122 N         -2.4732  -15.3177  -51.6103 N.am      22 UNK        -0.7600 
    123 O         -0.9249  -14.6290  -53.0231 O.2       22 UNK        -0.5000 
    124 C124       -1.3960  -17.4160  -54.2994 C.3       23 UNK        -0.0398 
    125 S125       -1.0191  -18.5687  -52.9329 S.3       23 UNK        -0.2404 
    126 C126        0.7631  -18.2538  -52.7227 C.3       23 UNK        -0.0205 
    127 H127        6.2971  -13.9723  -44.6485 H         1 UNK         0.0600 
    128 H128        6.4145  -12.5692  -45.7156 H         1 UNK         0.0600 
    129 H129        6.5086  -14.2009  -46.3872 H         1 UNK         0.0600 
    130 H130        4.6062  -14.8391  -47.3781 H         1 UNK         0.3000 
    131 H131        2.0808  -14.6606  -46.0755 H         1 UNK         0.0600 
    132 H132        1.1833  -15.8587  -48.0281 H         1 UNK         0.0800 
    133 H133        2.6236  -15.5193  -48.9559 H         1 UNK         0.0800 
    134 H134        4.6365  -18.5886  -48.3790 H         1 UNK         0.0800 
    135 H135        4.3166  -17.1488  -49.3077 H         1 UNK         0.0800 
    136 H136        2.5032  -17.1420  -50.9684 H         1 UNK         0.1150 
    137 H137        0.3567  -20.7814  -51.7017 H         1 UNK         0.1150 
    138 H138        3.0303  -20.4840  -48.3590 H         1 UNK         0.1150 
    139 H139        0.2151  -22.4079  -49.9153 H         1 UNK         0.0800 
    140 H140        1.8762  -22.9224  -50.1274 H         1 UNK         0.0800 
    141 H141        1.3387  -24.9284  -47.4168 H         1 UNK         0.0800 
    142 H142        0.2513  -24.5174  -48.7095 H         1 UNK         0.0800 
    143 H143       -0.2059  -24.1280  -45.7203 H         1 UNK         0.0600 
    144 H144       -1.5731  -22.7741  -47.8520 H         1 UNK         0.3000 
    145 H145       -3.8805  -21.8075  -47.3716 H         1 UNK         0.0600 
    146 H146       -4.9519  -20.2706  -45.7027 H         1 UNK         0.0600 
    147 H147       -5.0840  -21.9576  -45.2253 H         1 UNK         0.0600 
    148 H148       -3.9064  -20.9094  -44.4427 H         1 UNK         0.0600 
    149 H149       -2.3293  -19.7542  -45.9552 H         1 UNK         0.3000 
    150 H150        0.1261  -19.3571  -48.2067 H         1 UNK         0.0600 
    151 H151       -1.4317  -18.4386  -49.9556 H         1 UNK         0.0600 
    152 H152       -0.5334  -17.1778  -49.1369 H         1 UNK         0.0600 
    153 H153       -2.2250  -17.4665  -48.7296 H         1 UNK         0.0600 
    154 H154       -1.1839  -17.3975  -46.5351 H         1 UNK         0.3000 
    155 H155       -0.2131  -18.5830  -43.4652 H         1 UNK         0.0600 
    156 H156        1.4504  -16.3898  -44.7861 H         1 UNK         0.0600 
    157 H157        2.1183  -17.8622  -44.0960 H         1 UNK         0.0600 
    158 H158        1.2971  -16.7065  -43.0596 H         1 UNK         0.0600 
    159 H159       -0.8879  -15.9363  -44.4378 H         1 UNK         0.3000 
    160 H160       -4.4319  -16.4821  -44.3812 H         1 UNK         0.0600 
    161 H161       -2.4618  -14.7628  -42.7722 H         1 UNK         0.0600 
    162 H162       -3.7057  -15.8096  -42.0991 H         1 UNK         0.0600 
    163 H163       -4.1644  -14.3990  -43.0418 H         1 UNK         0.0600 
    164 H164       -2.4746  -14.4398  -45.2159 H         1 UNK         0.3000 
    165 H165       -2.2517  -15.0356  -48.3387 H         1 UNK         0.0600 
    166 H166       -4.9290  -13.5573  -48.1560 H         1 UNK         0.0600 
    167 H167       -3.7640  -13.3832  -49.4692 H         1 UNK         0.0600 
    168 H168       -4.5507  -14.9240  -49.1866 H         1 UNK         0.0600 
    169 H169       -1.2625  -13.2865  -47.4467 H         1 UNK         0.3000 
    170 H170       -0.9887  -11.1637  -46.9231 H         1 UNK         0.0600 
    171 H171       -3.0638   -9.7649  -45.1761 H         1 UNK         0.0600 
    172 H172       -1.6345   -9.0438  -45.9158 H         1 UNK         0.0600 
    173 H173       -2.9542   -9.6094  -46.9264 H         1 UNK         0.0600 
    174 H174       -0.6563  -10.5971  -44.4252 H         1 UNK         0.3000 
    175 H175        0.0843  -11.8523  -42.4151 H         1 UNK         0.0600 
    176 H176        1.7047  -14.2203  -43.4939 H         1 UNK         0.0600 
    177 H177        1.8686  -13.4962  -41.8974 H         1 UNK         0.0600 
    178 H178        0.3859  -14.3342  -42.3304 H         1 UNK         0.0600 
    179 H179        2.4291  -12.0325  -44.2201 H         1 UNK         0.3000 
    180 H180        2.5047   -8.5038  -44.8464 H         1 UNK         0.0600 
    181 H181        4.8992   -9.1199  -44.6030 H         1 UNK         0.0600 
    182 H182        4.4582  -10.6247  -43.7998 H         1 UNK         0.0600 
    183 H183        4.1001   -9.0813  -43.0392 H         1 UNK         0.0600 
    184 H184        3.4769  -11.0051  -46.0519 H         1 UNK         0.3000 
    185 H185        1.2167  -10.9030  -48.7870 H         1 UNK         0.0600 
    186 H186        3.2692  -10.7581  -50.1810 H         1 UNK         0.0600 
    187 H187        2.8507   -9.1802  -49.5326 H         1 UNK         0.0600 
    188 H188        4.1748  -10.0944  -48.8206 H         1 UNK         0.0600 
    189 H189        3.6509  -12.3369  -47.9502 H         1 UNK         0.3000 
    190 H190       -2.5519  -25.0816  -45.2524 H         1 UNK         0.3000 
    191 H191       -3.4787  -27.3681  -46.6202 H         1 UNK         0.0600 
    192 H192       -4.7936  -27.7653  -44.5308 H         1 UNK         0.0600 
    193 H193       -4.8404  -26.0712  -44.9935 H         1 UNK         0.0600 
    194 H194       -3.8009  -26.5941  -43.6697 H         1 UNK         0.0600 
    195 H195       -0.9611  -27.1030  -44.1590 H         1 UNK         0.3000 
    196 H196       -0.6392  -29.8777  -43.5663 H         1 UNK         0.0600 
    197 H197        1.3510  -27.5486  -43.4037 H         1 UNK         0.0600 
    198 H198        0.2510  -28.0627  -42.1234 H         1 UNK         0.0600 
    199 H199        1.5550  -29.1198  -42.6385 H         1 UNK         0.0600 
    200 H200        0.3460  -27.9614  -46.3267 H         1 UNK         0.3000 
    201 H201        2.1542  -30.0842  -47.3789 H         1 UNK         0.0600 
    202 H202        2.8496  -28.3364  -48.9713 H         1 UNK         0.0600 
    203 H203        1.6324  -27.2259  -48.3604 H         1 UNK         0.0600 
    204 H204        2.9889  -27.7043  -47.3393 H         1 UNK         0.0600 
    205 H205       -1.0749  -29.4926  -47.2928 H         1 UNK         0.3000 
    206 H206       -2.8939  -29.8512  -48.4675 H         1 UNK         0.0600 
    207 H207       -1.9345  -32.1461  -48.7796 H         1 UNK         0.0600 
    208 H208       -2.9726  -31.6732  -50.1138 H         1 UNK         0.0600 
    209 H209       -1.2270  -31.6399  -50.3135 H         1 UNK         0.0600 
    210 H210       -1.4190  -27.4907  -49.0266 H         1 UNK         0.3000 
    211 H211       -2.3298  -26.8086  -51.7868 H         1 UNK         0.0600 
    212 H212       -0.2351  -25.4563  -52.0037 H         1 UNK         0.0600 
    213 H213        0.1274  -27.1682  -51.8431 H         1 UNK         0.0600 
    214 H214        0.3470  -26.0933  -50.4677 H         1 UNK         0.0600 
    215 H215       -4.0644  -26.4806  -49.8623 H         1 UNK         0.3000 
    216 H216       -3.8506  -24.0164  -48.3712 H         1 UNK         0.0600 
    217 H217       -6.2324  -25.8614  -48.8935 H         1 UNK         0.0600 
    218 H218       -6.1837  -24.5562  -47.7131 H         1 UNK         0.0600 
    219 H219       -5.1347  -25.9473  -47.5187 H         1 UNK         0.0600 
    220 H220       -3.1773  -22.9821  -50.5680 H         1 UNK         0.3000 
    221 H221       -5.1690  -22.1991  -52.4581 H         1 UNK         0.0600 
    222 H222       -2.7637  -22.2289  -53.0013 H         1 UNK         0.0600 
    223 H223       -2.4288  -21.0073  -51.7776 H         1 UNK         0.0600 
    224 H224       -3.3761  -20.5943  -53.2023 H         1 UNK         0.0600 
    225 H225       -3.7007  -20.4668  -49.6942 H         1 UNK         0.3000 
    226 H226       -4.2699  -18.6869  -48.4752 H         1 UNK         0.0600 
    227 H227       -7.1500  -19.5969  -49.0247 H         1 UNK         0.0600 
    228 H228       -6.0903  -20.2438  -47.7876 H         1 UNK         0.0600 
    229 H229       -6.6122  -18.5722  -47.6899 H         1 UNK         0.0600 
    230 H230       -7.2385  -17.6757  -49.6381 H         1 UNK         0.3000 
    231 H231       -6.4031  -15.1584  -50.5756 H         1 UNK         0.0600 
    232 H232       -9.0503  -16.6485  -50.9704 H         1 UNK         0.0600 
    233 H233       -8.8104  -14.9209  -51.2024 H         1 UNK         0.0600 
    234 H234       -8.6334  -15.6167  -49.6008 H         1 UNK         0.0600 
    235 H235       -6.4091  -18.1548  -52.3430 H         1 UNK         0.3000 
    236 H236       -6.7507  -17.0495  -54.9868 H         1 UNK         0.0600 
    237 H237       -7.1506  -19.4657  -54.4123 H         1 UNK         0.0600 
    238 H238       -6.0156  -19.2646  -55.7385 H         1 UNK         0.0600 
    239 H239       -5.4202  -19.6704  -54.1379 H         1 UNK         0.0600 
    240 H240       -4.0486  -16.9997  -52.7510 H         1 UNK         0.3000 
    241 H241       -2.4668  -15.6384  -54.7806 H         1 UNK         0.0600 
    242 H242       -2.1076  -14.6758  -50.9287 H         1 UNK         0.3800 
    243 H243       -3.1988  -15.9767  -51.3360 H         1 UNK         0.3800 
    244 H244       -0.4743  -16.9641  -54.6690 H         1 UNK         0.0800 
    245 H245       -1.7823  -18.0004  -55.1352 H         1 UNK         0.0800 
    246 H246        0.9187  -17.1738  -52.6958 H         1 UNK         0.0800 
    247 H247        1.2970  -18.6260  -53.5978 H         1 UNK         0.0800 
@<TRIPOS>BOND
     1    1    2 1    
     2    1  127 1    
     3    1  128 1    
     4    1  129 1    
     5    2    3 2    
     6    2    4 am   BACKBONE|DICT|INTERRES
     7    4    5 1    
     8    4  130 1    
     9    5    6 1    
    10    5   65 1    
    11    5  131 1    
    12    6    7 1    
    13    6  132 1    
    14    6  133 1    
    15    7    8 1    
    16    8    9 1    
    17    8  134 1    
    18    8  135 1    
    19    9   10 ar   
    20    9   14 ar   
    21   10   11 ar   
    22   10  136 1    
    23   11   12 ar   
    24   11  126 1    
    25   12   13 ar   
    26   12  137 1    
    27   13   14 ar   
    28   13   15 1    
    29   14  138 1    
    30   15   16 1    
    31   15  139 1    
    32   15  140 1    
    33   16   17 1    
    34   17   18 1    
    35   17  141 1    
    36   17  142 1    
    37   18   19 1    
    38   18   67 1    
    39   18  143 1    
    40   19   20 am   BACKBONE|DICT|INTERRES
    41   19  144 1    
    42   20   21 2    
    43   20   22 1    
    44   22   23 1    
    45   22   24 1    
    46   22  145 1    
    47   23  146 1    
    48   23  147 1    
    49   23  148 1    
    50   24   25 am   BACKBONE|DICT|INTERRES
    51   24  149 1    
    52   25   26 2    
    53   25   27 1    
    54   27   28 1    
    55   27   29 1    
    56   27  150 1    
    57   28  151 1    
    58   28  152 1    
    59   28  153 1    
    60   29   30 am   BACKBONE|DICT|INTERRES
    61   29  154 1    
    62   30   31 2    
    63   30   32 1    
    64   32   33 1    
    65   32   34 1    
    66   32  155 1    
    67   33  156 1    
    68   33  157 1    
    69   33  158 1    
    70   34   35 am   BACKBONE|DICT|INTERRES
    71   34  159 1    
    72   35   36 2    
    73   35   37 1    
    74   37   38 1    
    75   37   39 1    
    76   37  160 1    
    77   38  161 1    
    78   38  162 1    
    79   38  163 1    
    80   39   40 am   BACKBONE|DICT|INTERRES
    81   39  164 1    
    82   40   41 2    
    83   40   42 1    
    84   42   43 1    
    85   42   44 1    
    86   42  165 1    
    87   43  166 1    
    88   43  167 1    
    89   43  168 1    
    90   44   45 am   BACKBONE|DICT|INTERRES
    91   44  169 1    
    92   45   46 2    
    93   45   47 1    
    94   47   48 1    
    95   47   49 1    
    96   47  170 1    
    97   48  171 1    
    98   48  172 1    
    99   48  173 1    
   100   49   50 am   BACKBONE|DICT|INTERRES
   101   49  174 1    
   102   50   51 2    
   103   50   52 1    
   104   52   53 1    
   105   52   54 1    
   106   52  175 1    
   107   53  176 1    
   108   53  177 1    
   109   53  178 1    
   110   54   55 am   BACKBONE|DICT|INTERRES
   111   54  179 1    
   112   55   56 2    
   113   55   57 1    
   114   57   58 1    
   115   57   59 1    
   116   57  180 1    
   117   58  181 1    
   118   58  182 1    
   119   58  183 1    
   120   59   60 am   BACKBONE|DICT|INTERRES
   121   59  184 1    
   122   60   61 2    
   123   60   62 1    
   124   62   63 1    
   125   62   64 1    
   126   62  185 1    
   127   63  186 1    
   128   63  187 1    
   129   63  188 1    
   130   64   65 am   BACKBONE|DICT|INTERRES
   131   64  189 1    
   132   65   66 2    
   133   67   68 2    
   134   67   69 am   BACKBONE|DICT|INTERRES
   135   69   70 1    
   136   69  190 1    
   137   70   71 1    
   138   70   72 1    
   139   70  191 1    
   140   71  192 1    
   141   71  193 1    
   142   71  194 1    
   143   72   73 2    
   144   72   74 am   BACKBONE|DICT|INTERRES
   145   74   75 1    
   146   74  195 1    
   147   75   76 1    
   148   75   77 1    
   149   75  196 1    
   150   76  197 1    
   151   76  198 1    
   152   76  199 1    
   153   77   78 2    
   154   77   79 am   BACKBONE|DICT|INTERRES
   155   79   80 1    
   156   79  200 1    
   157   80   81 1    
   158   80   82 1    
   159   80  201 1    
   160   81  202 1    
   161   81  203 1    
   162   81  204 1    
   163   82   83 2    
   164   82   84 am   BACKBONE|DICT|INTERRES
   165   84   85 1    
   166   84  205 1    
   167   85   86 1    
   168   85   87 1    
   169   85  206 1    
   170   86  207 1    
   171   86  208 1    
   172   86  209 1    
   173   87   88 2    
   174   87   89 am   BACKBONE|DICT|INTERRES
   175   89   90 1    
   176   89  210 1    
   177   90   91 1    
   178   90   92 1    
   179   90  211 1    
   180   91  212 1    
   181   91  213 1    
   182   91  214 1    
   183   92   93 2    
   184   92   94 am   BACKBONE|DICT|INTERRES
   185   94   95 1    
   186   94  215 1    
   187   95   96 1    
   188   95   97 1    
   189   95  216 1    
   190   96  217 1    
   191   96  218 1    
   192   96  219 1    
   193   97   98 2    
   194   97   99 am   BACKBONE|DICT|INTERRES
   195   99  100 1    
   196   99  220 1    
   197  100  101 1    
   198  100  102 1    
   199  100  221 1    
   200  101  222 1    
   201  101  223 1    
   202  101  224 1    
   203  102  103 2    
   204  102  104 am   BACKBONE|DICT|INTERRES
   205  104  105 1    
   206  104  225 1    
   207  105  106 1    
   208  105  107 1    
   209  105  226 1    
   210  106  227 1    
   211  106  228 1    
   212  106  229 1    
   213  107  108 2    
   214  107  109 am   BACKBONE|DICT|INTERRES
   215  109  110 1    
   216  109  230 1    
   217  110  111 1    
   218  110  112 1    
   219  110  231 1    
   220  111  232 1    
   221  111  233 1    
   222  111  234 1    
   223  112  113 2    
   224  112  114 am   BACKBONE|DICT|INTERRES
   225  114  115 1    
   226  114  235 1    
   227  115  116 1    
   228  115  117 1    
   229  115  236 1    
   230  116  237 1    
   231  116  238 1    
   232  116  239 1    
   233  117  118 2    
   234  117  119 am   BACKBONE|DICT|INTERRES
   235  119  120 1    
   236  119  240 1    
   237  120  121 1    
   238  120  124 1    
   239  120  241 1    
   240  121  122 am   BACKBONE|DICT|INTERRES
   241  121  123 2    
   242  122  242 1    
   243  122  243 1    
   244  124  125 1    
   245  124  244 1    
   246  124  245 1    
   247  125  126 1    
   248  126  246 1    
   249  126  247 1    
@<TRIPOS>SUBSTRUCTURE
     1 UNK         1 GROUP             0       ****    0 ROOT    
