@<TRIPOS>MOLECULE
3R540
247   249    1
SMALL
USER_CHARGES


@<TRIPOS>ATOM
      1 CA         -1.3376  -12.4491  -44.8026 C.3       0 UNK        -0.1800 
      2 C          -0.8945  -11.4763  -45.8847 C.2       0 UNK         0.5000 
      3 O          -0.4519  -10.3726  -45.5681 O.2       0 UNK        -0.5000 
      4 N          -0.9878  -11.8974  -47.1532 N.am      1 UNK        -0.5000 
      5 CA         -0.6923  -11.1111  -48.3620 C.3       1 UNK         0.1400 
      6 C6         -1.0395  -11.8942  -49.6538 C.3       23 UNK        -0.0398 
      7 S7         -0.2146  -13.5234  -49.8108 S.3       23 UNK        -0.2404 
      8 C8         -1.5769  -14.6727  -49.4331 C.3       23 UNK        -0.0205 
      9 C9         -1.2665  -16.0780  -49.9248 C.ar      23 UNK        -0.0193 
     10 C10        -1.6365  -16.4582  -51.2163 C.ar      23 UNK        -0.1150 
     11 C11        -1.3644  -17.7456  -51.6840 C.ar      23 UNK        -0.0193 
     12 C12        -0.7098  -18.6563  -50.8499 C.ar      23 UNK        -0.1150 
     13 C13        -0.3394  -18.2962  -49.5494 C.ar      23 UNK        -0.0193 
     14 C14        -0.6228  -17.0019  -49.0964 C.ar      23 UNK        -0.1150 
     15 C15         0.4030  -19.3013  -48.6688 C.3       23 UNK        -0.0205 
     16 S16        -0.1625  -19.3558  -46.9325 S.3       23 UNK        -0.2404 
     17 C17        -1.8476  -20.0378  -47.0971 C.3       23 UNK        -0.0398 
     18 CA         -1.9272  -21.5607  -46.8236 C.3       11 UNK         0.1400 
     19 N          -1.3240  -21.9354  -45.5316 N.am      11 UNK        -0.5000 
     20 C          -1.2865  -23.1568  -44.9749 C.2       10 UNK         0.5000 
     21 O          -1.8617  -24.1354  -45.4509 O.2       10 UNK        -0.5000 
     22 CA         -0.4711  -23.3505  -43.6825 C.3       10 UNK         0.1400 
     23 CB          0.6771  -24.3433  -43.9248 C.3       10 UNK        -0.1800 
     24 N           0.0924  -22.1255  -43.1174 N.am      10 UNK        -0.5000 
     25 C          -0.5790  -21.1620  -42.4794 C.2       9 UNK         0.5000 
     26 O          -1.8052  -21.1542  -42.3694 O.2       9 UNK        -0.5000 
     27 CA          0.2436  -20.0054  -41.8726 C.3       9 UNK         0.1400 
     28 CB          0.5477  -20.2674  -40.3861 C.3       9 UNK        -0.1800 
     29 N           1.4695  -19.6435  -42.5999 N.am      9 UNK        -0.5000 
     30 C           2.5936  -20.3480  -42.7988 C.2       8 UNK         0.5000 
     31 O           2.7585  -21.5057  -42.4145 O.2       8 UNK        -0.5000 
     32 CA          3.7221  -19.6407  -43.5611 C.3       8 UNK         0.1400 
     33 CB          3.3925  -19.5322  -45.0600 C.3       8 UNK        -0.1800 
     34 N           3.9592  -18.3067  -43.0073 N.am      8 UNK        -0.5000 
     35 C           5.1231  -17.8929  -42.4904 C.2       7 UNK         0.5000 
     36 O           6.1407  -18.5863  -42.4531 O.2       7 UNK        -0.5000 
     37 CA          5.1795  -16.4638  -41.9181 C.3       7 UNK         0.1400 
     38 CB          5.6757  -15.4718  -42.9815 C.3       7 UNK        -0.1800 
     39 N           3.9118  -15.9827  -41.3658 N.am      7 UNK        -0.5000 
     40 C           3.3774  -16.4110  -40.2125 C.2       6 UNK         0.5000 
     41 O           3.8419  -17.3362  -39.5459 O.2       6 UNK        -0.5000 
     42 CA          2.1271  -15.6722  -39.7076 C.3       6 UNK         0.1400 
     43 CB          2.5196  -14.3369  -39.0552 C.3       6 UNK        -0.1800 
     44 N           1.1965  -15.4125  -40.8026 N.am      6 UNK        -0.5000 
     45 C           0.0442  -16.0677  -40.9973 C.2       5 UNK         0.5000 
     46 O          -0.4105  -16.9047  -40.2180 O.2       5 UNK        -0.5000 
     47 CA         -0.7320  -15.7522  -42.2931 C.3       5 UNK         0.1400 
     48 CB         -1.8438  -14.7284  -42.0187 C.3       5 UNK        -0.1800 
     49 N           0.1152  -15.2571  -43.3808 N.am      5 UNK        -0.5000 
     50 C           1.1001  -15.9543  -43.9617 C.2       4 UNK         0.5000 
     51 O           1.3754  -17.1144  -43.6667 O.2       4 UNK        -0.5000 
     52 CA          1.9685  -15.2242  -44.9982 C.3       4 UNK         0.1400 
     53 CB          1.4618  -15.5063  -46.4170 C.3       4 UNK        -0.1800 
     54 N           2.0597  -13.7763  -44.8083 N.am      4 UNK        -0.5000 
     55 C           2.5174  -13.1308  -43.7262 C.2       3 UNK         0.5000 
     56 O           2.8053  -13.6988  -42.6708 O.2       3 UNK        -0.5000 
     57 CA          2.6369  -11.5942  -43.8421 C.3       3 UNK         0.1400 
     58 CB          3.8633  -11.0458  -43.0848 C.3       3 UNK        -0.1800 
     59 N           2.5919  -11.1050  -45.2314 N.am      3 UNK        -0.5000 
     60 C           3.4927  -11.3179  -46.2070 C.2       2 UNK         0.5000 
     61 O           4.5569  -11.9144  -46.0409 O.2       2 UNK        -0.5000 
     62 CA          3.0792  -10.8520  -47.6153 C.3       2 UNK         0.1400 
     63 CB          3.9904  -11.3951  -48.7318 C.3       2 UNK        -0.1800 
     64 N           1.7019  -11.2739  -47.8641 N.am      2 UNK        -0.5000 
     65 C           0.7379  -10.5239  -48.4064 C.2       1 UNK         0.5000 
     66 O           0.9243   -9.4033  -48.8830 O.2       1 UNK        -0.5000 
     67 C          -3.3823  -22.0441  -47.0179 C.2       11 UNK         0.5000 
     68 O          -3.7699  -22.3589  -48.1444 O.2       11 UNK        -0.5000 
     69 N          -4.1458  -22.1469  -45.9211 N.am      12 UNK        -0.5000 
     70 CA         -5.5054  -22.6915  -45.8829 C.3       12 UNK         0.1400 
     71 CB         -6.0571  -22.5531  -44.4567 C.3       12 UNK        -0.1800 
     72 C          -5.6137  -24.1552  -46.3617 C.2       12 UNK         0.5000 
     73 O          -6.6608  -24.5381  -46.8832 O.2       12 UNK        -0.5000 
     74 N          -4.5345  -24.9308  -46.1979 N.am      13 UNK        -0.5000 
     75 CA         -4.4191  -26.3151  -46.6494 C.3       13 UNK         0.1400 
     76 CB         -4.0048  -27.1988  -45.4620 C.3       13 UNK        -0.1800 
     77 C          -3.3987  -26.4353  -47.7919 C.2       13 UNK         0.5000 
     78 O          -3.6929  -27.0778  -48.7991 O.2       13 UNK        -0.5000 
     79 N          -2.2262  -25.8060  -47.6279 N.am      14 UNK        -0.5000 
     80 CA         -1.0773  -25.9077  -48.5316 C.3       14 UNK         0.1400 
     81 CB          0.1537  -25.2844  -47.8550 C.3       14 UNK        -0.1800 
     82 C          -1.3124  -25.2673  -49.9101 C.2       14 UNK         0.5000 
     83 O          -0.8152  -25.7867  -50.9094 O.2       14 UNK        -0.5000 
     84 N          -2.0749  -24.1677  -49.9364 N.am      15 UNK        -0.5000 
     85 CA         -2.4932  -23.4675  -51.1513 C.3       15 UNK         0.1400 
     86 CB         -2.0431  -22.0008  -51.0594 C.3       15 UNK        -0.1800 
     87 C          -4.0141  -23.5669  -51.3633 C.2       15 UNK         0.5000 
     88 O          -4.5373  -22.9052  -52.2615 O.2       15 UNK        -0.5000 
     89 N          -4.6988  -24.3593  -50.5234 N.am      16 UNK        -0.5000 
     90 CA         -6.1498  -24.5614  -50.4721 C.3       16 UNK         0.1400 
     91 CB         -6.6150  -25.3697  -51.7008 C.3       16 UNK        -0.1800 
     92 C          -6.9334  -23.2437  -50.2828 C.2       16 UNK         0.5000 
     93 O          -7.9802  -23.0568  -50.9024 O.2       16 UNK        -0.5000 
     94 N          -6.3819  -22.3304  -49.4672 N.am      17 UNK        -0.5000 
     95 CA         -6.8599  -20.9610  -49.2374 C.3       17 UNK         0.1400 
     96 CB         -8.2384  -20.9559  -48.5429 C.3       17 UNK        -0.1800 
     97 C          -6.8186  -20.1162  -50.5290 C.2       17 UNK         0.5000 
     98 O          -7.7598  -19.3812  -50.8292 O.2       17 UNK        -0.5000 
     99 N          -5.7143  -20.2772  -51.2715 N.am      18 UNK        -0.5000 
    100 CA        -5.3686  -19.6765  -52.5633 C.3       18 UNK         0.1400 
    101 CB        -5.4696  -18.1374  -52.5364 C.3       18 UNK        -0.1800 
    102 C         -6.0894  -20.2919  -53.7791 C.2       18 UNK         0.5000 
    103 O         -5.7989  -19.8855  -54.9056 O.2       18 UNK        -0.5000 
    104 N         -6.9605  -21.2906  -53.5703 N.am      19 UNK        -0.5000 
    105 CA        -7.6700  -22.0002  -54.6399 C.3       19 UNK         0.1400 
    106 CB        -8.7986  -22.8514  -54.0414 C.3       19 UNK        -0.1800 
    107 C         -6.7490  -22.8636  -55.5260 C.2       19 UNK         0.5000 
    108 O         -7.0972  -23.1189  -56.6791 O.2       19 UNK        -0.5000 
    109 N         -5.5829  -23.2667  -54.9993 N.am      20 UNK        -0.5000 
    110 CA        -4.5428  -23.9931  -55.7337 C.3       20 UNK         0.1400 
    111 CB        -3.8259  -24.9572  -54.7734 C.3       20 UNK        -0.1800 
    112 C         -3.5368  -23.0504  -56.4307 C.2       20 UNK         0.5000 
    113 O         -2.4783  -23.5152  -56.8577 O.2       20 UNK        -0.5000 
    114 N         -3.8505  -21.7456  -56.5076 N.am      21 UNK        -0.5000 
    115 CA        -3.0648  -20.6790  -57.1457 C.3       21 UNK         0.1400 
    116 CB        -3.0470  -20.8635  -58.6773 C.3       21 UNK        -0.1800 
    117 C         -1.6524  -20.5193  -56.5420 C.2       21 UNK         0.5000 
    118 O         -0.6954  -20.2226  -57.2592 O.2       21 UNK        -0.5000 
    119 N         -1.5631  -20.7424  -55.2248 N.am      22 UNK        -0.5000 
    120 CA        -0.3362  -20.7379  -54.4085 C.3       22 UNK         0.1400 
    121 C          0.5958  -21.9670  -54.6410 C.2       22 UNK         0.5000 
    122 N          0.1803  -22.9973  -55.3704 N.am      22 UNK        -0.7600 
    123 O          1.7077  -22.0053  -54.1219 O.2       22 UNK        -0.5000 
    124 C124        0.4477  -19.3887  -54.4277 C.3       23 UNK        -0.0398 
    125 S125       -0.5307  -17.8399  -54.3377 S.3       23 UNK        -0.2404 
    126 C126       -1.8103  -18.1484  -53.0796 C.3       23 UNK        -0.0205 
    127 H127       -0.6156  -12.4586  -43.9871 H         1 UNK         0.0600 
    128 H128       -2.3006  -12.1395  -44.3966 H         1 UNK         0.0600 
    129 H129       -1.4401  -13.4634  -45.1889 H         1 UNK         0.0600 
    130 H130       -1.3512  -12.8214  -47.3309 H         1 UNK         0.3000 
    131 H131       -1.3614  -10.2487  -48.3262 H         1 UNK         0.0600 
    132 H132       -2.1199  -12.0324  -49.7073 H         1 UNK         0.0800 
    133 H133       -0.7890  -11.3010  -50.5352 H         1 UNK         0.0800 
    134 H134       -2.4984  -14.3239  -49.9017 H         1 UNK         0.0800 
    135 H135       -1.7621  -14.6840  -48.3584 H         1 UNK         0.0800 
    136 H136       -2.1385  -15.7489  -51.8596 H         1 UNK         0.1150 
    137 H137       -0.4826  -19.6447  -51.2185 H         1 UNK         0.1150 
    138 H138       -0.3420  -16.7119  -48.0970 H         1 UNK         0.1150 
    139 H139        0.3305  -20.3066  -49.0867 H         1 UNK         0.0800 
    140 H140        1.4623  -19.0420  -48.6764 H         1 UNK         0.0800 
    141 H141       -2.4860  -19.4948  -46.3978 H         1 UNK         0.0800 
    142 H142       -2.2293  -19.8053  -48.0932 H         1 UNK         0.0800 
    143 H143       -1.3341  -22.0629  -47.5901 H         1 UNK         0.0600 
    144 H144       -0.8126  -21.2001  -45.0656 H         1 UNK         0.3000 
    145 H145       -1.1466  -23.7848  -42.9429 H         1 UNK         0.0600 
    146 H146        1.2284  -24.5410  -43.0053 H         1 UNK         0.0600 
    147 H147        0.3017  -25.3014  -44.2871 H         1 UNK         0.0600 
    148 H148        1.3840  -23.9658  -44.6649 H         1 UNK         0.0600 
    149 H149        1.1061  -22.0586  -43.0997 H         1 UNK         0.3000 
    150 H150       -0.3939  -19.1221  -41.9256 H         1 UNK         0.0600 
    151 H151       -0.3733  -20.4179  -39.8217 H         1 UNK         0.0600 
    152 H152        1.0681  -19.4209  -39.9372 H         1 UNK         0.0600 
    153 H153        1.1655  -21.1548  -40.2462 H         1 UNK         0.0600 
    154 H154        1.4313  -18.7168  -43.0243 H         1 UNK         0.3000 
    155 H155        4.6130  -20.2642  -43.4618 H         1 UNK         0.0600 
    156 H156        3.2020  -20.5162  -45.4903 H         1 UNK         0.0600 
    157 H157        4.2226  -19.0911  -45.6118 H         1 UNK         0.0600 
    158 H158        2.5098  -18.9199  -45.2442 H         1 UNK         0.0600 
    159 H159        3.1598  -17.6843  -42.9834 H         1 UNK         0.3000 
    160 H160        5.9116  -16.4709  -41.1076 H         1 UNK         0.0600 
    161 H161        4.9934  -15.4098  -43.8281 H         1 UNK         0.0600 
    162 H162        5.7837  -14.4693  -42.5667 H         1 UNK         0.0600 
    163 H163        6.6508  -15.7698  -43.3687 H         1 UNK         0.0600 
    164 H164        3.4923  -15.1848  -41.8362 H         1 UNK         0.3000 
    165 H165        1.6591  -16.2952  -38.9425 H         1 UNK         0.0600 
    166 H166        1.6466  -13.8309  -38.6429 H         1 UNK         0.0600 
    167 H167        3.2220  -14.4939  -38.2356 H         1 UNK         0.0600 
    168 H168        2.9917  -13.6599  -39.7687 H         1 UNK         0.0600 
    169 H169        1.5066  -14.7508  -41.5049 H         1 UNK         0.3000 
    170 H170       -1.1970  -16.6815  -42.6288 H         1 UNK         0.0600 
    171 H171       -2.5028  -15.0719  -41.2201 H         1 UNK         0.0600 
    172 H172       -1.4367  -13.7631  -41.7154 H         1 UNK         0.0600 
    173 H173       -2.4633  -14.5719  -42.9017 H         1 UNK         0.0600 
    174 H174       -0.0270  -14.3018  -43.6671 H         1 UNK         0.3000 
    175 H175        2.9768  -15.6314  -44.9158 H         1 UNK         0.0600 
    176 H176        0.4603  -15.1039  -46.5727 H         1 UNK         0.0600 
    177 H177        2.1203  -15.0718  -47.1695 H         1 UNK         0.0600 
    178 H178        1.4253  -16.5803  -46.6048 H         1 UNK         0.0600 
    179 H179        1.8646  -13.2133  -45.6182 H         1 UNK         0.3000 
    180 H180        1.7476  -11.1908  -43.3561 H         1 UNK         0.0600 
    181 H181        3.7948  -11.2688  -42.0193 H         1 UNK         0.0600 
    182 H182        4.7949  -11.4821  -43.4458 H         1 UNK         0.0600 
    183 H183        3.9372   -9.9630  -43.1842 H         1 UNK         0.0600 
    184 H184        1.7433  -10.6067  -45.4784 H         1 UNK         0.3000 
    185 H185        3.1457   -9.7621  -47.6133 H         1 UNK         0.0600 
    186 H186        5.0232  -11.0764  -48.5860 H         1 UNK         0.0600 
    187 H187        3.9807  -12.4853  -48.7630 H         1 UNK         0.0600 
    188 H188        3.6737  -11.0303  -49.7090 H         1 UNK         0.0600 
    189 H189        1.4491  -12.1967  -47.5465 H         1 UNK         0.3000 
    190 H190       -3.7404  -21.8856  -45.0336 H         1 UNK         0.3000 
    191 H191       -6.1226  -22.0838  -46.5450 H         1 UNK         0.0600 
    192 H192       -7.0808  -22.9251  -44.3954 H         1 UNK         0.0600 
    193 H193       -6.0724  -21.5105  -44.1385 H         1 UNK         0.0600 
    194 H194       -5.4591  -23.1156  -43.7384 H         1 UNK         0.0600 
    195 H195       -3.6994  -24.5226  -45.7885 H         1 UNK         0.3000 
    196 H196       -5.3774  -26.6819  -47.0230 H         1 UNK         0.0600 
    197 H197       -3.8933  -28.2396  -45.7686 H         1 UNK         0.0600 
    198 H198       -4.7565  -27.1709  -44.6730 H         1 UNK         0.0600 
    199 H199       -3.0559  -26.8785  -45.0294 H         1 UNK         0.0600 
    200 H200       -2.0717  -25.2747  -46.7728 H         1 UNK         0.3000 
    201 H201       -0.8751  -26.9687  -48.6921 H         1 UNK         0.0600 
    202 H202        0.3692  -25.7702  -46.9032 H         1 UNK         0.0600 
    203 H203        0.0142  -24.2202  -47.6637 H         1 UNK         0.0600 
    204 H204        1.0400  -25.3911  -48.4818 H         1 UNK         0.0600 
    205 H205       -2.4572  -23.8105  -49.0698 H         1 UNK         0.3000 
    206 H206       -2.0256  -23.9073  -52.0336 H         1 UNK         0.0600 
    207 H207       -0.9571  -21.9364  -50.9956 H         1 UNK         0.0600 
    208 H208       -2.3563  -21.4384  -51.9381 H         1 UNK         0.0600 
    209 H209       -2.4592  -21.4941  -50.1899 H         1 UNK         0.0600 
    210 H210       -4.1645  -24.8871  -49.8487 H         1 UNK         0.3000 
    211 H211       -6.3484  -25.1641  -49.5850 H         1 UNK         0.0600 
    212 H212       -6.4603  -24.8199  -52.6288 H         1 UNK         0.0600 
    213 H213       -7.6761  -25.6121  -51.6345 H         1 UNK         0.0600 
    214 H214       -6.0725  -26.3119  -51.7782 H         1 UNK         0.0600 
    215 H215       -5.4910  -22.5558  -49.0334 H         1 UNK         0.3000 
    216 H216       -6.1465  -20.5010  -48.5520 H         1 UNK         0.0600 
    217 H217       -8.2363  -21.5813  -47.6504 H         1 UNK         0.0600 
    218 H218       -9.0283  -21.3181  -49.2012 H         1 UNK         0.0600 
    219 H219       -8.5124  -19.9471  -48.2325 H         1 UNK         0.0600 
    220 H220       -5.0563  -20.9752  -50.9540 H         1 UNK         0.3000 
    221 H221       -4.3182  -19.9248  -52.7095 H         1 UNK         0.0600 
    222 H222       -6.4995  -17.7955  -52.4380 H         1 UNK         0.0600 
    223 H223       -4.8929  -17.7181  -51.7117 H         1 UNK         0.0600 
    224 H224       -5.0802  -17.7041  -53.4581 H         1 UNK         0.0600 
    225 H225       -7.1304  -21.6036  -52.6236 H         1 UNK         0.3000 
    226 H226       -8.1282  -21.2478  -55.2853 H         1 UNK         0.0600 
    227 H227       -9.4528  -22.2543  -53.4058 H         1 UNK         0.0600 
    228 H228       -9.4165  -23.2855  -54.8283 H         1 UNK         0.0600 
    229 H229       -8.4096  -23.6752  -53.4443 H         1 UNK         0.0600 
    230 H230       -5.3627  -23.0181  -54.0383 H         1 UNK         0.3000 
    231 H231       -5.0094  -24.5963  -56.5149 H         1 UNK         0.0600 
    232 H232       -3.1844  -24.4220  -54.0752 H         1 UNK         0.0600 
    233 H233       -4.5354  -25.5515  -54.1976 H         1 UNK         0.0600 
    234 H234       -3.1919  -25.6536  -55.3233 H         1 UNK         0.0600 
    235 H235       -4.7229  -21.4431  -56.0915 H         1 UNK         0.3000 
    236 H236       -3.5894  -19.7464  -56.9327 H         1 UNK         0.0600 
    237 H237       -4.0579  -20.9558  -59.0744 H         1 UNK         0.0600 
    238 H238       -2.5836  -20.0078  -59.1697 H         1 UNK         0.0600 
    239 H239       -2.4883  -21.7524  -58.9716 H         1 UNK         0.0600 
    240 H240       -2.4079  -21.0157  -54.7468 H         1 UNK         0.3000 
    241 H241       -0.6766  -20.8812  -53.3862 H         1 UNK         0.0600 
    242 H242        0.7950  -23.7853  -55.4983 H         1 UNK         0.3800 
    243 H243       -0.7230  -22.9938  -55.8289 H         1 UNK         0.3800 
    244 H244        1.0472  -19.3271  -55.3373 H         1 UNK         0.0800 
    245 H245        1.1631  -19.3690  -53.6040 H         1 UNK         0.0800 
    246 H246       -2.1401  -19.1834  -53.0844 H         1 UNK         0.0800 
    247 H247       -2.6873  -17.5638  -53.3576 H         1 UNK         0.0800 
@<TRIPOS>BOND
     1    1    2 1    
     2    1  127 1    
     3    1  128 1    
     4    1  129 1    
     5    2    3 2    
     6    2    4 am   BACKBONE|DICT|INTERRES
     7    4    5 1    
     8    4  130 1    
     9    5    6 1    
    10    5   65 1    
    11    5  131 1    
    12    6    7 1    
    13    6  132 1    
    14    6  133 1    
    15    7    8 1    
    16    8    9 1    
    17    8  134 1    
    18    8  135 1    
    19    9   10 ar   
    20    9   14 ar   
    21   10   11 ar   
    22   10  136 1    
    23   11   12 ar   
    24   11  126 1    
    25   12   13 ar   
    26   12  137 1    
    27   13   14 ar   
    28   13   15 1    
    29   14  138 1    
    30   15   16 1    
    31   15  139 1    
    32   15  140 1    
    33   16   17 1    
    34   17   18 1    
    35   17  141 1    
    36   17  142 1    
    37   18   19 1    
    38   18   67 1    
    39   18  143 1    
    40   19   20 am   BACKBONE|DICT|INTERRES
    41   19  144 1    
    42   20   21 2    
    43   20   22 1    
    44   22   23 1    
    45   22   24 1    
    46   22  145 1    
    47   23  146 1    
    48   23  147 1    
    49   23  148 1    
    50   24   25 am   BACKBONE|DICT|INTERRES
    51   24  149 1    
    52   25   26 2    
    53   25   27 1    
    54   27   28 1    
    55   27   29 1    
    56   27  150 1    
    57   28  151 1    
    58   28  152 1    
    59   28  153 1    
    60   29   30 am   BACKBONE|DICT|INTERRES
    61   29  154 1    
    62   30   31 2    
    63   30   32 1    
    64   32   33 1    
    65   32   34 1    
    66   32  155 1    
    67   33  156 1    
    68   33  157 1    
    69   33  158 1    
    70   34   35 am   BACKBONE|DICT|INTERRES
    71   34  159 1    
    72   35   36 2    
    73   35   37 1    
    74   37   38 1    
    75   37   39 1    
    76   37  160 1    
    77   38  161 1    
    78   38  162 1    
    79   38  163 1    
    80   39   40 am   BACKBONE|DICT|INTERRES
    81   39  164 1    
    82   40   41 2    
    83   40   42 1    
    84   42   43 1    
    85   42   44 1    
    86   42  165 1    
    87   43  166 1    
    88   43  167 1    
    89   43  168 1    
    90   44   45 am   BACKBONE|DICT|INTERRES
    91   44  169 1    
    92   45   46 2    
    93   45   47 1    
    94   47   48 1    
    95   47   49 1    
    96   47  170 1    
    97   48  171 1    
    98   48  172 1    
    99   48  173 1    
   100   49   50 am   BACKBONE|DICT|INTERRES
   101   49  174 1    
   102   50   51 2    
   103   50   52 1    
   104   52   53 1    
   105   52   54 1    
   106   52  175 1    
   107   53  176 1    
   108   53  177 1    
   109   53  178 1    
   110   54   55 am   BACKBONE|DICT|INTERRES
   111   54  179 1    
   112   55   56 2    
   113   55   57 1    
   114   57   58 1    
   115   57   59 1    
   116   57  180 1    
   117   58  181 1    
   118   58  182 1    
   119   58  183 1    
   120   59   60 am   BACKBONE|DICT|INTERRES
   121   59  184 1    
   122   60   61 2    
   123   60   62 1    
   124   62   63 1    
   125   62   64 1    
   126   62  185 1    
   127   63  186 1    
   128   63  187 1    
   129   63  188 1    
   130   64   65 am   BACKBONE|DICT|INTERRES
   131   64  189 1    
   132   65   66 2    
   133   67   68 2    
   134   67   69 am   BACKBONE|DICT|INTERRES
   135   69   70 1    
   136   69  190 1    
   137   70   71 1    
   138   70   72 1    
   139   70  191 1    
   140   71  192 1    
   141   71  193 1    
   142   71  194 1    
   143   72   73 2    
   144   72   74 am   BACKBONE|DICT|INTERRES
   145   74   75 1    
   146   74  195 1    
   147   75   76 1    
   148   75   77 1    
   149   75  196 1    
   150   76  197 1    
   151   76  198 1    
   152   76  199 1    
   153   77   78 2    
   154   77   79 am   BACKBONE|DICT|INTERRES
   155   79   80 1    
   156   79  200 1    
   157   80   81 1    
   158   80   82 1    
   159   80  201 1    
   160   81  202 1    
   161   81  203 1    
   162   81  204 1    
   163   82   83 2    
   164   82   84 am   BACKBONE|DICT|INTERRES
   165   84   85 1    
   166   84  205 1    
   167   85   86 1    
   168   85   87 1    
   169   85  206 1    
   170   86  207 1    
   171   86  208 1    
   172   86  209 1    
   173   87   88 2    
   174   87   89 am   BACKBONE|DICT|INTERRES
   175   89   90 1    
   176   89  210 1    
   177   90   91 1    
   178   90   92 1    
   179   90  211 1    
   180   91  212 1    
   181   91  213 1    
   182   91  214 1    
   183   92   93 2    
   184   92   94 am   BACKBONE|DICT|INTERRES
   185   94   95 1    
   186   94  215 1    
   187   95   96 1    
   188   95   97 1    
   189   95  216 1    
   190   96  217 1    
   191   96  218 1    
   192   96  219 1    
   193   97   98 2    
   194   97   99 am   BACKBONE|DICT|INTERRES
   195   99  100 1    
   196   99  220 1    
   197  100  101 1    
   198  100  102 1    
   199  100  221 1    
   200  101  222 1    
   201  101  223 1    
   202  101  224 1    
   203  102  103 2    
   204  102  104 am   BACKBONE|DICT|INTERRES
   205  104  105 1    
   206  104  225 1    
   207  105  106 1    
   208  105  107 1    
   209  105  226 1    
   210  106  227 1    
   211  106  228 1    
   212  106  229 1    
   213  107  108 2    
   214  107  109 am   BACKBONE|DICT|INTERRES
   215  109  110 1    
   216  109  230 1    
   217  110  111 1    
   218  110  112 1    
   219  110  231 1    
   220  111  232 1    
   221  111  233 1    
   222  111  234 1    
   223  112  113 2    
   224  112  114 am   BACKBONE|DICT|INTERRES
   225  114  115 1    
   226  114  235 1    
   227  115  116 1    
   228  115  117 1    
   229  115  236 1    
   230  116  237 1    
   231  116  238 1    
   232  116  239 1    
   233  117  118 2    
   234  117  119 am   BACKBONE|DICT|INTERRES
   235  119  120 1    
   236  119  240 1    
   237  120  121 1    
   238  120  124 1    
   239  120  241 1    
   240  121  122 am   BACKBONE|DICT|INTERRES
   241  121  123 2    
   242  122  242 1    
   243  122  243 1    
   244  124  125 1    
   245  124  244 1    
   246  124  245 1    
   247  125  126 1    
   248  126  246 1    
   249  126  247 1    
@<TRIPOS>SUBSTRUCTURE
     1 UNK         1 GROUP             0       ****    0 ROOT    
