@<TRIPOS>MOLECULE
3R540
247   249    1
SMALL
USER_CHARGES


@<TRIPOS>ATOM
      1 CA          4.8862  -12.3061  -51.6226 C.3       0 UNK        -0.1800 
      2 C           4.6664  -13.2855  -50.4779 C.2       0 UNK         0.5000 
      3 O           5.0242  -14.4577  -50.5979 O.2       0 UNK        -0.5000 
      4 N           4.0736  -12.8111  -49.3759 N.am      1 UNK        -0.5000 
      5 CA          3.8005  -13.5946  -48.1675 C.3       1 UNK         0.1400 
      6 C6          2.8231  -12.8711  -47.2080 C.3       23 UNK        -0.0398 
      7 S7          1.2347  -12.4147  -47.9753 S.3       23 UNK        -0.2404 
      8 C8          0.2121  -13.8832  -47.6437 C.3       23 UNK        -0.0205 
      9 C9          0.3216  -14.9101  -48.7607 C.ar      23 UNK        -0.0193 
     10 C10        -0.3650  -14.6989  -49.9586 C.ar      23 UNK        -0.1150 
     11 C11        -0.2777  -15.6227  -51.0025 C.ar      23 UNK        -0.0193 
     12 C12         0.5030  -16.7708  -50.8408 C.ar      23 UNK        -0.1150 
     13 C13         1.2037  -16.9920  -49.6510 C.ar      23 UNK        -0.0193 
     14 C14         1.1005  -16.0619  -48.6101 C.ar      23 UNK        -0.1150 
     15 C15         2.1256  -18.1980  -49.5210 C.3       23 UNK        -0.0205 
     16 S16         1.6608  -19.3124  -48.1606 S.3       23 UNK        -0.2404 
     17 C17         0.1676  -20.1295  -48.8182 C.3       23 UNK        -0.0398 
     18 CA         -0.1294  -21.4592  -48.0819 C.3       11 UNK         0.1400 
     19 N          -0.3545  -21.2770  -46.6442 N.am      11 UNK        -0.5000 
     20 C          -0.4735  -22.2708  -45.7528 C.2       10 UNK         0.5000 
     21 O          -0.3633  -23.4625  -46.0371 O.2       10 UNK        -0.5000 
     22 CA         -0.8234  -21.8720  -44.3099 C.3       10 UNK         0.1400 
     23 CB          0.4346  -21.4712  -43.5244 C.3       10 UNK        -0.1800 
     24 N          -1.8027  -20.7870  -44.2717 N.am      10 UNK        -0.5000 
     25 C          -3.0979  -20.9290  -44.5852 C.2       9 UNK         0.5000 
     26 O          -3.6102  -22.0031  -44.9003 O.2       9 UNK        -0.5000 
     27 CA         -3.9548  -19.6489  -44.5831 C.3       9 UNK         0.1400 
     28 CB         -4.4203  -19.3086  -43.1598 C.3       9 UNK        -0.1800 
     29 N          -3.2524  -18.4972  -45.1500 N.am      9 UNK        -0.5000 
     30 C          -2.8737  -18.4050  -46.4336 C.2       8 UNK         0.5000 
     31 O          -3.1078  -19.2686  -47.2759 O.2       8 UNK        -0.5000 
     32 CA         -2.0491  -17.1667  -46.8334 C.3       8 UNK         0.1400 
     33 CB         -2.9939  -16.0156  -47.2079 C.3       8 UNK        -0.1800 
     34 N          -1.1149  -16.7146  -45.7971 N.am      8 UNK        -0.5000 
     35 C          -0.2079  -17.4837  -45.1747 C.2       7 UNK         0.5000 
     36 O          -0.0289  -18.6701  -45.4377 O.2       7 UNK        -0.5000 
     37 CA          0.6085  -16.8544  -44.0305 C.3       7 UNK         0.1400 
     38 CB          2.0169  -16.4896  -44.5280 C.3       7 UNK        -0.1800 
     39 N           0.0038  -15.6727  -43.4120 N.am      7 UNK        -0.5000 
     40 C          -1.2237  -15.5636  -42.8788 C.2       6 UNK         0.5000 
     41 O          -2.0386  -16.4874  -42.8452 O.2       6 UNK        -0.5000 
     42 CA         -1.6114  -14.1827  -42.3042 C.3       6 UNK         0.1400 
     43 CB         -1.8225  -14.2708  -40.7849 C.3       6 UNK        -0.1800 
     44 N          -0.6152  -13.1415  -42.5759 N.am      6 UNK        -0.5000 
     45 C          -0.3576  -12.5806  -43.7635 C.2       5 UNK         0.5000 
     46 O          -1.0160  -12.8153  -44.7756 O.2       5 UNK        -0.5000 
     47 CA          0.8922  -11.6789  -43.8588 C.3       5 UNK         0.1400 
     48 CB          0.5627  -10.2230  -43.4806 C.3       5 UNK        -0.1800 
     49 N           2.0627  -12.1861  -43.1173 N.am      5 UNK        -0.5000 
     50 C           2.2367  -12.3007  -41.7907 C.2       4 UNK         0.5000 
     51 O           1.3896  -11.9700  -40.9604 O.2       4 UNK        -0.5000 
     52 CA          3.5437  -12.9495  -41.2965 C.3       4 UNK         0.1400 
     53 CB          3.2683  -14.3807  -40.8081 C.3       4 UNK        -0.1800 
     54 N           4.6190  -12.9959  -42.2898 N.am      4 UNK        -0.5000 
     55 C           5.3482  -11.9495  -42.6919 C.2       3 UNK         0.5000 
     56 O           5.1131  -10.7910  -42.3475 O.2       3 UNK        -0.5000 
     57 CA          6.5485  -12.2263  -43.6227 C.3       3 UNK         0.1400 
     58 CB          7.8302  -12.4499  -42.7984 C.3       3 UNK        -0.1800 
     59 N           6.3726  -13.3009  -44.6123 N.am      3 UNK        -0.5000 
     60 C           6.2021  -14.6193  -44.4405 C.2       2 UNK         0.5000 
     61 O           6.0717  -15.1526  -43.3377 O.2       2 UNK        -0.5000 
     62 CA          6.1289  -15.4694  -45.7304 C.3       2 UNK         0.1400 
     63 CB          5.9335  -16.9689  -45.4416 C.3       2 UNK        -0.1800 
     64 N           5.0590  -15.0239  -46.6274 N.am      2 UNK        -0.5000 
     65 C           5.0970  -13.9347  -47.4059 C.2       1 UNK         0.5000 
     66 O           6.0708  -13.1787  -47.4687 O.2       1 UNK        -0.5000 
     67 C          -1.2966  -22.2224  -48.7410 C.2       11 UNK         0.5000 
     68 O          -1.0517  -23.1755  -49.4813 O.2       11 UNK        -0.5000 
     69 N          -2.5384  -21.8379  -48.4102 N.am      12 UNK        -0.5000 
     70 CA         -3.7602  -22.5202  -48.8347 C.3       12 UNK         0.1400 
     71 CB         -4.9890  -21.7167  -48.3858 C.3       12 UNK        -0.1800 
     72 C          -3.8435  -23.9622  -48.3081 C.2       12 UNK         0.5000 
     73 O          -4.1876  -24.8607  -49.0739 O.2       12 UNK        -0.5000 
     74 N          -3.5018  -24.1678  -47.0270 N.am      13 UNK        -0.5000 
     75 CA         -3.4654  -25.4829  -46.3837 C.3       13 UNK         0.1400 
     76 CB         -3.2341  -25.3235  -44.8741 C.3       13 UNK        -0.1800 
     77 C          -2.4169  -26.4237  -47.0042 C.2       13 UNK         0.5000 
     78 O          -2.7264  -27.5885  -47.2554 O.2       13 UNK        -0.5000 
     79 N          -1.2179  -25.8967  -47.2912 N.am      14 UNK        -0.5000 
     80 CA         -0.1346  -26.6066  -47.9785 C.3       14 UNK         0.1400 
     81 CB          1.1340  -25.7406  -47.9624 C.3       14 UNK        -0.1800 
     82 C          -0.4999  -27.0103  -49.4205 C.2       14 UNK         0.5000 
     83 O          -0.0979  -28.0812  -49.8757 O.2       14 UNK        -0.5000 
     84 N          -1.2919  -26.1656  -50.0919 N.am      15 UNK        -0.5000 
     85 CA         -1.8676  -26.4072  -51.4148 C.3       15 UNK         0.1400 
     86 CB         -2.1080  -25.0475  -52.0867 C.3       15 UNK        -0.1800 
     87 C          -3.1666  -27.2437  -51.3780 C.2       15 UNK         0.5000 
     88 O          -3.7849  -27.4311  -52.4267 O.2       15 UNK        -0.5000 
     89 N          -3.5826  -27.7080  -50.1881 N.am      16 UNK        -0.5000 
     90 CA         -4.7815  -28.5096  -49.9074 C.3       16 UNK         0.1400 
     91 CB         -4.6270  -29.9261  -50.4986 C.3       16 UNK        -0.1800 
     92 C          -6.0998  -27.8258  -50.3345 C.2       16 UNK         0.5000 
     93 O          -7.0579  -28.5078  -50.7015 O.2       16 UNK        -0.5000 
     94 N          -6.1075  -26.4850  -50.3035 N.am      17 UNK        -0.5000 
     95 CA         -7.1642  -25.5671  -50.7402 C.3       17 UNK         0.1400 
     96 CB         -8.4250  -25.7266  -49.8668 C.3       17 UNK        -0.1800 
     97 C          -7.4831  -25.6218  -52.2520 C.2       17 UNK         0.5000 
     98 O          -8.4711  -25.0220  -52.6788 O.2       17 UNK        -0.5000 
     99 N          -6.6459  -26.3041  -53.0478 N.am      18 UNK        -0.5000 
    100 CA        -6.7765  -26.3945  -54.5047 C.3       18 UNK         0.1400 
    101 CB        -6.0795  -27.6749  -54.9899 C.3       18 UNK        -0.1800 
    102 C         -6.2002  -25.1592  -55.2234 C.2       18 UNK         0.5000 
    103 O         -6.5213  -24.9277  -56.3898 O.2       18 UNK        -0.5000 
    104 N         -5.3655  -24.3921  -54.5166 N.am      19 UNK        -0.5000 
    105 CA        -4.7199  -23.1618  -54.9499 C.3       19 UNK         0.1400 
    106 CB        -3.5065  -23.4959  -55.8405 C.3       19 UNK        -0.1800 
    107 C         -4.3091  -22.3742  -53.6949 C.2       19 UNK         0.5000 
    108 O         -4.5328  -22.8449  -52.5762 O.2       19 UNK        -0.5000 
    109 N         -3.7118  -21.1933  -53.9068 N.am      20 UNK        -0.5000 
    110 CA        -3.0921  -20.3223  -52.8974 C.3       20 UNK         0.1400 
    111 CB        -1.8478  -21.0012  -52.2902 C.3       20 UNK        -0.1800 
    112 C         -4.0552  -19.7849  -51.8164 C.2       20 UNK         0.5000 
    113 O         -3.6035  -19.3583  -50.7533 O.2       20 UNK        -0.5000 
    114 N         -5.3609  -19.7568  -52.1178 N.am      21 UNK        -0.5000 
    115 CA        -6.4253  -19.2014  -51.2772 C.3       21 UNK         0.1400 
    116 CB        -7.7564  -19.8713  -51.6618 C.3       21 UNK        -0.1800 
    117 C         -6.4710  -17.6610  -51.3762 C.2       21 UNK         0.5000 
    118 O         -7.4923  -17.0843  -51.7553 O.2       21 UNK        -0.5000 
    119 N         -5.3288  -17.0342  -51.0852 N.am      22 UNK        -0.5000 
    120 CA        -5.0718  -15.5942  -51.1889 C.3       22 UNK         0.1400 
    121 C         -5.8433  -14.7579  -50.1304 C.2       22 UNK         0.5000 
    122 N         -6.1730  -13.5116  -50.4417 N.am      22 UNK        -0.7600 
    123 O         -6.1135  -15.2091  -49.0196 O.2       22 UNK        -0.5000 
    124 C124       -3.5518  -15.3026  -51.1219 C.3       23 UNK        -0.0398 
    125 S125       -2.6060  -16.1989  -52.4031 S.3       23 UNK        -0.2404 
    126 C126       -0.9959  -15.3586  -52.3177 C.3       23 UNK        -0.0205 
    127 H127        4.3720  -12.6546  -52.5183 H         1 UNK         0.0600 
    128 H128        5.9496  -12.2249  -51.8478 H         1 UNK         0.0600 
    129 H129        4.5125  -11.3105  -51.3819 H         1 UNK         0.0600 
    130 H130        3.8074  -11.8382  -49.3341 H         1 UNK         0.3000 
    131 H131        3.3478  -14.5342  -48.4847 H         1 UNK         0.0600 
    132 H132        3.2759  -11.9499  -46.8356 H         1 UNK         0.0800 
    133 H133        2.6221  -13.4789  -46.3248 H         1 UNK         0.0800 
    134 H134       -0.8240  -13.5553  -47.5557 H         1 UNK         0.0800 
    135 H135        0.4681  -14.3220  -46.6795 H         1 UNK         0.0800 
    136 H136       -0.9598  -13.8045  -50.0808 H         1 UNK         0.1150 
    137 H137        0.5820  -17.4790  -51.6536 H         1 UNK         0.1150 
    138 H138        1.6397  -16.2324  -47.6898 H         1 UNK         0.1150 
    139 H139        2.1685  -18.7640  -50.4527 H         1 UNK         0.0800 
    140 H140        3.1391  -17.8372  -49.3404 H         1 UNK         0.0800 
    141 H141        0.3236  -20.3172  -49.8814 H         1 UNK         0.0800 
    142 H142       -0.6766  -19.4428  -48.7445 H         1 UNK         0.0800 
    143 H143        0.7540  -22.0936  -48.1835 H         1 UNK         0.0600 
    144 H144       -0.3891  -20.3177  -46.3083 H         1 UNK         0.3000 
    145 H145       -1.2606  -22.7433  -43.8179 H         1 UNK         0.0600 
    146 H146        0.1908  -21.2132  -42.4938 H         1 UNK         0.0600 
    147 H147        1.1489  -22.2948  -43.4931 H         1 UNK         0.0600 
    148 H148        0.9429  -20.6178  -43.9730 H         1 UNK         0.0600 
    149 H149       -1.4394  -19.8567  -44.1181 H         1 UNK         0.3000 
    150 H150       -4.8386  -19.8405  -45.1953 H         1 UNK         0.0600 
    151 H151       -4.9576  -20.1463  -42.7133 H         1 UNK         0.0600 
    152 H152       -5.0953  -18.4526  -43.1605 H         1 UNK         0.0600 
    153 H153       -3.5794  -19.0703  -42.5070 H         1 UNK         0.0600 
    154 H154       -2.9879  -17.7597  -44.5082 H         1 UNK         0.3000 
    155 H155       -1.4622  -17.4303  -47.7149 H         1 UNK         0.0600 
    156 H156       -3.5222  -15.6271  -46.3364 H         1 UNK         0.0600 
    157 H157       -3.7473  -16.3477  -47.9234 H         1 UNK         0.0600 
    158 H158       -2.4559  -15.1911  -47.6707 H         1 UNK         0.0600 
    159 H159       -1.2115  -15.7576  -45.4920 H         1 UNK         0.3000 
    160 H160        0.7043  -17.6150  -43.2533 H         1 UNK         0.0600 
    161 H161        1.9905  -15.6696  -45.2449 H         1 UNK         0.0600 
    162 H162        2.4891  -17.3411  -45.0206 H         1 UNK         0.0600 
    163 H163        2.6665  -16.1954  -43.7042 H         1 UNK         0.0600 
    164 H164        0.5828  -14.8486  -43.3761 H         1 UNK         0.3000 
    165 H165       -2.5544  -13.8889  -42.7693 H         1 UNK         0.0600 
    166 H166       -2.1543  -13.3157  -40.3773 H         1 UNK         0.0600 
    167 H167       -2.5841  -15.0110  -40.5357 H         1 UNK         0.0600 
    168 H168       -0.9049  -14.5553  -40.2682 H         1 UNK         0.0600 
    169 H169       -0.0264  -12.8562  -41.7972 H         1 UNK         0.3000 
    170 H170        1.1896  -11.6763  -44.9081 H         1 UNK         0.0600 
    171 H171       -0.2193   -9.8233  -44.1274 H         1 UNK         0.0600 
    172 H172        0.2089  -10.1348  -42.4533 H         1 UNK         0.0600 
    173 H173        1.4362   -9.5805  -43.5915 H         1 UNK         0.0600 
    174 H174        2.8303  -12.5034  -43.6909 H         1 UNK         0.3000 
    175 H175        3.8933  -12.3615  -40.4453 H         1 UNK         0.0600 
    176 H176        2.9190  -15.0224  -41.6171 H         1 UNK         0.0600 
    177 H177        4.1662  -14.8329  -40.3866 H         1 UNK         0.0600 
    178 H178        2.5051  -14.3911  -40.0286 H         1 UNK         0.0600 
    179 H179        4.9334  -13.9158  -42.5902 H         1 UNK         0.3000 
    180 H180        6.6938  -11.3171  -44.2084 H         1 UNK         0.0600 
    181 H181        7.7642  -13.3444  -42.1783 H         1 UNK         0.0600 
    182 H182        8.0183  -11.6062  -42.1331 H         1 UNK         0.0600 
    183 H183        8.7017  -12.5532  -43.4449 H         1 UNK         0.0600 
    184 H184        6.4151  -12.9927  -45.5804 H         1 UNK         0.3000 
    185 H185        7.0859  -15.3549  -46.2440 H         1 UNK         0.0600 
    186 H186        6.7433  -17.3561  -44.8218 H         1 UNK         0.0600 
    187 H187        4.9980  -17.1615  -44.9158 H         1 UNK         0.0600 
    188 H188        5.9265  -17.5513  -46.3632 H         1 UNK         0.0600 
    189 H189        4.2232  -15.5885  -46.6172 H         1 UNK         0.3000 
    190 H190       -2.6653  -21.0017  -47.8445 H         1 UNK         0.3000 
    191 H191       -3.7576  -22.5582  -49.9256 H         1 UNK         0.0600 
    192 H192       -5.0645  -21.6660  -47.2992 H         1 UNK         0.0600 
    193 H193       -5.9085  -22.1656  -48.7632 H         1 UNK         0.0600 
    194 H194       -4.9456  -20.6953  -48.7599 H         1 UNK         0.0600 
    195 H195       -3.2715  -23.3699  -46.4450 H         1 UNK         0.3000 
    196 H196       -4.4449  -25.9444  -46.5255 H         1 UNK         0.0600 
    197 H197       -3.2303  -26.2934  -44.3754 H         1 UNK         0.0600 
    198 H198       -4.0222  -24.7261  -44.4156 H         1 UNK         0.0600 
    199 H199       -2.2806  -24.8413  -44.6600 H         1 UNK         0.0600 
    200 H200       -1.0232  -24.9396  -47.0061 H         1 UNK         0.3000 
    201 H201        0.0703  -27.5224  -47.4205 H         1 UNK         0.0600 
    202 H202        1.4456  -25.5178  -46.9419 H         1 UNK         0.0600 
    203 H203        0.9799  -24.7925  -48.4787 H         1 UNK         0.0600 
    204 H204        1.9636  -26.2518  -48.4523 H         1 UNK         0.0600 
    205 H205       -1.5344  -25.2830  -49.6553 H         1 UNK         0.3000 
    206 H206       -1.1488  -26.9608  -52.0217 H         1 UNK         0.0600 
    207 H207       -1.1781  -24.4892  -52.1949 H         1 UNK         0.0600 
    208 H208       -2.5363  -25.1626  -53.0826 H         1 UNK         0.0600 
    209 H209       -2.7931  -24.4375  -51.4987 H         1 UNK         0.0600 
    210 H210       -3.0324  -27.4701  -49.3717 H         1 UNK         0.3000 
    211 H211       -4.8332  -28.6083  -48.8225 H         1 UNK         0.0600 
    212 H212       -4.6296  -29.9113  -51.5890 H         1 UNK         0.0600 
    213 H213       -5.4414  -30.5766  -50.1779 H         1 UNK         0.0600 
    214 H214       -3.6963  -30.3896  -50.1714 H         1 UNK         0.0600 
    215 H215       -5.2700  -26.0199  -49.9540 H         1 UNK         0.3000 
    216 H216       -6.7689  -24.5658  -50.5619 H         1 UNK         0.0600 
    217 H217       -9.1514  -24.9414  -50.0792 H         1 UNK         0.0600 
    218 H218       -8.1803  -25.6605  -48.8067 H         1 UNK         0.0600 
    219 H219       -8.9197  -26.6827  -50.0392 H         1 UNK         0.0600 
    220 H220       -5.8399  -26.7631  -52.6380 H         1 UNK         0.3000 
    221 H221       -7.8348  -26.4670  -54.7640 H         1 UNK         0.0600 
    222 H222       -5.0045  -27.6418  -54.8099 H         1 UNK         0.0600 
    223 H223       -6.4772  -28.5567  -54.4871 H         1 UNK         0.0600 
    224 H224       -6.2267  -27.8163  -56.0613 H         1 UNK         0.0600 
    225 H225       -5.2022  -24.6133  -53.5420 H         1 UNK         0.3000 
    226 H226       -5.4368  -22.5583  -55.5102 H         1 UNK         0.0600 
    227 H227       -3.8022  -24.0799  -56.7121 H         1 UNK         0.0600 
    228 H228       -3.0239  -22.5921  -56.2133 H         1 UNK         0.0600 
    229 H229       -2.7554  -24.0690  -55.2961 H         1 UNK         0.0600 
    230 H230       -3.6043  -20.8813  -54.8620 H         1 UNK         0.3000 
    231 H231       -2.7454  -19.4399  -53.4371 H         1 UNK         0.0600 
    232 H232       -1.1558  -21.3264  -53.0668 H         1 UNK         0.0600 
    233 H233       -2.1161  -21.8739  -51.6954 H         1 UNK         0.0600 
    234 H234       -1.3049  -20.3143  -51.6411 H         1 UNK         0.0600 
    235 H235       -5.6410  -20.0981  -53.0247 H         1 UNK         0.3000 
    236 H236       -6.2220  -19.4476  -50.2342 H         1 UNK         0.0600 
    237 H237       -8.5711  -19.5131  -51.0313 H         1 UNK         0.0600 
    238 H238       -8.0266  -19.6666  -52.6985 H         1 UNK         0.0600 
    239 H239       -7.7021  -20.9531  -51.5366 H         1 UNK         0.0600 
    240 H240       -4.5420  -17.6082  -50.7995 H         1 UNK         0.3000 
    241 H241       -5.4291  -15.2809  -52.1719 H         1 UNK         0.0600 
    242 H242       -6.6630  -12.9523  -49.7606 H         1 UNK         0.3800 
    243 H243       -5.9618  -13.1149  -51.3445 H         1 UNK         0.3800 
    244 H244       -3.3653  -14.2338  -51.2405 H         1 UNK         0.0800 
    245 H245       -3.1532  -15.5813  -50.1461 H         1 UNK         0.0800 
    246 H246       -1.1343  -14.2873  -52.4710 H         1 UNK         0.0800 
    247 H247       -0.3762  -15.7040  -53.1464 H         1 UNK         0.0800 
@<TRIPOS>BOND
     1    1    2 1    
     2    1  127 1    
     3    1  128 1    
     4    1  129 1    
     5    2    3 2    
     6    2    4 am   BACKBONE|DICT|INTERRES
     7    4    5 1    
     8    4  130 1    
     9    5    6 1    
    10    5   65 1    
    11    5  131 1    
    12    6    7 1    
    13    6  132 1    
    14    6  133 1    
    15    7    8 1    
    16    8    9 1    
    17    8  134 1    
    18    8  135 1    
    19    9   10 ar   
    20    9   14 ar   
    21   10   11 ar   
    22   10  136 1    
    23   11   12 ar   
    24   11  126 1    
    25   12   13 ar   
    26   12  137 1    
    27   13   14 ar   
    28   13   15 1    
    29   14  138 1    
    30   15   16 1    
    31   15  139 1    
    32   15  140 1    
    33   16   17 1    
    34   17   18 1    
    35   17  141 1    
    36   17  142 1    
    37   18   19 1    
    38   18   67 1    
    39   18  143 1    
    40   19   20 am   BACKBONE|DICT|INTERRES
    41   19  144 1    
    42   20   21 2    
    43   20   22 1    
    44   22   23 1    
    45   22   24 1    
    46   22  145 1    
    47   23  146 1    
    48   23  147 1    
    49   23  148 1    
    50   24   25 am   BACKBONE|DICT|INTERRES
    51   24  149 1    
    52   25   26 2    
    53   25   27 1    
    54   27   28 1    
    55   27   29 1    
    56   27  150 1    
    57   28  151 1    
    58   28  152 1    
    59   28  153 1    
    60   29   30 am   BACKBONE|DICT|INTERRES
    61   29  154 1    
    62   30   31 2    
    63   30   32 1    
    64   32   33 1    
    65   32   34 1    
    66   32  155 1    
    67   33  156 1    
    68   33  157 1    
    69   33  158 1    
    70   34   35 am   BACKBONE|DICT|INTERRES
    71   34  159 1    
    72   35   36 2    
    73   35   37 1    
    74   37   38 1    
    75   37   39 1    
    76   37  160 1    
    77   38  161 1    
    78   38  162 1    
    79   38  163 1    
    80   39   40 am   BACKBONE|DICT|INTERRES
    81   39  164 1    
    82   40   41 2    
    83   40   42 1    
    84   42   43 1    
    85   42   44 1    
    86   42  165 1    
    87   43  166 1    
    88   43  167 1    
    89   43  168 1    
    90   44   45 am   BACKBONE|DICT|INTERRES
    91   44  169 1    
    92   45   46 2    
    93   45   47 1    
    94   47   48 1    
    95   47   49 1    
    96   47  170 1    
    97   48  171 1    
    98   48  172 1    
    99   48  173 1    
   100   49   50 am   BACKBONE|DICT|INTERRES
   101   49  174 1    
   102   50   51 2    
   103   50   52 1    
   104   52   53 1    
   105   52   54 1    
   106   52  175 1    
   107   53  176 1    
   108   53  177 1    
   109   53  178 1    
   110   54   55 am   BACKBONE|DICT|INTERRES
   111   54  179 1    
   112   55   56 2    
   113   55   57 1    
   114   57   58 1    
   115   57   59 1    
   116   57  180 1    
   117   58  181 1    
   118   58  182 1    
   119   58  183 1    
   120   59   60 am   BACKBONE|DICT|INTERRES
   121   59  184 1    
   122   60   61 2    
   123   60   62 1    
   124   62   63 1    
   125   62   64 1    
   126   62  185 1    
   127   63  186 1    
   128   63  187 1    
   129   63  188 1    
   130   64   65 am   BACKBONE|DICT|INTERRES
   131   64  189 1    
   132   65   66 2    
   133   67   68 2    
   134   67   69 am   BACKBONE|DICT|INTERRES
   135   69   70 1    
   136   69  190 1    
   137   70   71 1    
   138   70   72 1    
   139   70  191 1    
   140   71  192 1    
   141   71  193 1    
   142   71  194 1    
   143   72   73 2    
   144   72   74 am   BACKBONE|DICT|INTERRES
   145   74   75 1    
   146   74  195 1    
   147   75   76 1    
   148   75   77 1    
   149   75  196 1    
   150   76  197 1    
   151   76  198 1    
   152   76  199 1    
   153   77   78 2    
   154   77   79 am   BACKBONE|DICT|INTERRES
   155   79   80 1    
   156   79  200 1    
   157   80   81 1    
   158   80   82 1    
   159   80  201 1    
   160   81  202 1    
   161   81  203 1    
   162   81  204 1    
   163   82   83 2    
   164   82   84 am   BACKBONE|DICT|INTERRES
   165   84   85 1    
   166   84  205 1    
   167   85   86 1    
   168   85   87 1    
   169   85  206 1    
   170   86  207 1    
   171   86  208 1    
   172   86  209 1    
   173   87   88 2    
   174   87   89 am   BACKBONE|DICT|INTERRES
   175   89   90 1    
   176   89  210 1    
   177   90   91 1    
   178   90   92 1    
   179   90  211 1    
   180   91  212 1    
   181   91  213 1    
   182   91  214 1    
   183   92   93 2    
   184   92   94 am   BACKBONE|DICT|INTERRES
   185   94   95 1    
   186   94  215 1    
   187   95   96 1    
   188   95   97 1    
   189   95  216 1    
   190   96  217 1    
   191   96  218 1    
   192   96  219 1    
   193   97   98 2    
   194   97   99 am   BACKBONE|DICT|INTERRES
   195   99  100 1    
   196   99  220 1    
   197  100  101 1    
   198  100  102 1    
   199  100  221 1    
   200  101  222 1    
   201  101  223 1    
   202  101  224 1    
   203  102  103 2    
   204  102  104 am   BACKBONE|DICT|INTERRES
   205  104  105 1    
   206  104  225 1    
   207  105  106 1    
   208  105  107 1    
   209  105  226 1    
   210  106  227 1    
   211  106  228 1    
   212  106  229 1    
   213  107  108 2    
   214  107  109 am   BACKBONE|DICT|INTERRES
   215  109  110 1    
   216  109  230 1    
   217  110  111 1    
   218  110  112 1    
   219  110  231 1    
   220  111  232 1    
   221  111  233 1    
   222  111  234 1    
   223  112  113 2    
   224  112  114 am   BACKBONE|DICT|INTERRES
   225  114  115 1    
   226  114  235 1    
   227  115  116 1    
   228  115  117 1    
   229  115  236 1    
   230  116  237 1    
   231  116  238 1    
   232  116  239 1    
   233  117  118 2    
   234  117  119 am   BACKBONE|DICT|INTERRES
   235  119  120 1    
   236  119  240 1    
   237  120  121 1    
   238  120  124 1    
   239  120  241 1    
   240  121  122 am   BACKBONE|DICT|INTERRES
   241  121  123 2    
   242  122  242 1    
   243  122  243 1    
   244  124  125 1    
   245  124  244 1    
   246  124  245 1    
   247  125  126 1    
   248  126  246 1    
   249  126  247 1    
@<TRIPOS>SUBSTRUCTURE
     1 UNK         1 GROUP             0       ****    0 ROOT    
