@<TRIPOS>MOLECULE
3R540
247   249    1
SMALL
USER_CHARGES


@<TRIPOS>ATOM
      1 CA         -1.8294  -13.3220  -48.6020 C.3       0 UNK        -0.1800 
      2 C          -0.3551  -13.2752  -48.9791 C.2       0 UNK         0.5000 
      3 O          -0.0207  -12.8701  -50.0926 O.2       0 UNK        -0.5000 
      4 N           0.5227  -13.6880  -48.0575 N.am      1 UNK        -0.5000 
      5 CA          1.9754  -13.6536  -48.2152 C.3       1 UNK         0.1400 
      6 C6          2.6500  -14.7872  -47.3979 C.3       23 UNK        -0.0398 
      7 S7          4.3203  -15.2015  -48.0085 S.3       23 UNK        -0.2404 
      8 C8          4.3704  -17.0123  -47.7710 C.3       23 UNK        -0.0205 
      9 C9          3.5456  -17.8574  -48.7457 C.ar      23 UNK        -0.0193 
     10 C10         2.6914  -17.3074  -49.7102 C.ar      23 UNK        -0.1150 
     11 C11         1.9365  -18.1282  -50.5508 C.ar      23 UNK        -0.0193 
     12 C12         2.0619  -19.5158  -50.4546 C.ar      23 UNK        -0.1150 
     13 C13         2.9136  -20.0845  -49.5021 C.ar      23 UNK        -0.0193 
     14 C14         3.6449  -19.2490  -48.6525 C.ar      23 UNK        -0.1150 
     15 C15         3.0590  -21.5979  -49.3858 C.3       23 UNK        -0.0205 
     16 S16         1.4635  -22.4657  -49.2430 S.3       23 UNK        -0.2404 
     17 C17         0.7346  -21.6867  -47.7598 C.3       23 UNK        -0.0398 
     18 CA         -0.0106  -22.6957  -46.8555 C.3       11 UNK         0.1400 
     19 N          -0.2744  -22.1372  -45.5284 N.am      11 UNK        -0.5000 
     20 C          -0.6712  -22.8538  -44.4679 C.2       10 UNK         0.5000 
     21 O          -0.7954  -24.0778  -44.4810 O.2       10 UNK        -0.5000 
     22 CA         -1.0324  -22.0680  -43.1944 C.3       10 UNK         0.1400 
     23 CB          0.2278  -21.7261  -42.3859 C.3       10 UNK        -0.1800 
     24 N          -1.7785  -20.8442  -43.4916 N.am      10 UNK        -0.5000 
     25 C          -3.0101  -20.8202  -44.0212 C.2       9 UNK         0.5000 
     26 O          -3.6785  -21.8322  -44.2325 O.2       9 UNK        -0.5000 
     27 CA         -3.5722  -19.4424  -44.4226 C.3       9 UNK         0.1400 
     28 CB         -4.2073  -18.7368  -43.2162 C.3       9 UNK        -0.1800 
     29 N          -2.5628  -18.5700  -45.0263 N.am      9 UNK        -0.5000 
     30 C          -1.9429  -18.8186  -46.1885 C.2       8 UNK         0.5000 
     31 O          -2.1898  -19.7900  -46.8990 O.2       8 UNK        -0.5000 
     32 CA         -0.8292  -17.8474  -46.6091 C.3       8 UNK         0.1400 
     33 CB         -1.4210  -16.5975  -47.2652 C.3       8 UNK        -0.1800 
     34 N           0.0273  -17.4632  -45.4875 N.am      8 UNK        -0.5000 
     35 C           0.8454  -18.3101  -44.8467 C.2       7 UNK         0.5000 
     36 O           1.0133  -19.4826  -45.1809 O.2       7 UNK        -0.5000 
     37 CA          1.5400  -17.7722  -43.5831 C.3       7 UNK         0.1400 
     38 CB          2.8244  -17.0081  -43.9373 C.3       7 UNK        -0.1800 
     39 N           0.6523  -16.9114  -42.7995 N.am      7 UNK        -0.5000 
     40 C          -0.4099  -17.3598  -42.1133 C.2       6 UNK         0.5000 
     41 O          -0.7262  -18.5466  -42.0501 O.2       6 UNK        -0.5000 
     42 CA         -1.2909  -16.3077  -41.4138 C.3       6 UNK         0.1400 
     43 CB         -0.7628  -16.0199  -40.0007 C.3       6 UNK        -0.1800 
     44 N          -1.3837  -15.0513  -42.1572 N.am      6 UNK        -0.5000 
     45 C          -1.9204  -14.9152  -43.3788 C.2       5 UNK         0.5000 
     46 O          -2.4471  -15.8393  -43.9970 O.2       5 UNK        -0.5000 
     47 CA         -1.7880  -13.5282  -44.0403 C.3       5 UNK         0.1400 
     48 CB         -3.0279  -12.6699  -43.7535 C.3       5 UNK        -0.1800 
     49 N          -0.5845  -12.8132  -43.6008 N.am      5 UNK        -0.5000 
     50 C           0.6621  -13.2109  -43.8841 C.2       4 UNK         0.5000 
     51 O           0.9186  -14.1551  -44.6369 O.2       4 UNK        -0.5000 
     52 CA          1.7940  -12.5074  -43.1224 C.3       4 UNK         0.1400 
     53 CB          1.8926  -13.1038  -41.7011 C.3       4 UNK        -0.1800 
     54 N           3.0439  -12.6963  -43.8533 N.am      4 UNK        -0.5000 
     55 C           4.2383  -12.1749  -43.5441 C.2       3 UNK         0.5000 
     56 O           4.4424  -11.4358  -42.5804 O.2       3 UNK        -0.5000 
     57 CA          5.4008  -12.5214  -44.4932 C.3       3 UNK         0.1400 
     58 CB          5.7525  -14.0171  -44.4163 C.3       3 UNK        -0.1800 
     59 N           5.1000  -12.1657  -45.8785 N.am      3 UNK        -0.5000 
     60 C           4.9480  -10.9145  -46.3405 C.2       2 UNK         0.5000 
     61 O           5.1477   -9.9041  -45.6655 O.2       2 UNK        -0.5000 
     62 CA          4.4774  -10.7670  -47.8033 C.3       2 UNK         0.1400 
     63 CB          5.6780  -10.5584  -48.7386 C.3       2 UNK        -0.1800 
     64 N           3.7042  -11.9218  -48.2675 N.am      2 UNK        -0.5000 
     65 C           2.5055  -12.2720  -47.7838 C.2       1 UNK         0.5000 
     66 O           1.8686  -11.5858  -46.9798 O.2       1 UNK        -0.5000 
     67 C          -1.2964  -23.2483  -47.5135 C.2       11 UNK         0.5000 
     68 O          -1.2466  -24.3169  -48.1206 O.2       11 UNK        -0.5000 
     69 N          -2.4343  -22.5575  -47.3445 N.am      12 UNK        -0.5000 
     70 CA         -3.7492  -22.9496  -47.8673 C.3       12 UNK         0.1400 
     71 CB         -4.7750  -21.8434  -47.5853 C.3       12 UNK        -0.1800 
     72 C          -4.2617  -24.3020  -47.3398 C.2       12 UNK         0.5000 
     73 O          -5.0210  -24.9742  -48.0377 O.2       12 UNK        -0.5000 
     74 N          -3.8149  -24.6965  -46.1387 N.am      13 UNK        -0.5000 
     75 CA         -4.0750  -26.0129  -45.5552 C.3       13 UNK         0.1400 
     76 CB         -3.6859  -25.9995  -44.0696 C.3       13 UNK        -0.1800 
     77 C          -3.3536  -27.1542  -46.3024 C.2       13 UNK         0.5000 
     78 O          -3.8379  -28.2863  -46.2738 O.2       13 UNK        -0.5000 
     79 N          -2.2311  -26.8422  -46.9671 N.am      14 UNK        -0.5000 
     80 CA         -1.5307  -27.7465  -47.8753 C.3       14 UNK         0.1400 
     81 CB         -0.0182  -27.4685  -47.8368 C.3       14 UNK        -0.1800 
     82 C          -2.1005  -27.6073  -49.2969 C.2       14 UNK         0.5000 
     83 O          -2.5588  -28.6028  -49.8586 O.2       14 UNK        -0.5000 
     84 N          -2.0967  -26.3780  -49.8325 N.am      15 UNK        -0.5000 
     85 CA         -2.6852  -26.0167  -51.1208 C.3       15 UNK         0.1400 
     86 CB         -1.9432  -26.6827  -52.3003 C.3       15 UNK        -0.1800 
     87 C          -2.7216  -24.4929  -51.2988 C.2       15 UNK         0.5000 
     88 O          -3.8054  -23.9261  -51.4175 O.2       15 UNK        -0.5000 
     89 N          -1.5365  -23.8636  -51.3483 N.am      16 UNK        -0.5000 
     90 CA         -1.3020  -22.4835  -51.7966 C.3       16 UNK         0.1400 
     91 CB         -1.8336  -21.4469  -50.7841 C.3       16 UNK        -0.1800 
     92 C          -1.8115  -22.2892  -53.2408 C.2       16 UNK         0.5000 
     93 O          -1.2828  -22.9413  -54.1439 O.2       16 UNK        -0.5000 
     94 N          -2.8349  -21.4505  -53.4498 N.am      17 UNK        -0.5000 
     95 CA         -3.5091  -21.2829  -54.7366 C.3       17 UNK         0.1400 
     96 CB         -4.0182  -19.8374  -54.8675 C.3       17 UNK        -0.1800 
     97 C          -4.6285  -22.3314  -54.8583 C.2       17 UNK         0.5000 
     98 O          -5.8095  -22.0007  -54.7228 O.2       17 UNK        -0.5000 
     99 N          -4.2179  -23.5942  -55.0468 N.am      18 UNK        -0.5000 
    100 CA        -5.0078  -24.8328  -55.1198 C.3       18 UNK         0.1400 
    101 CB        -6.0051  -24.8012  -56.2939 C.3       18 UNK        -0.1800 
    102 C         -5.7045  -25.2091  -53.7968 C.2       18 UNK         0.5000 
    103 O         -5.5250  -26.3269  -53.3124 O.2       18 UNK        -0.5000 
    104 N         -6.4589  -24.2630  -53.2346 N.am      19 UNK        -0.5000 
    105 CA        -7.0763  -24.3227  -51.9122 C.3       19 UNK         0.1400 
    106 CB        -8.4237  -25.0617  -52.0046 C.3       19 UNK        -0.1800 
    107 C         -7.2508  -22.9259  -51.2811 C.2       19 UNK         0.5000 
    108 O         -7.5736  -22.8501  -50.0947 O.2       19 UNK        -0.5000 
    109 N         -7.0739  -21.8462  -52.0586 N.am      20 UNK        -0.5000 
    110 CA        -7.2010  -20.4672  -51.5937 C.3       20 UNK         0.1400 
    111 CB        -7.6771  -19.5940  -52.7649 C.3       20 UNK        -0.1800 
    112 C         -5.8608  -19.9492  -51.0502 C.2       20 UNK         0.5000 
    113 O         -4.8009  -20.3592  -51.5298 O.2       20 UNK        -0.5000 
    114 N         -5.9321  -19.0202  -50.0891 N.am      21 UNK        -0.5000 
    115 CA        -4.7923  -18.3469  -49.4635 C.3       21 UNK         0.1400 
    116 CB        -5.2504  -17.7404  -48.1242 C.3       21 UNK        -0.1800 
    117 C         -4.1417  -17.3118  -50.4038 C.2       21 UNK         0.5000 
    118 O         -4.2523  -16.1054  -50.1779 O.2       21 UNK        -0.5000 
    119 N         -3.4692  -17.8313  -51.4358 N.am      22 UNK        -0.5000 
    120 CA        -2.7060  -17.1120  -52.4682 C.3       22 UNK         0.1400 
    121 C         -3.6047  -16.3570  -53.4949 C.2       22 UNK         0.5000 
    122 N         -3.0152  -15.6802  -54.4723 N.am      22 UNK        -0.7600 
    123 O         -4.8323  -16.4002  -53.4492 O.2       22 UNK        -0.5000 
    124 C124       -1.5685  -16.2159  -51.8922 C.3       23 UNK        -0.0398 
    125 S125       -0.5605  -17.0504  -50.6203 S.3       23 UNK        -0.2404 
    126 C126        0.9479  -17.5041  -51.5202 C.3       23 UNK        -0.0205 
    127 H127       -1.9708  -13.5389  -47.5437 H         1 UNK         0.0600 
    128 H128       -2.3387  -14.0947  -49.1784 H         1 UNK         0.0600 
    129 H129       -2.3045  -12.3649  -48.8168 H         1 UNK         0.0600 
    130 H130        0.1994  -13.9331  -47.1323 H         1 UNK         0.3000 
    131 H131        2.2112  -13.7998  -49.2717 H         1 UNK         0.0600 
    132 H132        2.0347  -15.6875  -47.4362 H         1 UNK         0.0800 
    133 H133        2.7274  -14.5313  -46.3429 H         1 UNK         0.0800 
    134 H134        5.4132  -17.3239  -47.8461 H         1 UNK         0.0800 
    135 H135        4.0561  -17.2403  -46.7525 H         1 UNK         0.0800 
    136 H136        2.5776  -16.2389  -49.8056 H         1 UNK         0.1150 
    137 H137        1.4794  -20.1543  -51.1035 H         1 UNK         0.1150 
    138 H138        4.3003  -19.6844  -47.9109 H         1 UNK         0.1150 
    139 H139        3.5817  -21.9677  -50.2686 H         1 UNK         0.0800 
    140 H140        3.6776  -21.8648  -48.5275 H         1 UNK         0.0800 
    141 H141        0.0834  -20.8659  -48.0629 H         1 UNK         0.0800 
    142 H142        1.5436  -21.2269  -47.1906 H         1 UNK         0.0800 
    143 H143        0.6557  -23.5479  -46.7034 H         1 UNK         0.0600 
    144 H144       -0.1399  -21.1373  -45.4209 H         1 UNK         0.3000 
    145 H145       -1.6674  -22.7078  -42.5779 H         1 UNK         0.0600 
    146 H146       -0.0283  -21.2347  -41.4471 H         1 UNK         0.0600 
    147 H147        0.7895  -22.6277  -42.1386 H         1 UNK         0.0600 
    148 H148        0.8951  -21.0642  -42.9380 H         1 UNK         0.0600 
    149 H149       -1.3217  -19.9654  -43.2679 H         1 UNK         0.3000 
    150 H150       -4.3534  -19.6073  -45.1676 H         1 UNK         0.0600 
    151 H151       -5.0072  -19.3420  -42.7881 H         1 UNK         0.0600 
    152 H152       -4.6405  -17.7781  -43.5024 H         1 UNK         0.0600 
    153 H153       -3.4779  -18.5530  -42.4277 H         1 UNK         0.0600 
    154 H154       -2.3498  -17.7070  -44.5348 H         1 UNK         0.3000 
    155 H155       -0.2102  -18.3549  -47.3528 H         1 UNK         0.0600 
    156 H156       -1.9656  -15.9725  -46.5591 H         1 UNK         0.0600 
    157 H157       -2.1097  -16.8640  -48.0666 H         1 UNK         0.0600 
    158 H158       -0.6298  -16.0037  -47.7134 H         1 UNK         0.0600 
    159 H159       -0.0697  -16.5223  -45.1332 H         1 UNK         0.3000 
    160 H160        1.8176  -18.6280  -42.9639 H         1 UNK         0.0600 
    161 H161        2.6285  -16.1728  -44.6076 H         1 UNK         0.0600 
    162 H162        3.5399  -17.6658  -44.4314 H         1 UNK         0.0600 
    163 H163        3.3105  -16.6141  -43.0446 H         1 UNK         0.0600 
    164 H164        0.8248  -15.9182  -42.8434 H         1 UNK         0.3000 
    165 H165       -2.2976  -16.7205  -41.3259 H         1 UNK         0.0600 
    166 H166       -1.4208  -15.3351  -39.4653 H         1 UNK         0.0600 
    167 H167       -0.7026  -16.9368  -39.4127 H         1 UNK         0.0600 
    168 H168        0.2346  -15.5789  -40.0242 H         1 UNK         0.0600 
    169 H169       -0.9874  -14.2354  -41.7166 H         1 UNK         0.3000 
    170 H170       -1.7203  -13.6828  -45.1186 H         1 UNK         0.0600 
    171 H171       -3.9357  -13.1717  -44.0914 H         1 UNK         0.0600 
    172 H172       -3.1416  -12.4673  -42.6878 H         1 UNK         0.0600 
    173 H173       -2.9739  -11.7136  -44.2741 H         1 UNK         0.0600 
    174 H174       -0.7254  -12.0283  -42.9808 H         1 UNK         0.3000 
    175 H175        1.5749  -11.4394  -43.0688 H         1 UNK         0.0600 
    176 H176        2.1728  -14.1577  -41.7272 H         1 UNK         0.0600 
    177 H177        2.6280  -12.5806  -41.0911 H         1 UNK         0.0600 
    178 H178        0.9424  -13.0289  -41.1715 H         1 UNK         0.0600 
    179 H179        2.9461  -13.2749  -44.6755 H         1 UNK         0.3000 
    180 H180        6.2761  -11.9499  -44.1769 H         1 UNK         0.0600 
    181 H181        4.9357  -14.6491  -44.7668 H         1 UNK         0.0600 
    182 H182        5.9781  -14.3121  -43.3907 H         1 UNK         0.0600 
    183 H183        6.6312  -14.2454  -45.0198 H         1 UNK         0.0600 
    184 H184        4.9452  -12.9300  -46.5189 H         1 UNK         0.3000 
    185 H185        3.8389   -9.8828  -47.8592 H         1 UNK         0.0600 
    186 H186        6.2630   -9.6893  -48.4347 H         1 UNK         0.0600 
    187 H187        6.3458  -11.4210  -48.7357 H         1 UNK         0.0600 
    188 H188        5.3536  -10.3872  -49.7652 H         1 UNK         0.0600 
    189 H189        4.1689  -12.5396  -48.9183 H         1 UNK         0.3000 
    190 H190       -2.3831  -21.6434  -46.9019 H         1 UNK         0.3000 
    191 H191       -3.6520  -23.0441  -48.9469 H         1 UNK         0.0600 
    192 H192       -4.4340  -20.8846  -47.9670 H         1 UNK         0.0600 
    193 H193       -5.7269  -22.0641  -48.0698 H         1 UNK         0.0600 
    194 H194       -4.9684  -21.7310  -46.5193 H         1 UNK         0.0600 
    195 H195       -3.2083  -24.0749  -45.6203 H         1 UNK         0.3000 
    196 H196       -5.1486  -26.2021  -45.6207 H         1 UNK         0.0600 
    197 H197       -3.9731  -26.9338  -43.5857 H         1 UNK         0.0600 
    198 H198       -4.1833  -25.1893  -43.5358 H         1 UNK         0.0600 
    199 H199       -2.6109  -25.8818  -43.9350 H         1 UNK         0.0600 
    200 H200       -1.9289  -25.8752  -46.9842 H         1 UNK         0.3000 
    201 H201       -1.6798  -28.7788  -47.5512 H         1 UNK         0.0600 
    202 H202        0.3779  -27.5989  -46.8297 H         1 UNK         0.0600 
    203 H203        0.2280  -26.4579  -48.1618 H         1 UNK         0.0600 
    204 H204        0.5179  -28.1590  -48.4888 H         1 UNK         0.0600 
    205 H205       -1.7391  -25.6023  -49.2744 H         1 UNK         0.3000 
    206 H206       -3.7202  -26.3652  -51.1249 H         1 UNK         0.0600 
    207 H207       -2.0960  -27.7614  -52.3139 H         1 UNK         0.0600 
    208 H208       -2.3081  -26.3015  -53.2552 H         1 UNK         0.0600 
    209 H209       -0.8693  -26.4988  -52.2605 H         1 UNK         0.0600 
    210 H210       -0.7032  -24.4216  -51.2306 H         1 UNK         0.3000 
    211 H211       -0.2201  -22.3551  -51.8480 H         1 UNK         0.0600 
    212 H212       -2.8867  -21.5925  -50.5596 H         1 UNK         0.0600 
    213 H213       -1.7008  -20.4267  -51.1461 H         1 UNK         0.0600 
    214 H214       -1.2967  -21.5148  -49.8428 H         1 UNK         0.0600 
    215 H215       -3.3217  -21.0643  -52.6457 H         1 UNK         0.3000 
    216 H216       -2.8075  -21.4518  -55.5563 H         1 UNK         0.0600 
    217 H217       -4.5980  -19.7077  -55.7820 H         1 UNK         0.0600 
    218 H218       -3.1860  -19.1362  -54.9135 H         1 UNK         0.0600 
    219 H219       -4.6543  -19.5475  -54.0326 H         1 UNK         0.0600 
    220 H220       -3.2150  -23.7348  -55.0671 H         1 UNK         0.3000 
    221 H221       -4.2880  -25.6259  -55.3284 H         1 UNK         0.0600 
    222 H222       -6.7708  -24.0361  -56.1641 H         1 UNK         0.0600 
    223 H223       -5.4953  -24.6077  -57.2377 H         1 UNK         0.0600 
    224 H224       -6.5178  -25.7588  -56.3919 H         1 UNK         0.0600 
    225 H225       -6.5001  -23.3765  -53.7260 H         1 UNK         0.3000 
    226 H226       -6.4169  -24.8807  -51.2437 H         1 UNK         0.0600 
    227 H227       -8.2923  -26.0821  -52.3645 H         1 UNK         0.0600 
    228 H228       -8.9054  -25.1236  -51.0280 H         1 UNK         0.0600 
    229 H229       -9.1118  -24.5529  -52.6806 H         1 UNK         0.0600 
    230 H230       -6.7232  -21.9439  -53.0033 H         1 UNK         0.3000 
    231 H231       -7.9492  -20.4129  -50.8000 H         1 UNK         0.0600 
    232 H232       -6.9834  -19.6301  -53.6051 H         1 UNK         0.0600 
    233 H233       -7.7731  -18.5499  -52.4642 H         1 UNK         0.0600 
    234 H234       -8.6529  -19.9195  -53.1256 H         1 UNK         0.0600 
    235 H235       -6.8434  -18.7096  -49.7855 H         1 UNK         0.3000 
    236 H236       -4.0228  -19.0887  -49.2418 H         1 UNK         0.0600 
    237 H237       -5.6126  -18.5136  -47.4464 H         1 UNK         0.0600 
    238 H238       -4.4289  -17.2320  -47.6194 H         1 UNK         0.0600 
    239 H239       -6.0503  -17.0123  -48.2632 H         1 UNK         0.0600 
    240 H240       -3.5588  -18.8317  -51.5712 H         1 UNK         0.3000 
    241 H241       -2.2260  -17.9039  -53.0433 H         1 UNK         0.0600 
    242 H242       -3.5944  -15.2022  -55.1452 H         1 UNK         0.3800 
    243 H243       -2.0134  -15.6405  -54.5726 H         1 UNK         0.3800 
    244 H244       -0.9082  -15.8674  -52.6868 H         1 UNK         0.0800 
    245 H245       -1.9894  -15.3168  -51.4398 H         1 UNK         0.0800 
    246 H246        1.3869  -16.6181  -51.9815 H         1 UNK         0.0800 
    247 H247        0.7018  -18.1967  -52.3265 H         1 UNK         0.0800 
@<TRIPOS>BOND
     1    1    2 1    
     2    1  127 1    
     3    1  128 1    
     4    1  129 1    
     5    2    3 2    
     6    2    4 am   BACKBONE|DICT|INTERRES
     7    4    5 1    
     8    4  130 1    
     9    5    6 1    
    10    5   65 1    
    11    5  131 1    
    12    6    7 1    
    13    6  132 1    
    14    6  133 1    
    15    7    8 1    
    16    8    9 1    
    17    8  134 1    
    18    8  135 1    
    19    9   10 ar   
    20    9   14 ar   
    21   10   11 ar   
    22   10  136 1    
    23   11   12 ar   
    24   11  126 1    
    25   12   13 ar   
    26   12  137 1    
    27   13   14 ar   
    28   13   15 1    
    29   14  138 1    
    30   15   16 1    
    31   15  139 1    
    32   15  140 1    
    33   16   17 1    
    34   17   18 1    
    35   17  141 1    
    36   17  142 1    
    37   18   19 1    
    38   18   67 1    
    39   18  143 1    
    40   19   20 am   BACKBONE|DICT|INTERRES
    41   19  144 1    
    42   20   21 2    
    43   20   22 1    
    44   22   23 1    
    45   22   24 1    
    46   22  145 1    
    47   23  146 1    
    48   23  147 1    
    49   23  148 1    
    50   24   25 am   BACKBONE|DICT|INTERRES
    51   24  149 1    
    52   25   26 2    
    53   25   27 1    
    54   27   28 1    
    55   27   29 1    
    56   27  150 1    
    57   28  151 1    
    58   28  152 1    
    59   28  153 1    
    60   29   30 am   BACKBONE|DICT|INTERRES
    61   29  154 1    
    62   30   31 2    
    63   30   32 1    
    64   32   33 1    
    65   32   34 1    
    66   32  155 1    
    67   33  156 1    
    68   33  157 1    
    69   33  158 1    
    70   34   35 am   BACKBONE|DICT|INTERRES
    71   34  159 1    
    72   35   36 2    
    73   35   37 1    
    74   37   38 1    
    75   37   39 1    
    76   37  160 1    
    77   38  161 1    
    78   38  162 1    
    79   38  163 1    
    80   39   40 am   BACKBONE|DICT|INTERRES
    81   39  164 1    
    82   40   41 2    
    83   40   42 1    
    84   42   43 1    
    85   42   44 1    
    86   42  165 1    
    87   43  166 1    
    88   43  167 1    
    89   43  168 1    
    90   44   45 am   BACKBONE|DICT|INTERRES
    91   44  169 1    
    92   45   46 2    
    93   45   47 1    
    94   47   48 1    
    95   47   49 1    
    96   47  170 1    
    97   48  171 1    
    98   48  172 1    
    99   48  173 1    
   100   49   50 am   BACKBONE|DICT|INTERRES
   101   49  174 1    
   102   50   51 2    
   103   50   52 1    
   104   52   53 1    
   105   52   54 1    
   106   52  175 1    
   107   53  176 1    
   108   53  177 1    
   109   53  178 1    
   110   54   55 am   BACKBONE|DICT|INTERRES
   111   54  179 1    
   112   55   56 2    
   113   55   57 1    
   114   57   58 1    
   115   57   59 1    
   116   57  180 1    
   117   58  181 1    
   118   58  182 1    
   119   58  183 1    
   120   59   60 am   BACKBONE|DICT|INTERRES
   121   59  184 1    
   122   60   61 2    
   123   60   62 1    
   124   62   63 1    
   125   62   64 1    
   126   62  185 1    
   127   63  186 1    
   128   63  187 1    
   129   63  188 1    
   130   64   65 am   BACKBONE|DICT|INTERRES
   131   64  189 1    
   132   65   66 2    
   133   67   68 2    
   134   67   69 am   BACKBONE|DICT|INTERRES
   135   69   70 1    
   136   69  190 1    
   137   70   71 1    
   138   70   72 1    
   139   70  191 1    
   140   71  192 1    
   141   71  193 1    
   142   71  194 1    
   143   72   73 2    
   144   72   74 am   BACKBONE|DICT|INTERRES
   145   74   75 1    
   146   74  195 1    
   147   75   76 1    
   148   75   77 1    
   149   75  196 1    
   150   76  197 1    
   151   76  198 1    
   152   76  199 1    
   153   77   78 2    
   154   77   79 am   BACKBONE|DICT|INTERRES
   155   79   80 1    
   156   79  200 1    
   157   80   81 1    
   158   80   82 1    
   159   80  201 1    
   160   81  202 1    
   161   81  203 1    
   162   81  204 1    
   163   82   83 2    
   164   82   84 am   BACKBONE|DICT|INTERRES
   165   84   85 1    
   166   84  205 1    
   167   85   86 1    
   168   85   87 1    
   169   85  206 1    
   170   86  207 1    
   171   86  208 1    
   172   86  209 1    
   173   87   88 2    
   174   87   89 am   BACKBONE|DICT|INTERRES
   175   89   90 1    
   176   89  210 1    
   177   90   91 1    
   178   90   92 1    
   179   90  211 1    
   180   91  212 1    
   181   91  213 1    
   182   91  214 1    
   183   92   93 2    
   184   92   94 am   BACKBONE|DICT|INTERRES
   185   94   95 1    
   186   94  215 1    
   187   95   96 1    
   188   95   97 1    
   189   95  216 1    
   190   96  217 1    
   191   96  218 1    
   192   96  219 1    
   193   97   98 2    
   194   97   99 am   BACKBONE|DICT|INTERRES
   195   99  100 1    
   196   99  220 1    
   197  100  101 1    
   198  100  102 1    
   199  100  221 1    
   200  101  222 1    
   201  101  223 1    
   202  101  224 1    
   203  102  103 2    
   204  102  104 am   BACKBONE|DICT|INTERRES
   205  104  105 1    
   206  104  225 1    
   207  105  106 1    
   208  105  107 1    
   209  105  226 1    
   210  106  227 1    
   211  106  228 1    
   212  106  229 1    
   213  107  108 2    
   214  107  109 am   BACKBONE|DICT|INTERRES
   215  109  110 1    
   216  109  230 1    
   217  110  111 1    
   218  110  112 1    
   219  110  231 1    
   220  111  232 1    
   221  111  233 1    
   222  111  234 1    
   223  112  113 2    
   224  112  114 am   BACKBONE|DICT|INTERRES
   225  114  115 1    
   226  114  235 1    
   227  115  116 1    
   228  115  117 1    
   229  115  236 1    
   230  116  237 1    
   231  116  238 1    
   232  116  239 1    
   233  117  118 2    
   234  117  119 am   BACKBONE|DICT|INTERRES
   235  119  120 1    
   236  119  240 1    
   237  120  121 1    
   238  120  124 1    
   239  120  241 1    
   240  121  122 am   BACKBONE|DICT|INTERRES
   241  121  123 2    
   242  122  242 1    
   243  122  243 1    
   244  124  125 1    
   245  124  244 1    
   246  124  245 1    
   247  125  126 1    
   248  126  246 1    
   249  126  247 1    
@<TRIPOS>SUBSTRUCTURE
     1 UNK         1 GROUP             0       ****    0 ROOT    
