@<TRIPOS>MOLECULE
3R540
247   249    1
SMALL
USER_CHARGES


@<TRIPOS>ATOM
      1 CA          0.0091   -9.3391  -49.4962 C.3       0 UNK        -0.1800 
      2 C           0.8998  -10.1087  -50.4616 C.2       0 UNK         0.5000 
      3 O           1.8210   -9.5313  -51.0404 O.2       0 UNK        -0.5000 
      4 N           0.6231  -11.4050  -50.6415 N.am      1 UNK        -0.5000 
      5 CA          1.4235  -12.3350  -51.4430 C.3       1 UNK         0.1400 
      6 C6          0.5904  -13.5766  -51.8560 C.3       23 UNK        -0.0398 
      7 S7          0.0346  -14.6058  -50.4512 S.3       23 UNK        -0.2404 
      8 C8         -1.6927  -14.9387  -50.9030 C.3       23 UNK        -0.0205 
      9 C9         -2.3245  -15.9282  -49.9380 C.ar      23 UNK        -0.0193 
     10 C10        -3.2625  -15.5085  -48.9893 C.ar      23 UNK        -0.1150 
     11 C11        -3.8555  -16.4311  -48.1195 C.ar      23 UNK        -0.0193 
     12 C12        -3.4905  -17.7786  -48.1959 C.ar      23 UNK        -0.1150 
     13 C13        -2.5418  -18.2045  -49.1294 C.ar      23 UNK        -0.0193 
     14 C14        -1.9690  -17.2770  -50.0010 C.ar      23 UNK        -0.1150 
     15 C15        -2.1257  -19.6623  -49.2060 C.3       23 UNK        -0.0205 
     16 S16        -0.6094  -19.9673  -48.2483 S.3       23 UNK        -0.2404 
     17 C17        -1.2887  -20.3137  -46.5932 C.3       23 UNK        -0.0398 
     18 CA         -1.3050  -21.8320  -46.3068 C.3       11 UNK         0.1400 
     19 N          -1.2542  -22.1271  -44.8748 N.am      11 UNK        -0.5000 
     20 C          -1.0931  -23.3485  -44.3471 C.2       10 UNK         0.5000 
     21 O          -0.9488  -24.3693  -45.0203 O.2       10 UNK        -0.5000 
     22 CA         -1.1751  -23.4474  -42.8160 C.3       10 UNK         0.1400 
     23 CB          0.1537  -23.0377  -42.1621 C.3       10 UNK        -0.1800 
     24 N          -2.2651  -22.6159  -42.3035 N.am      10 UNK        -0.5000 
     25 C          -3.5600  -22.9579  -42.3720 C.2       9 UNK         0.5000 
     26 O          -3.9532  -24.0518  -42.7763 O.2       9 UNK        -0.5000 
     27 CA         -4.5917  -21.8982  -41.9390 C.3       9 UNK         0.1400 
     28 CB         -4.9164  -22.0437  -40.4449 C.3       9 UNK        -0.1800 
     29 N          -4.1527  -20.5268  -42.2024 N.am      9 UNK        -0.5000 
     30 C          -4.0372  -19.9824  -43.4221 C.2       8 UNK         0.5000 
     31 O          -4.3131  -20.5748  -44.4660 O.2       8 UNK        -0.5000 
     32 CA         -3.4520  -18.5572  -43.4854 C.3       8 UNK         0.1400 
     33 CB         -4.5540  -17.4994  -43.3400 C.3       8 UNK        -0.1800 
     34 N          -2.4195  -18.3050  -42.4755 N.am      8 UNK        -0.5000 
     35 C          -1.2594  -18.9667  -42.3973 C.2       7 UNK         0.5000 
     36 O          -0.9635  -19.9115  -43.1314 O.2       7 UNK        -0.5000 
     37 CA         -0.2849  -18.5350  -41.2877 C.3       7 UNK         0.1400 
     38 CB         -0.4086  -19.4728  -40.0770 C.3       7 UNK        -0.1800 
     39 N           1.0970  -18.5492  -41.7669 N.am      7 UNK        -0.5000 
     40 C           1.5740  -17.7175  -42.7013 C.2       6 UNK         0.5000 
     41 O           0.9204  -16.7879  -43.1819 O.2       6 UNK        -0.5000 
     42 CA          3.0057  -17.9975  -43.1914 C.3       6 UNK         0.1400 
     43 CB          3.0155  -19.1918  -44.1609 C.3       6 UNK        -0.1800 
     44 N           3.5496  -16.8257  -43.8755 N.am      6 UNK        -0.5000 
     45 C           4.1814  -15.8123  -43.2653 C.2       5 UNK         0.5000 
     46 O           4.4889  -15.8224  -42.0723 O.2       5 UNK        -0.5000 
     47 CA          4.5278  -14.5728  -44.1190 C.3       5 UNK         0.1400 
     48 CB          5.9735  -14.6582  -44.6317 C.3       5 UNK        -0.1800 
     49 N           3.6320  -14.4008  -45.2617 N.am      5 UNK        -0.5000 
     50 C           2.3385  -14.0585  -45.1795 C.2       4 UNK         0.5000 
     51 O           1.8082  -13.6633  -44.1406 O.2       4 UNK        -0.5000 
     52 CA          1.4881  -14.1886  -46.4624 C.3       4 UNK         0.1400 
     53 CB          0.9896  -12.8117  -46.9295 C.3       4 UNK        -0.1800 
     54 N           2.1639  -14.8688  -47.5763 N.am      4 UNK        -0.5000 
     55 C           2.5044  -16.1682  -47.5873 C.2       3 UNK         0.5000 
     56 O           2.3495  -16.9078  -46.6165 O.2       3 UNK        -0.5000 
     57 CA          3.1530  -16.7477  -48.8594 C.3       3 UNK         0.1400 
     58 CB          2.2104  -17.7508  -49.5353 C.3       3 UNK        -0.1800 
     59 N           3.5459  -15.7319  -49.8352 N.am      3 UNK        -0.5000 
     60 C           4.6728  -15.0094  -49.7719 C.2       2 UNK         0.5000 
     61 O           5.5137  -15.1348  -48.8811 O.2       2 UNK        -0.5000 
     62 CA          4.8850  -13.9529  -50.8780 C.3       2 UNK         0.1400 
     63 CB          5.7230  -14.5405  -52.0238 C.3       2 UNK        -0.1800 
     64 N           3.6367  -13.4109  -51.4286 N.am      2 UNK        -0.5000 
     65 C           2.7287  -12.7324  -50.7134 C.2       1 UNK         0.5000 
     66 O           2.8762  -12.4797  -49.5156 O.2       1 UNK        -0.5000 
     67 C          -2.4758  -22.5434  -47.0192 C.2       11 UNK         0.5000 
     68 O          -2.3081  -22.9815  -48.1560 O.2       11 UNK        -0.5000 
     69 N          -3.6107  -22.7111  -46.3254 N.am      12 UNK        -0.5000 
     70 CA         -4.7659  -23.4789  -46.7945 C.3       12 UNK         0.1400 
     71 CB         -5.9166  -23.3454  -45.7860 C.3       12 UNK        -0.1800 
     72 C          -4.4577  -24.9673  -47.0616 C.2       12 UNK         0.5000 
     73 O          -5.1051  -25.5697  -47.9176 O.2       12 UNK        -0.5000 
     74 N          -3.4782  -25.5309  -46.3415 N.am      13 UNK        -0.5000 
     75 CA         -2.9818  -26.8881  -46.5554 C.3       13 UNK         0.1400 
     76 CB         -2.5308  -27.4849  -45.2127 C.3       13 UNK        -0.1800 
     77 C          -1.8334  -26.9113  -47.5795 C.2       13 UNK         0.5000 
     78 O          -1.8064  -27.7960  -48.4357 O.2       13 UNK        -0.5000 
     79 N          -0.8995  -25.9554  -47.4662 N.am      14 UNK        -0.5000 
     80 CA          0.3100  -25.8783  -48.2888 C.3       14 UNK         0.1400 
     81 CB          1.3067  -24.9083  -47.6358 C.3       14 UNK        -0.1800 
     82 C           0.0509  -25.4721  -49.7519 C.2       14 UNK         0.5000 
     83 O           0.7251  -25.9892  -50.6435 O.2       14 UNK        -0.5000 
     84 N          -0.9008  -24.5509  -49.9650 N.am      15 UNK        -0.5000 
     85 CA         -1.2774  -23.9352  -51.2421 C.3       15 UNK         0.1400 
     86 CB         -2.0027  -24.9520  -52.1465 C.3       15 UNK        -0.1800 
     87 C          -0.0974  -23.2208  -51.9365 C.2       15 UNK         0.5000 
     88 O           0.1277  -23.4008  -53.1355 O.2       15 UNK        -0.5000 
     89 N           0.6497  -22.4334  -51.1529 N.am      16 UNK        -0.5000 
     90 CA          1.7397  -21.5870  -51.6293 C.3       16 UNK         0.1400 
     91 CB          2.7210  -21.3478  -50.4719 C.3       16 UNK        -0.1800 
     92 C           1.1797  -20.2546  -52.1542 C.2       16 UNK         0.5000 
     93 O           0.2913  -19.6841  -51.5233 O.2       16 UNK        -0.5000 
     94 N           1.7123  -19.7743  -53.2859 N.am      17 UNK        -0.5000 
     95 CA          1.3748  -18.5323  -54.0035 C.3       17 UNK         0.1400 
     96 CB          1.6520  -17.2845  -53.1415 C.3       17 UNK        -0.1800 
     97 C          -0.0493  -18.4831  -54.6003 C.2       17 UNK         0.5000 
     98 O          -0.1991  -18.0933  -55.7592 O.2       17 UNK        -0.5000 
     99 N          -1.0562  -18.8839  -53.8205 N.am      18 UNK        -0.5000 
    100 CA        -2.4549  -19.0168  -54.2085 C.3       18 UNK         0.1400 
    101 CB        -3.2953  -18.0218  -53.3932 C.3       18 UNK        -0.1800 
    102 C         -2.9143  -20.4555  -53.9331 C.2       18 UNK         0.5000 
    103 O         -2.3647  -21.1249  -53.0541 O.2       18 UNK        -0.5000 
    104 N         -3.9361  -20.9021  -54.6730 N.am      19 UNK        -0.5000 
    105 CA        -4.5419  -22.2313  -54.5745 C.3       19 UNK         0.1400 
    106 CB        -5.3563  -22.4976  -55.8530 C.3       19 UNK        -0.1800 
    107 C         -5.3892  -22.3809  -53.2939 C.2       19 UNK         0.5000 
    108 O         -6.6201  -22.3672  -53.3589 O.2       19 UNK        -0.5000 
    109 N         -4.6996  -22.4720  -52.1493 N.am      20 UNK        -0.5000 
    110 CA        -5.1885  -22.5573  -50.7675 C.3       20 UNK         0.1400 
    111 CB        -6.1315  -23.7583  -50.5601 C.3       20 UNK        -0.1800 
    112 C         -5.8162  -21.2458  -50.2641 C.2       20 UNK         0.5000 
    113 O         -5.3987  -20.7410  -49.2218 O.2       20 UNK        -0.5000 
    114 N         -6.7793  -20.7092  -51.0255 N.am      21 UNK        -0.5000 
    115 CA        -7.4697  -19.4342  -50.8248 C.3       21 UNK         0.1400 
    116 CB        -6.5388  -18.2776  -51.2583 C.3       21 UNK        -0.1800 
    117 C         -8.0358  -19.2907  -49.3941 C.2       21 UNK         0.5000 
    118 O         -8.8664  -20.1034  -48.9837 O.2       21 UNK        -0.5000 
    119 N         -7.5684  -18.2715  -48.6701 N.am      22 UNK        -0.5000 
    120 CA        -7.8569  -17.9909  -47.2588 C.3       22 UNK         0.1400 
    121 C         -7.0956  -18.8881  -46.2388 C.2       22 UNK         0.5000 
    122 N         -6.1369  -19.7151  -46.6356 N.am      22 UNK        -0.7600 
    123 O         -7.3926  -18.8337  -45.0492 O.2       22 UNK        -0.5000 
    124 C124       -7.7034  -16.4729  -46.9273 C.3       23 UNK        -0.0398 
    125 S125       -6.4612  -15.5556  -47.9159 S.3       23 UNK        -0.2404 
    126 C126       -4.8886  -15.9711  -47.1006 C.3       23 UNK        -0.0205 
    127 H127       -0.4816   -8.5143  -50.0130 H         1 UNK         0.0600 
    128 H128        0.6067   -8.9272  -48.6830 H         1 UNK         0.0600 
    129 H129       -0.7620   -9.9757  -49.0614 H         1 UNK         0.0600 
    130 H130       -0.1237  -11.8309  -50.1122 H         1 UNK         0.3000 
    131 H131        1.7172  -11.8179  -52.3591 H         1 UNK         0.0600 
    132 H132       -0.2795  -13.2470  -52.4258 H         1 UNK         0.0800 
    133 H133        1.1565  -14.2098  -52.5399 H         1 UNK         0.0800 
    134 H134       -1.7316  -15.3472  -51.9139 H         1 UNK         0.0800 
    135 H135       -2.2527  -14.0025  -50.9196 H         1 UNK         0.0800 
    136 H136       -3.5428  -14.4661  -48.9334 H         1 UNK         0.1150 
    137 H137       -3.9390  -18.4968  -47.5264 H         1 UNK         0.1150 
    138 H138       -1.2347  -17.6052  -50.7238 H         1 UNK         0.1150 
    139 H139       -2.9254  -20.3098  -48.8518 H         1 UNK         0.0800 
    140 H140       -1.9571  -19.9418  -50.2466 H         1 UNK         0.0800 
    141 H141       -2.2761  -19.8675  -46.4687 H         1 UNK         0.0800 
    142 H142       -0.6389  -19.8044  -45.8799 H         1 UNK         0.0800 
    143 H143       -0.3864  -22.2540  -46.7163 H         1 UNK         0.0600 
    144 H144       -1.3107  -21.3305  -44.2442 H         1 UNK         0.3000 
    145 H145       -1.3709  -24.4897  -42.5548 H         1 UNK         0.0600 
    146 H146        0.0995  -23.1185  -41.0764 H         1 UNK         0.0600 
    147 H147        0.9642  -23.6866  -42.4960 H         1 UNK         0.0600 
    148 H148        0.4353  -22.0142  -42.4088 H         1 UNK         0.0600 
    149 H149       -2.0230  -21.6803  -42.0117 H         1 UNK         0.3000 
    150 H150       -5.5071  -22.0771  -42.5076 H         1 UNK         0.0600 
    151 H151       -5.2702  -23.0505  -40.2187 H         1 UNK         0.0600 
    152 H152       -5.7009  -21.3497  -40.1424 H         1 UNK         0.0600 
    153 H153       -4.0414  -21.8553  -39.8216 H         1 UNK         0.0600 
    154 H154       -3.9015  -19.9665  -41.4015 H         1 UNK         0.3000 
    155 H155       -2.9923  -18.4355  -44.4684 H         1 UNK         0.0600 
    156 H156       -5.0516  -17.5635  -42.3717 H         1 UNK         0.0600 
    157 H157       -4.1520  -16.4918  -43.4474 H         1 UNK         0.0600 
    158 H158       -5.3152  -17.6223  -44.1077 H         1 UNK         0.0600 
    159 H159       -2.5961  -17.5464  -41.8328 H         1 UNK         0.3000 
    160 H160       -0.5296  -17.5189  -40.9710 H         1 UNK         0.0600 
    161 H161       -0.1573  -20.5023  -40.3350 H         1 UNK         0.0600 
    162 H162       -1.4258  -19.4723  -39.6832 H         1 UNK         0.0600 
    163 H163        0.2513  -19.1602  -39.2676 H         1 UNK         0.0600 
    164 H164        1.6765  -19.3094  -41.4432 H         1 UNK         0.3000 
    165 H165        3.6309  -18.2436  -42.3305 H         1 UNK         0.0600 
    166 H166        4.0149  -19.3725  -44.5566 H         1 UNK         0.0600 
    167 H167        2.6938  -20.1060  -43.6606 H         1 UNK         0.0600 
    168 H168        2.3438  -19.0326  -45.0053 H         1 UNK         0.0600 
    169 H169        3.2523  -16.7111  -44.8394 H         1 UNK         0.3000 
    170 H170        4.4414  -13.6928  -43.4784 H         1 UNK         0.0600 
    171 H171        6.6760  -14.7650  -43.8041 H         1 UNK         0.0600 
    172 H172        6.1151  -15.5120  -45.2958 H         1 UNK         0.0600 
    173 H173        6.2519  -13.7576  -45.1794 H         1 UNK         0.0600 
    174 H174        3.9859  -14.6877  -46.1626 H         1 UNK         0.3000 
    175 H175        0.6137  -14.7881  -46.2005 H         1 UNK         0.0600 
    176 H176        0.3829  -12.8929  -47.8313 H         1 UNK         0.0600 
    177 H177        1.8181  -12.1346  -47.1383 H         1 UNK         0.0600 
    178 H178        0.3708  -12.3410  -46.1648 H         1 UNK         0.0600 
    179 H179        2.3583  -14.3018  -48.3925 H         1 UNK         0.3000 
    180 H180        4.0452  -17.2934  -48.5448 H         1 UNK         0.0600 
    181 H181        1.2732  -17.2883  -49.8447 H         1 UNK         0.0600 
    182 H182        1.9592  -18.5630  -48.8536 H         1 UNK         0.0600 
    183 H183        2.6742  -18.1995  -50.4128 H         1 UNK         0.0600 
    184 H184        2.8957  -15.5516  -50.5853 H         1 UNK         0.3000 
    185 H185        5.4425  -13.1246  -50.4357 H         1 UNK         0.0600 
    186 H186        6.6716  -14.9314  -51.6533 H         1 UNK         0.0600 
    187 H187        5.2035  -15.3592  -52.5236 H         1 UNK         0.0600 
    188 H188        5.9562  -13.7826  -52.7719 H         1 UNK         0.0600 
    189 H189        3.4694  -13.5827  -52.4095 H         1 UNK         0.3000 
    190 H190       -3.7026  -22.2525  -45.4257 H         1 UNK         0.3000 
    191 H191       -5.0880  -23.0338  -47.7357 H         1 UNK         0.0600 
    192 H192       -5.6549  -23.7730  -44.8185 H         1 UNK         0.0600 
    193 H193       -6.8075  -23.8636  -46.1425 H         1 UNK         0.0600 
    194 H194       -6.1927  -22.3041  -45.6276 H         1 UNK         0.0600 
    195 H195       -2.9719  -24.9628  -45.6747 H         1 UNK         0.3000 
    196 H196       -3.7871  -27.5175  -46.9403 H         1 UNK         0.0600 
    197 H197       -2.1857  -28.5117  -45.3402 H         1 UNK         0.0600 
    198 H198       -3.3520  -27.5044  -44.4960 H         1 UNK         0.0600 
    199 H199       -1.7130  -26.9183  -44.7671 H         1 UNK         0.0600 
    200 H200       -0.9717  -25.2943  -46.6983 H         1 UNK         0.3000 
    201 H201        0.7681  -26.8697  -48.2988 H         1 UNK         0.0600 
    202 H202        1.5265  -25.1973  -46.6078 H         1 UNK         0.0600 
    203 H203        0.9258  -23.8880  -47.6240 H         1 UNK         0.0600 
    204 H204        2.2516  -24.8963  -48.1805 H         1 UNK         0.0600 
    205 H205       -1.3880  -24.1656  -49.1573 H         1 UNK         0.3000 
    206 H206       -1.9920  -23.1492  -50.9962 H         1 UNK         0.0600 
    207 H207       -2.3636  -24.4756  -53.0583 H         1 UNK         0.0600 
    208 H208       -1.3469  -25.7711  -52.4425 H         1 UNK         0.0600 
    209 H209       -2.8681  -25.3796  -51.6398 H         1 UNK         0.0600 
    210 H210        0.3616  -22.2913  -50.1960 H         1 UNK         0.3000 
    211 H211        2.2734  -22.0975  -52.4337 H         1 UNK         0.0600 
    212 H212        2.2314  -20.8700  -49.6225 H         1 UNK         0.0600 
    213 H213        3.5446  -20.7040  -50.7828 H         1 UNK         0.0600 
    214 H214        3.1534  -22.2856  -50.1228 H         1 UNK         0.0600 
    215 H215        2.4200  -20.3350  -53.7395 H         1 UNK         0.3000 
    216 H216        2.0634  -18.4953  -54.8492 H         1 UNK         0.0600 
    217 H217        1.5256  -16.3754  -53.7299 H         1 UNK         0.0600 
    218 H218        2.6728  -17.2849  -52.7597 H         1 UNK         0.0600 
    219 H219        0.9718  -17.2158  -52.2923 H         1 UNK         0.0600 
    220 H220       -0.8187  -19.2472  -52.8983 H         1 UNK         0.3000 
    221 H221       -2.5797  -18.8061  -55.2726 H         1 UNK         0.0600 
    222 H222       -3.2924  -18.2671  -52.3305 H         1 UNK         0.0600 
    223 H223       -2.9219  -17.0038  -53.5038 H         1 UNK         0.0600 
    224 H224       -4.3325  -18.0246  -53.7281 H         1 UNK         0.0600 
    225 H225       -4.3550  -20.2778  -55.3472 H         1 UNK         0.3000 
    226 H226       -3.7439  -22.9754  -54.5315 H         1 UNK         0.0600 
    227 H227       -4.7209  -22.4672  -56.7383 H         1 UNK         0.0600 
    228 H228       -5.8201  -23.4844  -55.8217 H         1 UNK         0.0600 
    229 H229       -6.1526  -21.7642  -55.9865 H         1 UNK         0.0600 
    230 H230       -3.7005  -22.3129  -52.2375 H         1 UNK         0.3000 
    231 H231       -4.3045  -22.7322  -50.1523 H         1 UNK         0.0600 
    232 H232       -6.4642  -23.8183  -49.5241 H         1 UNK         0.0600 
    233 H233       -5.6281  -24.6963  -50.7944 H         1 UNK         0.0600 
    234 H234       -7.0292  -23.6955  -51.1744 H         1 UNK         0.0600 
    235 H235       -7.0350  -21.2268  -51.8616 H         1 UNK         0.3000 
    236 H236       -8.3307  -19.4367  -51.4945 H         1 UNK         0.0600 
    237 H237       -6.2436  -18.3945  -52.3004 H         1 UNK         0.0600 
    238 H238       -7.0378  -17.3110  -51.1778 H         1 UNK         0.0600 
    239 H239       -5.6257  -18.2366  -50.6620 H         1 UNK         0.0600 
    240 H240       -6.8755  -17.6644  -49.0848 H         1 UNK         0.3000 
    241 H241       -8.9077  -18.2396  -47.0980 H         1 UNK         0.0600 
    242 H242       -5.6301  -20.2343  -45.9289 H         1 UNK         0.3800 
    243 H243       -5.9261  -19.8665  -47.6184 H         1 UNK         0.3800 
    244 H244       -8.6587  -15.9861  -47.1270 H         1 UNK         0.0800 
    245 H245       -7.5206  -16.2950  -45.8658 H         1 UNK         0.0800 
    246 H246       -4.5159  -15.0936  -46.5706 H         1 UNK         0.0800 
    247 H247       -5.0441  -16.7413  -46.3455 H         1 UNK         0.0800 
@<TRIPOS>BOND
     1    1    2 1    
     2    1  127 1    
     3    1  128 1    
     4    1  129 1    
     5    2    3 2    
     6    2    4 am   BACKBONE|DICT|INTERRES
     7    4    5 1    
     8    4  130 1    
     9    5    6 1    
    10    5   65 1    
    11    5  131 1    
    12    6    7 1    
    13    6  132 1    
    14    6  133 1    
    15    7    8 1    
    16    8    9 1    
    17    8  134 1    
    18    8  135 1    
    19    9   10 ar   
    20    9   14 ar   
    21   10   11 ar   
    22   10  136 1    
    23   11   12 ar   
    24   11  126 1    
    25   12   13 ar   
    26   12  137 1    
    27   13   14 ar   
    28   13   15 1    
    29   14  138 1    
    30   15   16 1    
    31   15  139 1    
    32   15  140 1    
    33   16   17 1    
    34   17   18 1    
    35   17  141 1    
    36   17  142 1    
    37   18   19 1    
    38   18   67 1    
    39   18  143 1    
    40   19   20 am   BACKBONE|DICT|INTERRES
    41   19  144 1    
    42   20   21 2    
    43   20   22 1    
    44   22   23 1    
    45   22   24 1    
    46   22  145 1    
    47   23  146 1    
    48   23  147 1    
    49   23  148 1    
    50   24   25 am   BACKBONE|DICT|INTERRES
    51   24  149 1    
    52   25   26 2    
    53   25   27 1    
    54   27   28 1    
    55   27   29 1    
    56   27  150 1    
    57   28  151 1    
    58   28  152 1    
    59   28  153 1    
    60   29   30 am   BACKBONE|DICT|INTERRES
    61   29  154 1    
    62   30   31 2    
    63   30   32 1    
    64   32   33 1    
    65   32   34 1    
    66   32  155 1    
    67   33  156 1    
    68   33  157 1    
    69   33  158 1    
    70   34   35 am   BACKBONE|DICT|INTERRES
    71   34  159 1    
    72   35   36 2    
    73   35   37 1    
    74   37   38 1    
    75   37   39 1    
    76   37  160 1    
    77   38  161 1    
    78   38  162 1    
    79   38  163 1    
    80   39   40 am   BACKBONE|DICT|INTERRES
    81   39  164 1    
    82   40   41 2    
    83   40   42 1    
    84   42   43 1    
    85   42   44 1    
    86   42  165 1    
    87   43  166 1    
    88   43  167 1    
    89   43  168 1    
    90   44   45 am   BACKBONE|DICT|INTERRES
    91   44  169 1    
    92   45   46 2    
    93   45   47 1    
    94   47   48 1    
    95   47   49 1    
    96   47  170 1    
    97   48  171 1    
    98   48  172 1    
    99   48  173 1    
   100   49   50 am   BACKBONE|DICT|INTERRES
   101   49  174 1    
   102   50   51 2    
   103   50   52 1    
   104   52   53 1    
   105   52   54 1    
   106   52  175 1    
   107   53  176 1    
   108   53  177 1    
   109   53  178 1    
   110   54   55 am   BACKBONE|DICT|INTERRES
   111   54  179 1    
   112   55   56 2    
   113   55   57 1    
   114   57   58 1    
   115   57   59 1    
   116   57  180 1    
   117   58  181 1    
   118   58  182 1    
   119   58  183 1    
   120   59   60 am   BACKBONE|DICT|INTERRES
   121   59  184 1    
   122   60   61 2    
   123   60   62 1    
   124   62   63 1    
   125   62   64 1    
   126   62  185 1    
   127   63  186 1    
   128   63  187 1    
   129   63  188 1    
   130   64   65 am   BACKBONE|DICT|INTERRES
   131   64  189 1    
   132   65   66 2    
   133   67   68 2    
   134   67   69 am   BACKBONE|DICT|INTERRES
   135   69   70 1    
   136   69  190 1    
   137   70   71 1    
   138   70   72 1    
   139   70  191 1    
   140   71  192 1    
   141   71  193 1    
   142   71  194 1    
   143   72   73 2    
   144   72   74 am   BACKBONE|DICT|INTERRES
   145   74   75 1    
   146   74  195 1    
   147   75   76 1    
   148   75   77 1    
   149   75  196 1    
   150   76  197 1    
   151   76  198 1    
   152   76  199 1    
   153   77   78 2    
   154   77   79 am   BACKBONE|DICT|INTERRES
   155   79   80 1    
   156   79  200 1    
   157   80   81 1    
   158   80   82 1    
   159   80  201 1    
   160   81  202 1    
   161   81  203 1    
   162   81  204 1    
   163   82   83 2    
   164   82   84 am   BACKBONE|DICT|INTERRES
   165   84   85 1    
   166   84  205 1    
   167   85   86 1    
   168   85   87 1    
   169   85  206 1    
   170   86  207 1    
   171   86  208 1    
   172   86  209 1    
   173   87   88 2    
   174   87   89 am   BACKBONE|DICT|INTERRES
   175   89   90 1    
   176   89  210 1    
   177   90   91 1    
   178   90   92 1    
   179   90  211 1    
   180   91  212 1    
   181   91  213 1    
   182   91  214 1    
   183   92   93 2    
   184   92   94 am   BACKBONE|DICT|INTERRES
   185   94   95 1    
   186   94  215 1    
   187   95   96 1    
   188   95   97 1    
   189   95  216 1    
   190   96  217 1    
   191   96  218 1    
   192   96  219 1    
   193   97   98 2    
   194   97   99 am   BACKBONE|DICT|INTERRES
   195   99  100 1    
   196   99  220 1    
   197  100  101 1    
   198  100  102 1    
   199  100  221 1    
   200  101  222 1    
   201  101  223 1    
   202  101  224 1    
   203  102  103 2    
   204  102  104 am   BACKBONE|DICT|INTERRES
   205  104  105 1    
   206  104  225 1    
   207  105  106 1    
   208  105  107 1    
   209  105  226 1    
   210  106  227 1    
   211  106  228 1    
   212  106  229 1    
   213  107  108 2    
   214  107  109 am   BACKBONE|DICT|INTERRES
   215  109  110 1    
   216  109  230 1    
   217  110  111 1    
   218  110  112 1    
   219  110  231 1    
   220  111  232 1    
   221  111  233 1    
   222  111  234 1    
   223  112  113 2    
   224  112  114 am   BACKBONE|DICT|INTERRES
   225  114  115 1    
   226  114  235 1    
   227  115  116 1    
   228  115  117 1    
   229  115  236 1    
   230  116  237 1    
   231  116  238 1    
   232  116  239 1    
   233  117  118 2    
   234  117  119 am   BACKBONE|DICT|INTERRES
   235  119  120 1    
   236  119  240 1    
   237  120  121 1    
   238  120  124 1    
   239  120  241 1    
   240  121  122 am   BACKBONE|DICT|INTERRES
   241  121  123 2    
   242  122  242 1    
   243  122  243 1    
   244  124  125 1    
   245  124  244 1    
   246  124  245 1    
   247  125  126 1    
   248  126  246 1    
   249  126  247 1    
@<TRIPOS>SUBSTRUCTURE
     1 UNK         1 GROUP             0       ****    0 ROOT    
