@<TRIPOS>MOLECULE
3R540
247   249    1
SMALL
USER_CHARGES


@<TRIPOS>ATOM
      1 CA         -3.9639   -7.9687  -47.2143 C.3       0 UNK        -0.1800 
      2 C          -3.1824   -9.2098  -46.8063 C.2       0 UNK         0.5000 
      3 O          -2.0796   -9.0913  -46.2717 O.2       0 UNK        -0.5000 
      4 N          -3.7435  -10.3968  -47.0647 N.am      1 UNK        -0.5000 
      5 CA         -3.1631  -11.6931  -46.6995 C.3       1 UNK         0.1400 
      6 C6         -3.8293  -12.8552  -47.4745 C.3       23 UNK        -0.0398 
      7 S7         -3.4763  -12.7581  -49.2596 S.3       23 UNK        -0.2404 
      8 C8         -4.4972  -14.1238  -49.8968 C.3       23 UNK        -0.0205 
      9 C9         -4.0209  -15.4843  -49.4068 C.ar      23 UNK        -0.0193 
     10 C10        -2.7821  -15.9850  -49.8190 C.ar      23 UNK        -0.1150 
     11 C11        -2.3473  -17.2411  -49.3896 C.ar      23 UNK        -0.0193 
     12 C12        -3.1709  -18.0076  -48.5628 C.ar      23 UNK        -0.1150 
     13 C13        -4.4101  -17.5192  -48.1382 C.ar      23 UNK        -0.0193 
     14 C14        -4.8261  -16.2522  -48.5589 C.ar      23 UNK        -0.1150 
     15 C15        -5.3191  -18.3759  -47.2665 C.3       23 UNK        -0.0205 
     16 S16        -4.9657  -18.2317  -45.4797 S.3       23 UNK        -0.2404 
     17 C17        -3.2570  -18.8572  -45.3050 C.3       23 UNK        -0.0398 
     18 CA         -3.0624  -20.3338  -45.7344 C.3       11 UNK         0.1400 
     19 N          -1.6781  -20.6214  -46.1185 N.am      11 UNK        -0.5000 
     20 C          -1.2719  -21.7304  -46.7506 C.2       10 UNK         0.5000 
     21 O          -2.0392  -22.6168  -47.1211 O.2       10 UNK        -0.5000 
     22 CA          0.2390  -21.9031  -46.9830 C.3       10 UNK         0.1400 
     23 CB          0.6820  -21.1621  -48.2477 C.3       10 UNK        -0.1800 
     24 N           1.0395  -21.4642  -45.8413 N.am      10 UNK        -0.5000 
     25 C           1.0235  -22.0647  -44.6430 C.2       9 UNK         0.5000 
     26 O           0.3863  -23.0899  -44.4040 O.2       9 UNK        -0.5000 
     27 CA          1.8054  -21.3778  -43.5092 C.3       9 UNK         0.1400 
     28 CB          3.2999  -21.7224  -43.5884 C.3       9 UNK        -0.1800 
     29 N           1.6347  -19.9245  -43.5092 N.am      9 UNK        -0.5000 
     30 C           0.4662  -19.2927  -43.3274 C.2       8 UNK         0.5000 
     31 O          -0.5956  -19.8685  -43.0899 O.2       8 UNK        -0.5000 
     32 CA          0.4732  -17.7644  -43.5025 C.3       8 UNK         0.1400 
     33 CB          1.0236  -17.0683  -42.2488 C.3       8 UNK        -0.1800 
     34 N           1.2319  -17.3435  -44.6820 N.am      8 UNK        -0.5000 
     35 C           0.9027  -17.6531  -45.9443 C.2       7 UNK         0.5000 
     36 O          -0.0985  -18.2962  -46.2474 O.2       7 UNK        -0.5000 
     37 CA          1.8772  -17.2204  -47.0513 C.3       7 UNK         0.1400 
     38 CB          1.6055  -15.7748  -47.4956 C.3       7 UNK        -0.1800 
     39 N           3.2695  -17.3728  -46.6327 N.am      7 UNK        -0.5000 
     40 C           3.8681  -18.5590  -46.4485 C.2       6 UNK         0.5000 
     41 O           3.3221  -19.6414  -46.6644 O.2       6 UNK        -0.5000 
     42 CA          5.2990  -18.5271  -45.8806 C.3       6 UNK         0.1400 
     43 CB          6.3217  -18.2782  -46.9990 C.3       6 UNK        -0.1800 
     44 N           5.4624  -17.5128  -44.8372 N.am      6 UNK        -0.5000 
     45 C           4.8565  -17.5529  -43.6418 C.2       5 UNK         0.5000 
     46 O           4.1375  -18.4809  -43.2738 O.2       5 UNK        -0.5000 
     47 CA          5.0432  -16.3285  -42.7243 C.3       5 UNK         0.1400 
     48 CB          6.2842  -16.5054  -41.8372 C.3       5 UNK        -0.1800 
     49 N           5.1436  -15.0602  -43.4539 N.am      5 UNK        -0.5000 
     50 C           4.1844  -14.5542  -44.2396 C.2       4 UNK         0.5000 
     51 O           3.0993  -15.1086  -44.4386 O.2       4 UNK        -0.5000 
     52 CA          4.5153  -13.2423  -44.9634 C.3       4 UNK         0.1400 
     53 CB          5.5677  -13.4794  -46.0645 C.3       4 UNK        -0.1800 
     54 N           3.2925  -12.7122  -45.5558 N.am      4 UNK        -0.5000 
     55 C           3.0943  -11.4535  -45.9625 C.2       3 UNK         0.5000 
     56 O           3.9369  -10.5620  -45.8511 O.2       3 UNK        -0.5000 
     57 CA          1.7386  -11.1300  -46.6222 C.3       3 UNK         0.1400 
     58 CB          1.8992  -11.0280  -48.1472 C.3       3 UNK        -0.1800 
     59 N           0.6933  -12.1147  -46.3316 N.am      3 UNK        -0.5000 
     60 C          -0.0135  -12.1489  -45.1962 C.2       2 UNK         0.5000 
     61 O           0.1681  -11.3854  -44.2460 O.2       2 UNK        -0.5000 
     62 CA         -1.1058  -13.2289  -45.1099 C.3       2 UNK         0.1400 
     63 CB         -0.6347  -14.3907  -44.2281 C.3       2 UNK        -0.1800 
     64 N          -2.3405  -12.6806  -44.5475 N.am      2 UNK        -0.5000 
     65 C          -3.2634  -11.9335  -45.1715 C.2       1 UNK         0.5000 
     66 O          -4.2250  -11.4702  -44.5554 O.2       1 UNK        -0.5000 
     67 C          -3.5925  -21.3347  -44.6889 C.2       11 UNK         0.5000 
     68 O          -4.7068  -21.8359  -44.8449 O.2       11 UNK        -0.5000 
     69 N          -2.7561  -21.6774  -43.6980 N.am      12 UNK        -0.5000 
     70 CA         -3.0114  -22.7346  -42.7147 C.3       12 UNK         0.1400 
     71 CB         -1.9134  -22.7082  -41.6412 C.3       12 UNK        -0.1800 
     72 C          -3.1277  -24.1373  -43.3482 C.2       12 UNK         0.5000 
     73 O          -3.8790  -24.9710  -42.8429 O.2       12 UNK        -0.5000 
     74 N          -2.4340  -24.3503  -44.4741 N.am      13 UNK        -0.5000 
     75 CA         -2.5198  -25.5333  -45.3322 C.3       13 UNK         0.1400 
     76 CB         -1.1419  -25.7870  -45.9699 C.3       13 UNK        -0.1800 
     77 C          -3.6363  -25.4176  -46.3963 C.2       13 UNK         0.5000 
     78 O          -3.5324  -26.0428  -47.4525 O.2       13 UNK        -0.5000 
     79 N          -4.6800  -24.6240  -46.1114 N.am      14 UNK        -0.5000 
     80 CA         -5.8847  -24.4052  -46.9178 C.3       14 UNK         0.1400 
     81 CB         -6.7170  -25.7016  -47.0156 C.3       14 UNK        -0.1800 
     82 C          -5.5813  -23.7805  -48.2931 C.2       14 UNK         0.5000 
     83 O          -6.0526  -24.2791  -49.3148 O.2       14 UNK        -0.5000 
     84 N          -4.7784  -22.7077  -48.2886 N.am      15 UNK        -0.5000 
     85 CA         -4.2975  -21.9627  -49.4602 C.3       15 UNK         0.1400 
     86 CB         -5.4646  -21.2623  -50.1867 C.3       15 UNK        -0.1800 
     87 C          -3.4468  -22.8516  -50.3898 C.2       15 UNK         0.5000 
     88 O          -3.6814  -22.9006  -51.6002 O.2       15 UNK        -0.5000 
     89 N          -2.4932  -23.5634  -49.7717 N.am      16 UNK        -0.5000 
     90 CA         -1.5927  -24.5547  -50.3636 C.3       16 UNK         0.1400 
     91 CB         -0.5790  -23.8709  -51.3056 C.3       16 UNK        -0.1800 
     92 C          -2.3672  -25.7094  -51.0312 C.2       16 UNK         0.5000 
     93 O          -2.1738  -25.9823  -52.2160 O.2       16 UNK        -0.5000 
     94 N          -3.2581  -26.3426  -50.2538 N.am      17 UNK        -0.5000 
     95 CA         -4.1642  -27.4268  -50.6476 C.3       17 UNK         0.1400 
     96 CB         -3.3730  -28.7178  -50.9440 C.3       17 UNK        -0.1800 
     97 C          -5.1157  -27.0169  -51.7917 C.2       17 UNK         0.5000 
     98 O          -5.2654  -27.7471  -52.7733 O.2       17 UNK        -0.5000 
     99 N          -5.7294  -25.8360  -51.6345 N.am      18 UNK        -0.5000 
    100 CA        -6.6756  -25.1810  -52.5407 C.3       18 UNK         0.1400 
    101 CB        -7.9724  -26.0072  -52.6710 C.3       18 UNK        -0.1800 
    102 C         -6.0806  -24.7793  -53.9071 C.2       18 UNK         0.5000 
    103 O         -6.8368  -24.5750  -54.8589 O.2       18 UNK        -0.5000 
    104 N         -4.7491  -24.6433  -53.9892 N.am      19 UNK        -0.5000 
    105 CA        -4.0511  -24.1424  -55.1740 C.3       19 UNK         0.1400 
    106 CB        -2.5567  -24.4819  -55.0809 C.3       19 UNK        -0.1800 
    107 C         -4.2474  -22.6277  -55.3573 C.2       19 UNK         0.5000 
    108 O         -4.3941  -22.1709  -56.4916 O.2       19 UNK        -0.5000 
    109 N         -4.2538  -21.8889  -54.2356 N.am      20 UNK        -0.5000 
    110 CA        -4.4633  -20.4405  -54.1264 C.3       20 UNK         0.1400 
    111 CB        -5.9218  -20.0792  -54.4749 C.3       20 UNK        -0.1800 
    112 C         -3.4264  -19.5935  -54.8973 C.2       20 UNK         0.5000 
    113 O         -3.7442  -18.4940  -55.3548 O.2       20 UNK        -0.5000 
    114 N         -2.2024  -20.1237  -55.0174 N.am      21 UNK        -0.5000 
    115 CA        -1.0344  -19.4385  -55.5611 C.3       21 UNK         0.1400 
    116 CB        -0.1218  -20.4769  -56.2445 C.3       21 UNK        -0.1800 
    117 C         -0.3593  -18.6672  -54.4127 C.2       21 UNK         0.5000 
    118 O         -0.8190  -17.5762  -54.0762 O.2       21 UNK        -0.5000 
    119 N          0.6793  -19.2719  -53.8173 N.am      22 UNK        -0.5000 
    120 CA         1.3484  -18.9091  -52.5510 C.3       22 UNK         0.1400 
    121 C          1.8456  -17.4397  -52.3695 C.2       22 UNK         0.5000 
    122 N          1.9916  -16.6545  -53.4283 N.am      22 UNK        -0.7600 
    123 O          2.1598  -17.0174  -51.2601 O.2       22 UNK        -0.5000 
    124 C124        0.6389  -19.5070  -51.2990 C.3       23 UNK        -0.0398 
    125 S125       -1.1198  -19.0679  -51.0614 S.3       23 UNK        -0.2404 
    126 C126       -0.9834  -17.7687  -49.7996 C.3       23 UNK        -0.0205 
    127 H127       -3.3831   -7.3744  -47.9196 H         1 UNK         0.0600 
    128 H128       -4.1736   -7.3533  -46.3394 H         1 UNK         0.0600 
    129 H129       -4.9133   -8.2240  -47.6859 H         1 UNK         0.0600 
    130 H130       -4.6570  -10.4314  -47.4933 H         1 UNK         0.3000 
    131 H131       -2.1143  -11.6493  -46.9914 H         1 UNK         0.0600 
    132 H132       -3.4681  -13.8211  -47.1171 H         1 UNK         0.0800 
    133 H133       -4.9098  -12.8560  -47.3197 H         1 UNK         0.0800 
    134 H134       -5.5393  -13.9519  -49.6229 H         1 UNK         0.0800 
    135 H135       -4.4624  -14.1093  -50.9869 H         1 UNK         0.0800 
    136 H136       -2.1554  -15.3913  -50.4698 H         1 UNK         0.1150 
    137 H137       -2.8358  -18.9851  -48.2514 H         1 UNK         0.1150 
    138 H138       -5.7864  -15.8720  -48.2400 H         1 UNK         0.1150 
    139 H139       -6.3565  -18.0780  -47.4259 H         1 UNK         0.0800 
    140 H140       -5.2743  -19.4167  -47.5832 H         1 UNK         0.0800 
    141 H141       -2.9333  -18.7089  -44.2734 H         1 UNK         0.0800 
    142 H142       -2.6222  -18.1991  -45.8959 H         1 UNK         0.0800 
    143 H143       -3.6452  -20.5067  -46.6363 H         1 UNK         0.0600 
    144 H144       -0.9928  -19.8971  -45.9178 H         1 UNK         0.3000 
    145 H145        0.4272  -22.9672  -47.1374 H         1 UNK         0.0600 
    146 H146        1.7125  -21.4046  -48.5071 H         1 UNK         0.0600 
    147 H147        0.0545  -21.4337  -49.0966 H         1 UNK         0.0600 
    148 H148        0.6156  -20.0833  -48.1212 H         1 UNK         0.0600 
    149 H149        1.6294  -20.6506  -45.9777 H         1 UNK         0.3000 
    150 H150        1.4180  -21.7579  -42.5617 H         1 UNK         0.0600 
    151 H151        3.4535  -22.8021  -43.5742 H         1 UNK         0.0600 
    152 H152        3.8451  -21.3047  -42.7418 H         1 UNK         0.0600 
    153 H153        3.7550  -21.3366  -44.5010 H         1 UNK         0.0600 
    154 H154        2.4745  -19.3686  -43.6465 H         1 UNK         0.3000 
    155 H155       -0.5607  -17.4436  -43.6421 H         1 UNK         0.0600 
    156 H156        0.3958  -17.2798  -41.3826 H         1 UNK         0.0600 
    157 H157        1.0541  -15.9862  -42.3733 H         1 UNK         0.0600 
    158 H158        2.0315  -17.4042  -42.0087 H         1 UNK         0.0600 
    159 H159        2.0488  -16.7626  -44.5218 H         1 UNK         0.3000 
    160 H160        1.7139  -17.8692  -47.9140 H         1 UNK         0.0600 
    161 H161        1.7571  -15.0634  -46.6859 H         1 UNK         0.0600 
    162 H162        0.5768  -15.6634  -47.8414 H         1 UNK         0.0600 
    163 H163        2.2569  -15.4892  -48.3218 H         1 UNK         0.0600 
    164 H164        3.7646  -16.5315  -46.3785 H         1 UNK         0.3000 
    165 H165        5.5044  -19.5051  -45.4401 H         1 UNK         0.0600 
    166 H166        7.3420  -18.3298  -46.6185 H         1 UNK         0.0600 
    167 H167        6.2306  -19.0296  -47.7846 H         1 UNK         0.0600 
    168 H168        6.1849  -17.3003  -47.4624 H         1 UNK         0.0600 
    169 H169        6.0429  -16.7172  -45.0570 H         1 UNK         0.3000 
    170 H170        4.1679  -16.2674  -42.0751 H         1 UNK         0.0600 
    171 H171        6.2260  -17.4324  -41.2651 H         1 UNK         0.0600 
    172 H172        7.2006  -16.5408  -42.4276 H         1 UNK         0.0600 
    173 H173        6.3768  -15.6889  -41.1208 H         1 UNK         0.0600 
    174 H174        6.0078  -14.5488  -43.3456 H         1 UNK         0.3000 
    175 H175        4.8976  -12.5321  -44.2275 H         1 UNK         0.0600 
    176 H176        5.2098  -14.1848  -46.8156 H         1 UNK         0.0600 
    177 H177        5.8234  -12.5516  -46.5762 H         1 UNK         0.0600 
    178 H178        6.4940  -13.8794  -45.6510 H         1 UNK         0.0600 
    179 H179        2.5363  -13.3811  -45.6082 H         1 UNK         0.3000 
    180 H180        1.4168  -10.1546  -46.2502 H         1 UNK         0.0600 
    181 H181        2.2162  -11.9763  -48.5835 H         1 UNK         0.0600 
    182 H182        2.6462  -10.2788  -48.4130 H         1 UNK         0.0600 
    183 H183        0.9636  -10.7338  -48.6235 H         1 UNK         0.0600 
    184 H184        0.4914  -12.7755  -47.0677 H         1 UNK         0.3000 
    185 H185       -1.2991  -13.6329  -46.1049 H         1 UNK         0.0600 
    186 H186       -1.3584  -15.2057  -44.2315 H         1 UNK         0.0600 
    187 H187       -0.4807  -14.0791  -43.1943 H         1 UNK         0.0600 
    188 H188        0.3117  -14.7895  -44.5909 H         1 UNK         0.0600 
    189 H189       -2.4363  -12.7987  -43.5501 H         1 UNK         0.3000 
    190 H190       -1.8715  -21.1821  -43.6124 H         1 UNK         0.3000 
    191 H191       -3.9649  -22.5130  -42.2311 H         1 UNK         0.0600 
    192 H192       -0.9304  -22.9138  -42.0646 H         1 UNK         0.0600 
    193 H193       -1.8677  -21.7371  -41.1478 H         1 UNK         0.0600 
    194 H194       -2.1022  -23.4568  -40.8709 H         1 UNK         0.0600 
    195 H195       -1.8214  -23.6139  -44.8010 H         1 UNK         0.3000 
    196 H196       -2.7619  -26.4011  -44.7160 H         1 UNK         0.0600 
    197 H197       -0.3615  -25.8492  -45.2112 H         1 UNK         0.0600 
    198 H198       -0.8681  -24.9952  -46.6662 H         1 UNK         0.0600 
    199 H199       -1.1308  -26.7272  -46.5224 H         1 UNK         0.0600 
    200 H200       -4.6422  -24.0951  -45.2500 H         1 UNK         0.3000 
    201 H201       -6.4842  -23.6712  -46.3774 H         1 UNK         0.0600 
    202 H202       -7.6703  -25.5163  -47.5119 H         1 UNK         0.0600 
    203 H203       -6.9395  -26.1026  -46.0269 H         1 UNK         0.0600 
    204 H204       -6.2002  -26.4761  -47.5833 H         1 UNK         0.0600 
    205 H205       -4.3634  -22.4501  -47.4034 H         1 UNK         0.3000 
    206 H206       -3.6311  -21.1859  -49.0839 H         1 UNK         0.0600 
    207 H207       -6.1064  -21.9723  -50.7093 H         1 UNK         0.0600 
    208 H208       -5.0893  -20.5545  -50.9245 H         1 UNK         0.0600 
    209 H209       -6.0870  -20.7009  -49.4908 H         1 UNK         0.0600 
    210 H210       -2.4011  -23.4317  -48.7672 H         1 UNK         0.3000 
    211 H211       -1.0314  -24.9968  -49.5390 H         1 UNK         0.0600 
    212 H212        0.0130  -23.1279  -50.7732 H         1 UNK         0.0600 
    213 H213        0.1177  -24.5978  -51.7245 H         1 UNK         0.0600 
    214 H214       -1.0695  -23.3693  -52.1395 H         1 UNK         0.0600 
    215 H215       -3.3421  -26.0552  -49.2798 H         1 UNK         0.3000 
    216 H216       -4.7971  -27.6218  -49.7805 H         1 UNK         0.0600 
    217 H217       -4.0475  -29.5558  -51.1235 H         1 UNK         0.0600 
    218 H218       -2.7399  -28.6135  -51.8256 H         1 UNK         0.0600 
    219 H219       -2.7352  -28.9898  -50.1030 H         1 UNK         0.0600 
    220 H220       -5.5643  -25.3192  -50.7727 H         1 UNK         0.3000 
    221 H221       -6.9388  -24.2415  -52.0527 H         1 UNK         0.0600 
    222 H222       -8.7420  -25.4484  -53.2046 H         1 UNK         0.0600 
    223 H223       -7.8078  -26.9369  -53.2161 H         1 UNK         0.0600 
    224 H224       -8.3788  -26.2586  -51.6913 H         1 UNK         0.0600 
    225 H225       -4.1889  -24.8143  -53.1638 H         1 UNK         0.3000 
    226 H226       -4.4570  -24.6446  -56.0547 H         1 UNK         0.0600 
    227 H227       -2.4018  -25.5584  -55.0062 H         1 UNK         0.0600 
    228 H228       -2.0207  -24.1359  -55.9656 H         1 UNK         0.0600 
    229 H229       -2.0922  -24.0160  -54.2118 H         1 UNK         0.0600 
    230 H230       -4.0983  -22.3680  -53.3499 H         1 UNK         0.3000 
    231 H231       -4.3078  -20.1961  -53.0758 H         1 UNK         0.0600 
    232 H232       -6.1291  -19.0305  -54.2595 H         1 UNK         0.0600 
    233 H233       -6.6238  -20.6735  -53.8898 H         1 UNK         0.0600 
    234 H234       -6.1380  -20.2466  -55.5303 H         1 UNK         0.0600 
    235 H235       -2.0391  -21.0233  -54.5906 H         1 UNK         0.3000 
    236 H236       -1.3417  -18.7112  -56.3156 H         1 UNK         0.0600 
    237 H237       -0.6218  -20.9190  -57.1065 H         1 UNK         0.0600 
    238 H238        0.7961  -20.0141  -56.6097 H         1 UNK         0.0600 
    239 H239        0.1546  -21.2933  -55.5761 H         1 UNK         0.0600 
    240 H240        0.9880  -20.1451  -54.2185 H         1 UNK         0.3000 
    241 H241        2.2941  -19.4486  -52.6144 H         1 UNK         0.0600 
    242 H242        2.3293  -15.7134  -53.3048 H         1 UNK         0.3800 
    243 H243        1.7093  -16.9728  -54.3414 H         1 UNK         0.3800 
    244 H244        1.2000  -19.2759  -50.3927 H         1 UNK         0.0800 
    245 H245        0.6723  -20.5942  -51.3764 H         1 UNK         0.0800 
    246 H246       -0.4798  -18.1673  -48.9205 H         1 UNK         0.0800 
    247 H247       -0.3583  -16.9586  -50.1773 H         1 UNK         0.0800 
@<TRIPOS>BOND
     1    1    2 1    
     2    1  127 1    
     3    1  128 1    
     4    1  129 1    
     5    2    3 2    
     6    2    4 am   BACKBONE|DICT|INTERRES
     7    4    5 1    
     8    4  130 1    
     9    5    6 1    
    10    5   65 1    
    11    5  131 1    
    12    6    7 1    
    13    6  132 1    
    14    6  133 1    
    15    7    8 1    
    16    8    9 1    
    17    8  134 1    
    18    8  135 1    
    19    9   10 ar   
    20    9   14 ar   
    21   10   11 ar   
    22   10  136 1    
    23   11   12 ar   
    24   11  126 1    
    25   12   13 ar   
    26   12  137 1    
    27   13   14 ar   
    28   13   15 1    
    29   14  138 1    
    30   15   16 1    
    31   15  139 1    
    32   15  140 1    
    33   16   17 1    
    34   17   18 1    
    35   17  141 1    
    36   17  142 1    
    37   18   19 1    
    38   18   67 1    
    39   18  143 1    
    40   19   20 am   BACKBONE|DICT|INTERRES
    41   19  144 1    
    42   20   21 2    
    43   20   22 1    
    44   22   23 1    
    45   22   24 1    
    46   22  145 1    
    47   23  146 1    
    48   23  147 1    
    49   23  148 1    
    50   24   25 am   BACKBONE|DICT|INTERRES
    51   24  149 1    
    52   25   26 2    
    53   25   27 1    
    54   27   28 1    
    55   27   29 1    
    56   27  150 1    
    57   28  151 1    
    58   28  152 1    
    59   28  153 1    
    60   29   30 am   BACKBONE|DICT|INTERRES
    61   29  154 1    
    62   30   31 2    
    63   30   32 1    
    64   32   33 1    
    65   32   34 1    
    66   32  155 1    
    67   33  156 1    
    68   33  157 1    
    69   33  158 1    
    70   34   35 am   BACKBONE|DICT|INTERRES
    71   34  159 1    
    72   35   36 2    
    73   35   37 1    
    74   37   38 1    
    75   37   39 1    
    76   37  160 1    
    77   38  161 1    
    78   38  162 1    
    79   38  163 1    
    80   39   40 am   BACKBONE|DICT|INTERRES
    81   39  164 1    
    82   40   41 2    
    83   40   42 1    
    84   42   43 1    
    85   42   44 1    
    86   42  165 1    
    87   43  166 1    
    88   43  167 1    
    89   43  168 1    
    90   44   45 am   BACKBONE|DICT|INTERRES
    91   44  169 1    
    92   45   46 2    
    93   45   47 1    
    94   47   48 1    
    95   47   49 1    
    96   47  170 1    
    97   48  171 1    
    98   48  172 1    
    99   48  173 1    
   100   49   50 am   BACKBONE|DICT|INTERRES
   101   49  174 1    
   102   50   51 2    
   103   50   52 1    
   104   52   53 1    
   105   52   54 1    
   106   52  175 1    
   107   53  176 1    
   108   53  177 1    
   109   53  178 1    
   110   54   55 am   BACKBONE|DICT|INTERRES
   111   54  179 1    
   112   55   56 2    
   113   55   57 1    
   114   57   58 1    
   115   57   59 1    
   116   57  180 1    
   117   58  181 1    
   118   58  182 1    
   119   58  183 1    
   120   59   60 am   BACKBONE|DICT|INTERRES
   121   59  184 1    
   122   60   61 2    
   123   60   62 1    
   124   62   63 1    
   125   62   64 1    
   126   62  185 1    
   127   63  186 1    
   128   63  187 1    
   129   63  188 1    
   130   64   65 am   BACKBONE|DICT|INTERRES
   131   64  189 1    
   132   65   66 2    
   133   67   68 2    
   134   67   69 am   BACKBONE|DICT|INTERRES
   135   69   70 1    
   136   69  190 1    
   137   70   71 1    
   138   70   72 1    
   139   70  191 1    
   140   71  192 1    
   141   71  193 1    
   142   71  194 1    
   143   72   73 2    
   144   72   74 am   BACKBONE|DICT|INTERRES
   145   74   75 1    
   146   74  195 1    
   147   75   76 1    
   148   75   77 1    
   149   75  196 1    
   150   76  197 1    
   151   76  198 1    
   152   76  199 1    
   153   77   78 2    
   154   77   79 am   BACKBONE|DICT|INTERRES
   155   79   80 1    
   156   79  200 1    
   157   80   81 1    
   158   80   82 1    
   159   80  201 1    
   160   81  202 1    
   161   81  203 1    
   162   81  204 1    
   163   82   83 2    
   164   82   84 am   BACKBONE|DICT|INTERRES
   165   84   85 1    
   166   84  205 1    
   167   85   86 1    
   168   85   87 1    
   169   85  206 1    
   170   86  207 1    
   171   86  208 1    
   172   86  209 1    
   173   87   88 2    
   174   87   89 am   BACKBONE|DICT|INTERRES
   175   89   90 1    
   176   89  210 1    
   177   90   91 1    
   178   90   92 1    
   179   90  211 1    
   180   91  212 1    
   181   91  213 1    
   182   91  214 1    
   183   92   93 2    
   184   92   94 am   BACKBONE|DICT|INTERRES
   185   94   95 1    
   186   94  215 1    
   187   95   96 1    
   188   95   97 1    
   189   95  216 1    
   190   96  217 1    
   191   96  218 1    
   192   96  219 1    
   193   97   98 2    
   194   97   99 am   BACKBONE|DICT|INTERRES
   195   99  100 1    
   196   99  220 1    
   197  100  101 1    
   198  100  102 1    
   199  100  221 1    
   200  101  222 1    
   201  101  223 1    
   202  101  224 1    
   203  102  103 2    
   204  102  104 am   BACKBONE|DICT|INTERRES
   205  104  105 1    
   206  104  225 1    
   207  105  106 1    
   208  105  107 1    
   209  105  226 1    
   210  106  227 1    
   211  106  228 1    
   212  106  229 1    
   213  107  108 2    
   214  107  109 am   BACKBONE|DICT|INTERRES
   215  109  110 1    
   216  109  230 1    
   217  110  111 1    
   218  110  112 1    
   219  110  231 1    
   220  111  232 1    
   221  111  233 1    
   222  111  234 1    
   223  112  113 2    
   224  112  114 am   BACKBONE|DICT|INTERRES
   225  114  115 1    
   226  114  235 1    
   227  115  116 1    
   228  115  117 1    
   229  115  236 1    
   230  116  237 1    
   231  116  238 1    
   232  116  239 1    
   233  117  118 2    
   234  117  119 am   BACKBONE|DICT|INTERRES
   235  119  120 1    
   236  119  240 1    
   237  120  121 1    
   238  120  124 1    
   239  120  241 1    
   240  121  122 am   BACKBONE|DICT|INTERRES
   241  121  123 2    
   242  122  242 1    
   243  122  243 1    
   244  124  125 1    
   245  124  244 1    
   246  124  245 1    
   247  125  126 1    
   248  126  246 1    
   249  126  247 1    
@<TRIPOS>SUBSTRUCTURE
     1 UNK         1 GROUP             0       ****    0 ROOT    
