@<TRIPOS>MOLECULE
3R540
247   249    1
SMALL
USER_CHARGES


@<TRIPOS>ATOM
      1 CA          0.9968  -10.1013  -51.1738 C.3       0 UNK        -0.1800 
      2 C           2.1147  -10.6798  -50.3196 C.2       0 UNK         0.5000 
      3 O           2.7327   -9.9476  -49.5447 O.2       0 UNK        -0.5000 
      4 N           2.3758  -11.9871  -50.4558 N.am      1 UNK        -0.5000 
      5 CA          3.3592  -12.7460  -49.6767 C.3       1 UNK         0.1400 
      6 C6          3.4096  -14.2168  -50.1468 C.3       23 UNK        -0.0398 
      7 S7          4.7236  -15.2045  -49.3418 S.3       23 UNK        -0.2404 
      8 C8          3.7399  -16.3284  -48.2948 C.3       23 UNK        -0.0205 
      9 C9          3.4235  -17.6382  -49.0043 C.ar      23 UNK        -0.0193 
     10 C10         2.6113  -17.6515  -50.1403 C.ar      23 UNK        -0.1150 
     11 C11         2.3281  -18.8410  -50.8194 C.ar      23 UNK        -0.0193 
     12 C12         2.8543  -20.0380  -50.3211 C.ar      23 UNK        -0.1150 
     13 C13         3.6623  -20.0451  -49.1787 C.ar      23 UNK        -0.0193 
     14 C14         3.9448  -18.8421  -48.5271 C.ar      23 UNK        -0.1150 
     15 C15         4.2513  -21.3452  -48.6525 C.3       23 UNK        -0.0205 
     16 S16         3.3183  -21.9822  -47.2266 S.3       23 UNK        -0.2404 
     17 C17         1.7933  -22.5481  -48.0449 C.3       23 UNK        -0.0398 
     18 CA          0.9261  -23.4228  -47.1118 C.3       11 UNK         0.1400 
     19 N           0.3480  -22.6597  -45.9998 N.am      11 UNK        -0.5000 
     20 C          -0.3023  -23.2083  -44.9634 C.2       10 UNK         0.5000 
     21 O          -0.4369  -24.4230  -44.8056 O.2       10 UNK        -0.5000 
     22 CA         -0.9578  -22.2367  -43.9637 C.3       10 UNK         0.1400 
     23 CB          0.0818  -21.6548  -42.9943 C.3       10 UNK        -0.1800 
     24 N          -1.6815  -21.1499  -44.6271 N.am      10 UNK        -0.5000 
     25 C          -2.7564  -21.3284  -45.4080 C.2       9 UNK         0.5000 
     26 O          -3.2762  -22.4232  -45.6131 O.2       9 UNK        -0.5000 
     27 CA         -3.3262  -20.0919  -46.1241 C.3       9 UNK         0.1400 
     28 CB         -4.2686  -19.3049  -45.2021 C.3       9 UNK        -0.1800 
     29 N          -2.2914  -19.2053  -46.6530 N.am      9 UNK        -0.5000 
     30 C          -1.3795  -19.5537  -47.5729 C.2       8 UNK         0.5000 
     31 O          -1.3401  -20.6557  -48.1158 O.2       8 UNK        -0.5000 
     32 CA         -0.2953  -18.5156  -47.8992 C.3       8 UNK         0.1400 
     33 CB         -0.8207  -17.4700  -48.8901 C.3       8 UNK        -0.1800 
     34 N           0.1999  -17.8481  -46.6981 N.am      8 UNK        -0.5000 
     35 C           0.8945  -18.4575  -45.7276 C.2       7 UNK         0.5000 
     36 O           1.2186  -19.6445  -45.7561 O.2       7 UNK        -0.5000 
     37 CA          1.2273  -17.6009  -44.4928 C.3       7 UNK         0.1400 
     38 CB          2.4331  -16.6915  -44.7718 C.3       7 UNK        -0.1800 
     39 N           0.0885  -16.7837  -44.0672 N.am      7 UNK        -0.5000 
     40 C          -1.0555  -17.2838  -43.5763 C.2       6 UNK         0.5000 
     41 O          -1.2441  -18.4834  -43.3757 O.2       6 UNK        -0.5000 
     42 CA         -2.1976  -16.2827  -43.3111 C.3       6 UNK         0.1400 
     43 CB         -2.0850  -15.6986  -41.8953 C.3       6 UNK        -0.1800 
     44 N          -2.2472  -15.1856  -44.2802 N.am      6 UNK        -0.5000 
     45 C          -2.4108  -15.3231  -45.6034 C.2       5 UNK         0.5000 
     46 O          -2.5914  -16.4141  -46.1431 O.2       5 UNK        -0.5000 
     47 CA         -2.3498  -14.0523  -46.4792 C.3       5 UNK         0.1400 
     48 CB         -3.5865  -13.9447  -47.3847 C.3       5 UNK        -0.1800 
     49 N          -2.2001  -12.7990  -45.7317 N.am      5 UNK        -0.5000 
     50 C          -1.0738  -12.3895  -45.1366 C.2       4 UNK         0.5000 
     51 O          -0.0518  -13.0744  -45.0633 O.2       4 UNK        -0.5000 
     52 CA         -1.1152  -11.0074  -44.4668 C.3       4 UNK         0.1400 
     53 CB         -1.1291  -11.1467  -42.9366 C.3       4 UNK        -0.1800 
     54 N           0.0587  -10.2422  -44.8662 N.am      4 UNK        -0.5000 
     55 C           0.1673   -9.5326  -45.9941 C.2       3 UNK         0.5000 
     56 O          -0.7707   -9.3294  -46.7659 O.2       3 UNK        -0.5000 
     57 CA          1.5631   -8.9730  -46.3312 C.3       3 UNK         0.1400 
     58 CB          1.9849   -7.8523  -45.3608 C.3       3 UNK        -0.1800 
     59 N           2.5891  -10.0162  -46.4470 N.am      3 UNK        -0.5000 
     60 C           3.0758  -10.8342  -45.4993 C.2       2 UNK         0.5000 
     61 O           2.7863  -10.7395  -44.3049 O.2       2 UNK        -0.5000 
     62 CA          4.0548  -11.9412  -45.9522 C.3       2 UNK         0.1400 
     63 CB          3.8338  -13.2611  -45.1837 C.3       2 UNK        -0.1800 
     64 N           4.0674  -12.1792  -47.4019 N.am      2 UNK        -0.5000 
     65 C           3.0649  -12.6432  -48.1637 C.2       1 UNK         0.5000 
     66 O           1.9536  -12.9646  -47.7405 O.2       1 UNK        -0.5000 
     67 C          -0.1593  -24.1613  -47.9192 C.2       11 UNK         0.5000 
     68 O           0.0048  -25.3445  -48.2170 O.2       11 UNK        -0.5000 
     69 N          -1.2616  -23.4667  -48.2290 N.am      12 UNK        -0.5000 
     70 CA         -2.4148  -24.0155  -48.9367 C.3       12 UNK         0.1400 
     71 CB         -3.4079  -22.8959  -49.2544 C.3       12 UNK        -0.1800 
     72 C          -3.1111  -25.1476  -48.1668 C.2       12 UNK         0.5000 
     73 O          -3.4595  -26.1540  -48.7784 O.2       12 UNK        -0.5000 
     74 N          -3.2627  -24.9944  -46.8443 N.am      13 UNK        -0.5000 
     75 CA         -3.8196  -26.0134  -45.9534 C.3       13 UNK         0.1400 
     76 CB         -3.9956  -25.4311  -44.5432 C.3       13 UNK        -0.1800 
     77 C          -2.9715  -27.2975  -45.9135 C.2       13 UNK         0.5000 
     78 O          -3.5344  -28.3925  -45.9218 O.2       13 UNK        -0.5000 
     79 N          -1.6394  -27.1438  -45.9172 N.am      14 UNK        -0.5000 
     80 CA         -0.6829  -28.2489  -46.0031 C.3       14 UNK         0.1400 
     81 CB          0.7249  -27.7342  -45.6664 C.3       14 UNK        -0.1800 
     82 C          -0.7027  -28.9456  -47.3786 C.2       14 UNK         0.5000 
     83 O          -0.5999  -30.1712  -47.4409 O.2       14 UNK        -0.5000 
     84 N          -0.8547  -28.1570  -48.4511 N.am      15 UNK        -0.5000 
     85 CA         -0.9472  -28.6270  -49.8360 C.3       15 UNK         0.1400 
     86 CB         -0.6318  -27.4505  -50.7737 C.3       15 UNK        -0.1800 
     87 C          -2.3152  -29.2417  -50.2015 C.2       15 UNK         0.5000 
     88 O          -2.4119  -29.9066  -51.2337 O.2       15 UNK        -0.5000 
     89 N          -3.3401  -28.9872  -49.3748 N.am      16 UNK        -0.5000 
     90 CA         -4.7617  -29.2863  -49.5848 C.3       16 UNK         0.1400 
     91 CB         -5.0141  -30.8068  -49.6616 C.3       16 UNK        -0.1800 
     92 C          -5.3536  -28.4992  -50.7763 C.2       16 UNK         0.5000 
     93 O          -6.1329  -29.0419  -51.5624 O.2       16 UNK        -0.5000 
     94 N          -4.9584  -27.2263  -50.8804 N.am      17 UNK        -0.5000 
     95 CA         -5.3986  -26.2543  -51.8769 C.3       17 UNK         0.1400 
     96 CB         -4.1454  -25.5794  -52.4616 C.3       17 UNK        -0.1800 
     97 C          -6.3300  -25.2096  -51.2319 C.2       17 UNK         0.5000 
     98 O          -6.5163  -25.2082  -50.0119 O.2       17 UNK        -0.5000 
     99 N          -6.8968  -24.3262  -52.0654 N.am      18 UNK        -0.5000 
    100 CA        -7.7175  -23.1884  -51.6426 C.3       18 UNK         0.1400 
    101 CB        -8.3644  -22.5430  -52.8779 C.3       18 UNK        -0.1800 
    102 C         -6.8843  -22.1561  -50.8579 C.2       18 UNK         0.5000 
    103 O         -5.8065  -21.7721  -51.3169 O.2       18 UNK        -0.5000 
    104 N         -7.3900  -21.7530  -49.6867 N.am      19 UNK        -0.5000 
    105 CA        -6.7088  -20.8783  -48.7326 C.3       19 UNK         0.1400 
    106 CB        -7.4595  -20.9389  -47.3921 C.3       19 UNK        -0.1800 
    107 C         -6.5622  -19.4194  -49.2071 C.2       19 UNK         0.5000 
    108 O         -7.3163  -18.9633  -50.0701 O.2       19 UNK        -0.5000 
    109 N         -5.6187  -18.7135  -48.5681 N.am      20 UNK        -0.5000 
    110 CA        -5.2635  -17.3062  -48.7608 C.3       20 UNK         0.1400 
    111 CB        -6.4391  -16.3840  -48.3632 C.3       20 UNK        -0.1800 
    112 C         -4.6746  -17.0307  -50.1612 C.2       20 UNK         0.5000 
    113 O         -3.9640  -17.8864  -50.6933 O.2       20 UNK        -0.5000 
    114 N         -4.9426  -15.8339  -50.7059 N.am      21 UNK        -0.5000 
    115 CA        -4.3957  -15.2858  -51.9523 C.3       21 UNK         0.1400 
    116 CB        -4.9138  -16.0796  -53.1735 C.3       21 UNK        -0.1800 
    117 C         -2.8574  -15.1451  -51.8890 C.2       21 UNK         0.5000 
    118 O         -2.3315  -14.7940  -50.8304 O.2       21 UNK        -0.5000 
    119 N         -2.1667  -15.4098  -53.0075 N.am      22 UNK        -0.5000 
    120 CA        -0.6976  -15.3822  -53.1293 C.3       22 UNK         0.1400 
    121 C         -0.0785  -13.9545  -52.9877 C.2       22 UNK         0.5000 
    122 N         -0.7684  -12.9154  -53.4428 N.am      22 UNK        -0.7600 
    123 O          1.0209  -13.7719  -52.4693 O.2       22 UNK        -0.5000 
    124 C124       -0.0256  -16.4595  -52.2293 C.3       23 UNK        -0.0398 
    125 S125        1.3788  -17.3085  -53.0313 S.3       23 UNK        -0.2404 
    126 C126        1.4618  -18.8759  -52.0822 C.3       23 UNK        -0.0205 
    127 H127        0.4695  -10.8785  -51.7258 H         1 UNK         0.0600 
    128 H128        1.4018   -9.3858  -51.8893 H         1 UNK         0.0600 
    129 H129        0.2732   -9.5844  -50.5432 H         1 UNK         0.0600 
    130 H130        1.8309  -12.5360  -51.1154 H         1 UNK         0.3000 
    131 H131        4.3337  -12.2956  -49.8767 H         1 UNK         0.0600 
    132 H132        3.5854  -14.2557  -51.2229 H         1 UNK         0.0800 
    133 H133        2.4324  -14.6719  -49.9887 H         1 UNK         0.0800 
    134 H134        4.3050  -16.5201  -47.3817 H         1 UNK         0.0800 
    135 H135        2.8133  -15.8470  -47.9791 H         1 UNK         0.0800 
    136 H136        2.2151  -16.7229  -50.5055 H         1 UNK         0.1150 
    137 H137        2.6404  -20.9682  -50.8287 H         1 UNK         0.1150 
    138 H138        4.5713  -18.8482  -47.6462 H         1 UNK         0.1150 
    139 H139        4.2893  -22.1009  -49.4385 H         1 UNK         0.0800 
    140 H140        5.2847  -21.1753  -48.3472 H         1 UNK         0.0800 
    141 H141        2.0827  -23.1086  -48.9361 H         1 UNK         0.0800 
    142 H142        1.2331  -21.6784  -48.3922 H         1 UNK         0.0800 
    143 H143        1.5688  -24.1924  -46.6782 H         1 UNK         0.0600 
    144 H144        0.4504  -21.6514  -46.0386 H         1 UNK         0.3000 
    145 H145       -1.6817  -22.8066  -43.3774 H         1 UNK         0.0600 
    146 H146       -0.3919  -21.0244  -42.2416 H         1 UNK         0.0600 
    147 H147        0.6113  -22.4496  -42.4676 H         1 UNK         0.0600 
    148 H148        0.8271  -21.0518  -43.5128 H         1 UNK         0.0600 
    149 H149       -1.3436  -20.2073  -44.4633 H         1 UNK         0.3000 
    150 H150       -3.9082  -20.4509  -46.9731 H         1 UNK         0.0600 
    151 H151       -5.1018  -19.9280  -44.8748 H         1 UNK         0.0600 
    152 H152       -4.6889  -18.4337  -45.7047 H         1 UNK         0.0600 
    153 H153       -3.7544  -18.9567  -44.3072 H         1 UNK         0.0600 
    154 H154       -2.2741  -18.2535  -46.2945 H         1 UNK         0.3000 
    155 H155        0.5433  -19.0389  -48.3633 H         1 UNK         0.0600 
    156 H156       -1.6952  -16.9412  -48.5127 H         1 UNK         0.0600 
    157 H157       -1.1145  -17.9469  -49.8247 H         1 UNK         0.0600 
    158 H158       -0.0572  -16.7274  -49.1167 H         1 UNK         0.0600 
    159 H159       -0.0766  -16.8874  -46.5665 H         1 UNK         0.3000 
    160 H160        1.4884  -18.2773  -43.6759 H         1 UNK         0.0600 
    161 H161        2.2175  -15.9699  -45.5601 H         1 UNK         0.0600 
    162 H162        3.2983  -17.2762  -45.0870 H         1 UNK         0.0600 
    163 H163        2.7235  -16.1357  -43.8801 H         1 UNK         0.0600 
    164 H164        0.1597  -15.7853  -44.2071 H         1 UNK         0.3000 
    165 H165       -3.1402  -16.8282  -43.3815 H         1 UNK         0.0600 
    166 H166       -2.9359  -15.0575  -41.6640 H         1 UNK         0.0600 
    167 H167       -2.0641  -16.4916  -41.1464 H         1 UNK         0.0600 
    168 H168       -1.1761  -15.1077  -41.7742 H         1 UNK         0.0600 
    169 H169       -2.0933  -14.2560  -43.9206 H         1 UNK         0.3000 
    170 H170       -1.4760  -14.1622  -47.1254 H         1 UNK         0.0600 
    171 H171       -3.6512  -14.8027  -48.0534 H         1 UNK         0.0600 
    172 H172       -4.5094  -13.9012  -46.8053 H         1 UNK         0.0600 
    173 H173       -3.5395  -13.0570  -48.0157 H         1 UNK         0.0600 
    174 H174       -3.0068  -12.1912  -45.7205 H         1 UNK         0.3000 
    175 H175       -2.0189  -10.4764  -44.7736 H         1 UNK         0.0600 
    176 H176       -2.0019  -11.7091  -42.6027 H         1 UNK         0.0600 
    177 H177       -0.2423  -11.6663  -42.5706 H         1 UNK         0.0600 
    178 H178       -1.1670  -10.1702  -42.4534 H         1 UNK         0.0600 
    179 H179        0.9193  -10.4351  -44.3605 H         1 UNK         0.3000 
    180 H180        1.4896   -8.5273  -47.3246 H         1 UNK         0.0600 
    181 H181        2.0658   -8.2029  -44.3318 H         1 UNK         0.0600 
    182 H182        1.2562   -7.0409  -45.3689 H         1 UNK         0.0600 
    183 H183        2.9472   -7.4274  -45.6462 H         1 UNK         0.0600 
    184 H184        2.8791  -10.1976  -47.4016 H         1 UNK         0.3000 
    185 H185        5.0522  -11.5788  -45.7003 H         1 UNK         0.0600 
    186 H186        4.0262  -13.1312  -44.1183 H         1 UNK         0.0600 
    187 H187        2.8080  -13.6163  -45.2850 H         1 UNK         0.0600 
    188 H188        4.4997  -14.0470  -45.5405 H         1 UNK         0.0600 
    189 H189        4.9324  -11.9307  -47.8621 H         1 UNK         0.3000 
    190 H190       -1.3053  -22.4766  -47.9950 H         1 UNK         0.3000 
    191 H191       -2.0564  -24.4280  -49.8813 H         1 UNK         0.0600 
    192 H192       -3.7331  -22.3926  -48.3460 H         1 UNK         0.0600 
    193 H193       -4.2935  -23.2955  -49.7474 H         1 UNK         0.0600 
    194 H194       -2.9709  -22.1489  -49.9173 H         1 UNK         0.0600 
    195 H195       -3.0108  -24.1065  -46.4173 H         1 UNK         0.3000 
    196 H196       -4.8069  -26.2817  -46.3350 H         1 UNK         0.0600 
    197 H197       -4.4081  -26.1751  -43.8607 H         1 UNK         0.0600 
    198 H198       -4.6802  -24.5829  -44.5509 H         1 UNK         0.0600 
    199 H199       -3.0471  -25.0911  -44.1264 H         1 UNK         0.0600 
    200 H200       -1.2562  -26.2062  -45.8839 H         1 UNK         0.3000 
    201 H201       -0.9579  -28.9918  -45.2515 H         1 UNK         0.0600 
    202 H202        0.7545  -27.2917  -44.6704 H         1 UNK         0.0600 
    203 H203        1.0611  -26.9784  -46.3762 H         1 UNK         0.0600 
    204 H204        1.4518  -28.5472  -45.6839 H         1 UNK         0.0600 
    205 H205       -0.8611  -27.1509  -48.3142 H         1 UNK         0.3000 
    206 H206       -0.1896  -29.3980  -49.9904 H         1 UNK         0.0600 
    207 H207        0.3517  -27.0297  -50.5637 H         1 UNK         0.0600 
    208 H208       -0.6336  -27.7681  -51.8171 H         1 UNK         0.0600 
    209 H209       -1.3668  -26.6515  -50.6738 H         1 UNK         0.0600 
    210 H210       -3.1455  -28.3723  -48.5949 H         1 UNK         0.3000 
    211 H211       -5.2763  -28.9163  -48.6968 H         1 UNK         0.0600 
    212 H212       -4.5937  -31.2462  -50.5662 H         1 UNK         0.0600 
    213 H213       -6.0829  -31.0230  -49.6623 H         1 UNK         0.0600 
    214 H214       -4.5799  -31.3214  -48.8044 H         1 UNK         0.0600 
    215 H215       -4.3805  -26.8476  -50.1307 H         1 UNK         0.3000 
    216 H216       -5.9441  -26.7512  -52.6816 H         1 UNK         0.0600 
    217 H217       -3.6015  -25.0167  -51.7026 H         1 UNK         0.0600 
    218 H218       -4.4029  -24.8858  -53.2626 H         1 UNK         0.0600 
    219 H219       -3.4616  -26.3174  -52.8817 H         1 UNK         0.0600 
    220 H220       -6.6753  -24.3720  -53.0491 H         1 UNK         0.3000 
    221 H221       -8.5139  -23.5685  -50.9991 H         1 UNK         0.0600 
    222 H222       -8.9936  -23.2548  -53.4124 H         1 UNK         0.0600 
    223 H223       -7.6144  -22.1665  -53.5747 H         1 UNK         0.0600 
    224 H224       -8.9966  -21.7016  -52.5911 H         1 UNK         0.0600 
    225 H225       -8.2966  -22.0952  -49.4046 H         1 UNK         0.3000 
    226 H226       -5.7073  -21.2789  -48.5790 H         1 UNK         0.0600 
    227 H227       -7.4989  -21.9585  -47.0077 H         1 UNK         0.0600 
    228 H228       -6.9683  -20.3292  -46.6330 H         1 UNK         0.0600 
    229 H229       -8.4835  -20.5759  -47.4896 H         1 UNK         0.0600 
    230 H230       -5.0390  -19.1989  -47.9026 H         1 UNK         0.3000 
    231 H231       -4.4503  -17.1147  -48.0598 H         1 UNK         0.0600 
    232 H232       -7.2671  -16.4505  -49.0698 H         1 UNK         0.0600 
    233 H233       -6.1310  -15.3398  -48.3107 H         1 UNK         0.0600 
    234 H234       -6.8236  -16.6474  -47.3777 H         1 UNK         0.0600 
    235 H235       -5.5165  -15.1960  -50.1740 H         1 UNK         0.3000 
    236 H236       -4.7856  -14.2702  -52.0319 H         1 UNK         0.0600 
    237 H237       -4.6735  -15.5728  -54.1086 H         1 UNK         0.0600 
    238 H238       -4.4905  -17.0837  -53.2190 H         1 UNK         0.0600 
    239 H239       -5.9986  -16.1816  -53.1396 H         1 UNK         0.0600 
    240 H240       -2.6743  -15.6827  -53.8366 H         1 UNK         0.3000 
    241 H241       -0.5089  -15.6575  -54.1674 H         1 UNK         0.0600 
    242 H242       -0.3785  -11.9900  -53.3751 H         1 UNK         0.3800 
    243 H243       -1.6737  -13.0452  -53.8657 H         1 UNK         0.3800 
    244 H244       -0.7553  -17.2314  -51.9851 H         1 UNK         0.0800 
    245 H245        0.2800  -16.0298  -51.2768 H         1 UNK         0.0800 
    246 H246        1.8602  -19.6359  -52.7561 H         1 UNK         0.0800 
    247 H247        0.4577  -19.2073  -51.8155 H         1 UNK         0.0800 
@<TRIPOS>BOND
     1    1    2 1    
     2    1  127 1    
     3    1  128 1    
     4    1  129 1    
     5    2    3 2    
     6    2    4 am   BACKBONE|DICT|INTERRES
     7    4    5 1    
     8    4  130 1    
     9    5    6 1    
    10    5   65 1    
    11    5  131 1    
    12    6    7 1    
    13    6  132 1    
    14    6  133 1    
    15    7    8 1    
    16    8    9 1    
    17    8  134 1    
    18    8  135 1    
    19    9   10 ar   
    20    9   14 ar   
    21   10   11 ar   
    22   10  136 1    
    23   11   12 ar   
    24   11  126 1    
    25   12   13 ar   
    26   12  137 1    
    27   13   14 ar   
    28   13   15 1    
    29   14  138 1    
    30   15   16 1    
    31   15  139 1    
    32   15  140 1    
    33   16   17 1    
    34   17   18 1    
    35   17  141 1    
    36   17  142 1    
    37   18   19 1    
    38   18   67 1    
    39   18  143 1    
    40   19   20 am   BACKBONE|DICT|INTERRES
    41   19  144 1    
    42   20   21 2    
    43   20   22 1    
    44   22   23 1    
    45   22   24 1    
    46   22  145 1    
    47   23  146 1    
    48   23  147 1    
    49   23  148 1    
    50   24   25 am   BACKBONE|DICT|INTERRES
    51   24  149 1    
    52   25   26 2    
    53   25   27 1    
    54   27   28 1    
    55   27   29 1    
    56   27  150 1    
    57   28  151 1    
    58   28  152 1    
    59   28  153 1    
    60   29   30 am   BACKBONE|DICT|INTERRES
    61   29  154 1    
    62   30   31 2    
    63   30   32 1    
    64   32   33 1    
    65   32   34 1    
    66   32  155 1    
    67   33  156 1    
    68   33  157 1    
    69   33  158 1    
    70   34   35 am   BACKBONE|DICT|INTERRES
    71   34  159 1    
    72   35   36 2    
    73   35   37 1    
    74   37   38 1    
    75   37   39 1    
    76   37  160 1    
    77   38  161 1    
    78   38  162 1    
    79   38  163 1    
    80   39   40 am   BACKBONE|DICT|INTERRES
    81   39  164 1    
    82   40   41 2    
    83   40   42 1    
    84   42   43 1    
    85   42   44 1    
    86   42  165 1    
    87   43  166 1    
    88   43  167 1    
    89   43  168 1    
    90   44   45 am   BACKBONE|DICT|INTERRES
    91   44  169 1    
    92   45   46 2    
    93   45   47 1    
    94   47   48 1    
    95   47   49 1    
    96   47  170 1    
    97   48  171 1    
    98   48  172 1    
    99   48  173 1    
   100   49   50 am   BACKBONE|DICT|INTERRES
   101   49  174 1    
   102   50   51 2    
   103   50   52 1    
   104   52   53 1    
   105   52   54 1    
   106   52  175 1    
   107   53  176 1    
   108   53  177 1    
   109   53  178 1    
   110   54   55 am   BACKBONE|DICT|INTERRES
   111   54  179 1    
   112   55   56 2    
   113   55   57 1    
   114   57   58 1    
   115   57   59 1    
   116   57  180 1    
   117   58  181 1    
   118   58  182 1    
   119   58  183 1    
   120   59   60 am   BACKBONE|DICT|INTERRES
   121   59  184 1    
   122   60   61 2    
   123   60   62 1    
   124   62   63 1    
   125   62   64 1    
   126   62  185 1    
   127   63  186 1    
   128   63  187 1    
   129   63  188 1    
   130   64   65 am   BACKBONE|DICT|INTERRES
   131   64  189 1    
   132   65   66 2    
   133   67   68 2    
   134   67   69 am   BACKBONE|DICT|INTERRES
   135   69   70 1    
   136   69  190 1    
   137   70   71 1    
   138   70   72 1    
   139   70  191 1    
   140   71  192 1    
   141   71  193 1    
   142   71  194 1    
   143   72   73 2    
   144   72   74 am   BACKBONE|DICT|INTERRES
   145   74   75 1    
   146   74  195 1    
   147   75   76 1    
   148   75   77 1    
   149   75  196 1    
   150   76  197 1    
   151   76  198 1    
   152   76  199 1    
   153   77   78 2    
   154   77   79 am   BACKBONE|DICT|INTERRES
   155   79   80 1    
   156   79  200 1    
   157   80   81 1    
   158   80   82 1    
   159   80  201 1    
   160   81  202 1    
   161   81  203 1    
   162   81  204 1    
   163   82   83 2    
   164   82   84 am   BACKBONE|DICT|INTERRES
   165   84   85 1    
   166   84  205 1    
   167   85   86 1    
   168   85   87 1    
   169   85  206 1    
   170   86  207 1    
   171   86  208 1    
   172   86  209 1    
   173   87   88 2    
   174   87   89 am   BACKBONE|DICT|INTERRES
   175   89   90 1    
   176   89  210 1    
   177   90   91 1    
   178   90   92 1    
   179   90  211 1    
   180   91  212 1    
   181   91  213 1    
   182   91  214 1    
   183   92   93 2    
   184   92   94 am   BACKBONE|DICT|INTERRES
   185   94   95 1    
   186   94  215 1    
   187   95   96 1    
   188   95   97 1    
   189   95  216 1    
   190   96  217 1    
   191   96  218 1    
   192   96  219 1    
   193   97   98 2    
   194   97   99 am   BACKBONE|DICT|INTERRES
   195   99  100 1    
   196   99  220 1    
   197  100  101 1    
   198  100  102 1    
   199  100  221 1    
   200  101  222 1    
   201  101  223 1    
   202  101  224 1    
   203  102  103 2    
   204  102  104 am   BACKBONE|DICT|INTERRES
   205  104  105 1    
   206  104  225 1    
   207  105  106 1    
   208  105  107 1    
   209  105  226 1    
   210  106  227 1    
   211  106  228 1    
   212  106  229 1    
   213  107  108 2    
   214  107  109 am   BACKBONE|DICT|INTERRES
   215  109  110 1    
   216  109  230 1    
   217  110  111 1    
   218  110  112 1    
   219  110  231 1    
   220  111  232 1    
   221  111  233 1    
   222  111  234 1    
   223  112  113 2    
   224  112  114 am   BACKBONE|DICT|INTERRES
   225  114  115 1    
   226  114  235 1    
   227  115  116 1    
   228  115  117 1    
   229  115  236 1    
   230  116  237 1    
   231  116  238 1    
   232  116  239 1    
   233  117  118 2    
   234  117  119 am   BACKBONE|DICT|INTERRES
   235  119  120 1    
   236  119  240 1    
   237  120  121 1    
   238  120  124 1    
   239  120  241 1    
   240  121  122 am   BACKBONE|DICT|INTERRES
   241  121  123 2    
   242  122  242 1    
   243  122  243 1    
   244  124  125 1    
   245  124  244 1    
   246  124  245 1    
   247  125  126 1    
   248  126  246 1    
   249  126  247 1    
@<TRIPOS>SUBSTRUCTURE
     1 UNK         1 GROUP             0       ****    0 ROOT    
