@<TRIPOS>MOLECULE
3R540
247   249    1
SMALL
USER_CHARGES


@<TRIPOS>ATOM
      1 CA          0.3549  -10.9623  -50.7916 C.3       0 UNK        -0.1800 
      2 C           0.2075  -12.0059  -49.6936 C.2       0 UNK         0.5000 
      3 O          -0.8186  -12.0354  -49.0158 O.2       0 UNK        -0.5000 
      4 N           1.2355  -12.8479  -49.5121 N.am      1 UNK        -0.5000 
      5 CA          1.3001  -13.9669  -48.5546 C.3       1 UNK         0.1400 
      6 C6          0.2252  -15.0597  -48.8118 C.3       23 UNK        -0.0398 
      7 S7          0.4384  -15.8329  -50.4557 S.3       23 UNK        -0.2404 
      8 C8          0.5536  -17.5959  -50.0158 C.3       23 UNK        -0.0205 
      9 C9          1.2827  -18.4314  -51.0569 C.ar      23 UNK        -0.0193 
     10 C10         0.8502  -18.4617  -52.3853 C.ar      23 UNK        -0.1150 
     11 C11         1.5063  -19.2585  -53.3297 C.ar      23 UNK        -0.0193 
     12 C12         2.5868  -20.0504  -52.9310 C.ar      23 UNK        -0.1150 
     13 C13         3.0260  -20.0317  -51.6043 C.ar      23 UNK        -0.0193 
     14 C14         2.3784  -19.2107  -50.6770 C.ar      23 UNK        -0.1150 
     15 C15         4.2036  -20.8927  -51.1724 C.3       23 UNK        -0.0205 
     16 S16         3.6632  -22.5256  -50.5756 S.3       23 UNK        -0.2404 
     17 C17         2.8289  -22.0720  -49.0155 C.3       23 UNK        -0.0398 
     18 CA          2.7174  -23.2394  -48.0073 C.3       11 UNK         0.1400 
     19 N           2.4374  -22.7454  -46.6581 N.am      11 UNK        -0.5000 
     20 C           2.6534  -23.4417  -45.5352 C.2       10 UNK         0.5000 
     21 O           3.0250  -24.6160  -45.5221 O.2       10 UNK        -0.5000 
     22 CA          2.4806  -22.6904  -44.2018 C.3       10 UNK         0.1400 
     23 CB          3.6969  -21.7907  -43.9314 C.3       10 UNK        -0.1800 
     24 N           1.2678  -21.8776  -44.1467 N.am      10 UNK        -0.5000 
     25 C           0.0397  -22.3668  -43.9290 C.2       9 UNK         0.5000 
     26 O          -0.1948  -23.5616  -43.7597 O.2       9 UNK        -0.5000 
     27 CA         -1.1216  -21.3567  -43.8875 C.3       9 UNK         0.1400 
     28 CB         -1.3234  -20.8042  -42.4682 C.3       9 UNK        -0.1800 
     29 N          -0.8830  -20.2502  -44.8114 N.am      9 UNK        -0.5000 
     30 C          -1.2680  -20.2559  -46.0935 C.2       8 UNK         0.5000 
     31 O          -2.0143  -21.1099  -46.5712 O.2       8 UNK        -0.5000 
     32 CA         -0.7575  -19.1176  -46.9956 C.3       8 UNK         0.1400 
     33 CB         -1.8853  -18.1259  -47.3091 C.3       8 UNK        -0.1800 
     34 N           0.3740  -18.3917  -46.4187 N.am      8 UNK        -0.5000 
     35 C           1.6329  -18.8508  -46.4156 C.2       7 UNK         0.5000 
     36 O           1.9590  -19.9304  -46.9026 O.2       7 UNK        -0.5000 
     37 CA          2.7003  -17.9926  -45.7140 C.3       7 UNK         0.1400 
     38 CB          3.3516  -17.0281  -46.7148 C.3       7 UNK        -0.1800 
     39 N           2.1736  -17.2431  -44.5728 N.am      7 UNK        -0.5000 
     40 C           1.6589  -17.8105  -43.4726 C.2       6 UNK         0.5000 
     41 O           1.5892  -19.0308  -43.3135 O.2       6 UNK        -0.5000 
     42 CA          1.0612  -16.8812  -42.3953 C.3       6 UNK         0.1400 
     43 CB          1.4075  -15.3872  -42.5912 C.3       6 UNK        -0.1800 
     44 N          -0.3931  -17.0461  -42.2766 N.am      6 UNK        -0.5000 
     45 C          -1.2892  -16.9254  -43.2671 C.2       5 UNK         0.5000 
     46 O          -0.9713  -16.7336  -44.4420 O.2       5 UNK        -0.5000 
     47 CA         -2.7867  -16.9840  -42.9098 C.3       5 UNK         0.1400 
     48 CB         -3.0613  -16.7459  -41.4059 C.3       5 UNK        -0.1800 
     49 N          -3.4019  -15.9648  -43.7506 N.am      5 UNK        -0.5000 
     50 C          -4.6534  -15.4999  -43.7916 C.2       4 UNK         0.5000 
     51 O          -5.5794  -15.9366  -43.1066 O.2       4 UNK        -0.5000 
     52 CA         -4.8738  -14.2970  -44.7394 C.3       4 UNK         0.1400 
     53 CB         -6.3009  -13.7262  -44.6602 C.3       4 UNK        -0.1800 
     54 N          -3.9135  -13.2282  -44.4409 N.am      4 UNK        -0.5000 
     55 C          -2.6475  -13.1953  -44.8768 C.2       3 UNK         0.5000 
     56 O          -2.1988  -13.9821  -45.7136 O.2       3 UNK        -0.5000 
     57 CA         -1.7184  -12.1760  -44.2011 C.3       3 UNK         0.1400 
     58 CB         -1.5532  -12.4973  -42.7007 C.3       3 UNK        -0.1800 
     59 N          -0.4149  -12.2170  -44.8531 N.am      3 UNK        -0.5000 
     60 C           0.5275  -11.2731  -44.7985 C.2       2 UNK         0.5000 
     61 O           0.3913  -10.2180  -44.1774 O.2       2 UNK        -0.5000 
     62 CA          1.8405  -11.5189  -45.5706 C.3       2 UNK         0.1400 
     63 CB          2.8985  -12.1849  -44.6691 C.3       2 UNK        -0.1800 
     64 N           1.6916  -12.2342  -46.8461 N.am      2 UNK        -0.5000 
     65 C           1.3541  -13.5125  -47.0747 C.2       1 UNK         0.5000 
     66 O           1.1208  -14.3222  -46.1768 O.2       1 UNK        -0.5000 
     67 C           1.6753  -24.2725  -48.4784 C.2       11 UNK         0.5000 
     68 O           0.4751  -24.0445  -48.3129 O.2       11 UNK        -0.5000 
     69 N           2.1885  -25.3405  -49.1089 N.am      12 UNK        -0.5000 
     70 CA          1.5250  -26.3574  -49.9296 C.3       12 UNK         0.1400 
     71 CB          1.5571  -25.9217  -51.4082 C.3       12 UNK        -0.1800 
     72 C           0.1312  -26.8072  -49.4492 C.2       12 UNK         0.5000 
     73 O           0.0491  -27.7136  -48.6185 O.2       12 UNK        -0.5000 
     74 N          -0.9322  -26.2000  -49.9943 N.am      13 UNK        -0.5000 
     75 CA         -2.3200  -26.5713  -49.7153 C.3       13 UNK         0.1400 
     76 CB         -3.2226  -26.0591  -50.8486 C.3       13 UNK        -0.1800 
     77 C          -2.8308  -26.0915  -48.3430 C.2       13 UNK         0.5000 
     78 O          -3.8504  -26.6081  -47.8840 O.2       13 UNK        -0.5000 
     79 N          -2.1323  -25.1293  -47.7159 N.am      14 UNK        -0.5000 
     80 CA         -2.4038  -24.5632  -46.3865 C.3       14 UNK         0.1400 
     81 CB         -2.1458  -25.6250  -45.2967 C.3       14 UNK        -0.1800 
     82 C          -3.8032  -23.9173  -46.2657 C.2       14 UNK         0.5000 
     83 O          -4.4316  -23.9810  -45.2075 O.2       14 UNK        -0.5000 
     84 N          -4.2818  -23.3362  -47.3732 N.am      15 UNK        -0.5000 
     85 CA         -5.6542  -22.8600  -47.5424 C.3       15 UNK         0.1400 
     86 CB         -5.9367  -22.7122  -49.0436 C.3       15 UNK        -0.1800 
     87 C          -5.9684  -21.5367  -46.8225 C.2       15 UNK         0.5000 
     88 O          -7.1455  -21.1943  -46.7097 O.2       15 UNK        -0.5000 
     89 N          -4.9361  -20.7891  -46.4043 N.am      16 UNK        -0.5000 
     90 CA         -4.9673  -19.4739  -45.7456 C.3       16 UNK         0.1400 
     91 CB         -5.7461  -19.5215  -44.4183 C.3       16 UNK        -0.1800 
     92 C          -5.4456  -18.3089  -46.6392 C.2       16 UNK         0.5000 
     93 O          -4.9454  -17.1958  -46.4896 O.2       16 UNK        -0.5000 
     94 N          -6.3607  -18.5645  -47.5798 N.am      17 UNK        -0.5000 
     95 CA         -6.9184  -17.6004  -48.5302 C.3       17 UNK         0.1400 
     96 CB         -8.2756  -18.1323  -49.0252 C.3       17 UNK        -0.1800 
     97 C          -5.9499  -17.2514  -49.6847 C.2       17 UNK         0.5000 
     98 O          -6.3099  -17.3945  -50.8550 O.2       17 UNK        -0.5000 
     99 N          -4.7406  -16.7933  -49.3278 N.am      18 UNK        -0.5000 
    100 CA        -3.6699  -16.2818  -50.1915 C.3       18 UNK         0.1400 
    101 CB        -3.9904  -14.8314  -50.6113 C.3       18 UNK        -0.1800 
    102 C         -3.3495  -17.2174  -51.3765 C.2       18 UNK         0.5000 
    103 O         -2.7892  -18.2913  -51.1616 O.2       18 UNK        -0.5000 
    104 N         -3.7451  -16.8178  -52.5932 N.am      19 UNK        -0.5000 
    105 CA        -3.5467  -17.5380  -53.8543 C.3       19 UNK         0.1400 
    106 CB        -4.0182  -16.6414  -55.0096 C.3       19 UNK        -0.1800 
    107 C         -4.2178  -18.9270  -53.9360 C.2       19 UNK         0.5000 
    108 O         -3.9017  -19.6928  -54.8461 O.2       19 UNK        -0.5000 
    109 N         -5.1135  -19.2539  -52.9950 N.am      20 UNK        -0.5000 
    110 CA        -5.6629  -20.6003  -52.8323 C.3       20 UNK         0.1400 
    111 CB        -6.8800  -20.5317  -51.8988 C.3       20 UNK        -0.1800 
    112 C         -4.6328  -21.6105  -52.2830 C.2       20 UNK         0.5000 
    113 O         -4.8098  -22.8135  -52.4754 O.2       20 UNK        -0.5000 
    114 N         -3.5969  -21.1212  -51.5843 N.am      21 UNK        -0.5000 
    115 CA        -2.6250  -21.9451  -50.8650 C.3       21 UNK         0.1400 
    116 CB        -1.9477  -21.0920  -49.7884 C.3       21 UNK        -0.1800 
    117 C         -1.5594  -22.6050  -51.7541 C.2       21 UNK         0.5000 
    118 O         -0.8858  -23.5158  -51.2759 O.2       21 UNK        -0.5000 
    119 N         -1.4135  -22.1428  -53.0028 N.am      22 UNK        -0.5000 
    120 CA        -0.3360  -22.5286  -53.9328 C.3       22 UNK         0.1400 
    121 C         -0.2623  -24.0395  -54.3124 C.2       22 UNK         0.5000 
    122 N         -1.3058  -24.8324  -54.1005 N.am      22 UNK        -0.7600 
    123 O          0.7593  -24.4954  -54.8182 O.2       22 UNK        -0.5000 
    124 C124       -0.3375  -21.6745  -55.2301 C.3       23 UNK        -0.0398 
    125 S125       -0.6147  -19.8855  -54.9958 S.3       23 UNK        -0.2404 
    126 C126        1.0660  -19.2307  -54.7845 C.3       23 UNK        -0.0205 
    127 H127        1.3135  -11.0444  -51.3045 H         1 UNK         0.0600 
    128 H128        0.2792   -9.9600  -50.3699 H         1 UNK         0.0600 
    129 H129       -0.4370  -11.0829  -51.5308 H         1 UNK         0.0600 
    130 H130        2.0452  -12.7571  -50.1103 H         1 UNK         0.3000 
    131 H131        2.2723  -14.4317  -48.7250 H         1 UNK         0.0600 
    132 H132       -0.7820  -14.6477  -48.7390 H         1 UNK         0.0800 
    133 H133        0.2795  -15.8325  -48.0453 H         1 UNK         0.0800 
    134 H134       -0.4505  -17.9972  -49.8861 H         1 UNK         0.0800 
    135 H135        1.0607  -17.6907  -49.0571 H         1 UNK         0.0800 
    136 H136        0.0026  -17.8610  -52.6849 H         1 UNK         0.1150 
    137 H137        3.0926  -20.6756  -53.6534 H         1 UNK         0.1150 
    138 H138        2.7174  -19.1947  -49.6508 H         1 UNK         0.1150 
    139 H139        4.8854  -21.0347  -52.0122 H         1 UNK         0.0800 
    140 H140        4.7812  -20.3869  -50.3971 H         1 UNK         0.0800 
    141 H141        1.8468  -21.6481  -49.2355 H         1 UNK         0.0800 
    142 H142        3.4159  -21.2709  -48.5659 H         1 UNK         0.0800 
    143 H143        3.6939  -23.7276  -47.9623 H         1 UNK         0.0600 
    144 H144        2.1295  -21.7787  -46.5968 H         1 UNK         0.3000 
    145 H145        2.4343  -23.4349  -43.4039 H         1 UNK         0.0600 
    146 H146        3.6161  -21.2996  -42.9614 H         1 UNK         0.0600 
    147 H147        4.6197  -22.3721  -43.9266 H         1 UNK         0.0600 
    148 H148        3.8011  -21.0151  -44.6905 H         1 UNK         0.0600 
    149 H149        1.3921  -20.8733  -44.1908 H         1 UNK         0.3000 
    150 H150       -2.0346  -21.8869  -44.1682 H         1 UNK         0.0600 
    151 H151       -1.5098  -21.6129  -41.7605 H         1 UNK         0.0600 
    152 H152       -2.1814  -20.1339  -42.4257 H         1 UNK         0.0600 
    153 H153       -0.4499  -20.2562  -42.1149 H         1 UNK         0.0600 
    154 H154       -0.2630  -19.5167  -44.4944 H         1 UNK         0.3000 
    155 H155       -0.4318  -19.5701  -47.9335 H         1 UNK         0.0600 
    156 H156       -2.3181  -17.7070  -46.4020 H         1 UNK         0.0600 
    157 H157       -2.6871  -18.6081  -47.8679 H         1 UNK         0.0600 
    158 H158       -1.5299  -17.2930  -47.9100 H         1 UNK         0.0600 
    159 H159        0.1513  -17.5379  -45.9136 H         1 UNK         0.3000 
    160 H160        3.4740  -18.6658  -45.3401 H         1 UNK         0.0600 
    161 H161        2.6197  -16.3509  -47.1517 H         1 UNK         0.0600 
    162 H162        3.8190  -17.5751  -47.5347 H         1 UNK         0.0600 
    163 H163        4.1269  -16.4265  -46.2401 H         1 UNK         0.0600 
    164 H164        2.1165  -16.2384  -44.6745 H         1 UNK         0.3000 
    165 H165        1.4937  -17.2005  -41.4461 H         1 UNK         0.0600 
    166 H166        1.0489  -14.7933  -41.7506 H         1 UNK         0.0600 
    167 H167        2.4857  -15.2346  -42.6520 H         1 UNK         0.0600 
    168 H168        0.9587  -14.9737  -43.4953 H         1 UNK         0.0600 
    169 H169       -0.7351  -17.2235  -41.3432 H         1 UNK         0.3000 
    170 H170       -3.1709  -17.9603  -43.2077 H         1 UNK         0.0600 
    171 H171       -2.5824  -17.5065  -40.7884 H         1 UNK         0.0600 
    172 H172       -2.7002  -15.7694  -41.0802 H         1 UNK         0.0600 
    173 H173       -4.1246  -16.7990  -41.1762 H         1 UNK         0.0600 
    174 H174       -2.7403  -15.5655  -44.4132 H         1 UNK         0.3000 
    175 H175       -4.7153  -14.6490  -45.7606 H         1 UNK         0.0600 
    176 H176       -6.5360  -13.3633  -43.6590 H         1 UNK         0.0600 
    177 H177       -6.4329  -12.8988  -45.3575 H         1 UNK         0.0600 
    178 H178       -7.0388  -14.4871  -44.9179 H         1 UNK         0.0600 
    179 H179       -4.1986  -12.5678  -43.7322 H         1 UNK         0.3000 
    180 H180       -2.1533  -11.1824  -44.3254 H         1 UNK         0.0600 
    181 H181       -1.1502  -13.4999  -42.5505 H         1 UNK         0.0600 
    182 H182       -2.5060  -12.4449  -42.1733 H         1 UNK         0.0600 
    183 H183       -0.8811  -11.7922  -42.2118 H         1 UNK         0.0600 
    184 H184       -0.2380  -13.0606  -45.3938 H         1 UNK         0.3000 
    185 H185        2.2231  -10.5331  -45.8394 H         1 UNK         0.0600 
    186 H186        3.0897  -11.5782  -43.7832 H         1 UNK         0.0600 
    187 H187        2.5815  -13.1683  -44.3233 H         1 UNK         0.0600 
    188 H188        3.8467  -12.3026  -45.1934 H         1 UNK         0.0600 
    189 H189        1.8346  -11.6624  -47.6664 H         1 UNK         0.3000 
    190 H190        3.1960  -25.4086  -49.1224 H         1 UNK         0.3000 
    191 H191        2.1510  -27.2482  -49.8571 H         1 UNK         0.0600 
    192 H192        1.1783  -24.9108  -51.5447 H         1 UNK         0.0600 
    193 H193        0.9694  -26.5890  -52.0401 H         1 UNK         0.0600 
    194 H194        2.5771  -25.9335  -51.7923 H         1 UNK         0.0600 
    195 H195       -0.7842  -25.3941  -50.5966 H         1 UNK         0.3000 
    196 H196       -2.3836  -27.6615  -49.7143 H         1 UNK         0.0600 
    197 H197       -3.2368  -24.9725  -50.8968 H         1 UNK         0.0600 
    198 H198       -4.2522  -26.3903  -50.7075 H         1 UNK         0.0600 
    199 H199       -2.8915  -26.4336  -51.8172 H         1 UNK         0.0600 
    200 H200       -1.2843  -24.7828  -48.1614 H         1 UNK         0.3000 
    201 H201       -1.6801  -23.7602  -46.2445 H         1 UNK         0.0600 
    202 H202       -1.1326  -26.0206  -45.3689 H         1 UNK         0.0600 
    203 H203       -2.8407  -26.4617  -45.3694 H         1 UNK         0.0600 
    204 H204       -2.2549  -25.1999  -44.2986 H         1 UNK         0.0600 
    205 H205       -3.6854  -23.3147  -48.1854 H         1 UNK         0.3000 
    206 H206       -6.3289  -23.6195  -47.1418 H         1 UNK         0.0600 
    207 H207       -5.7088  -23.6282  -49.5894 H         1 UNK         0.0600 
    208 H208       -6.9871  -22.4798  -49.2241 H         1 UNK         0.0600 
    209 H209       -5.3468  -21.9036  -49.4726 H         1 UNK         0.0600 
    210 H210       -4.0016  -21.1514  -46.5739 H         1 UNK         0.3000 
    211 H211       -3.9325  -19.2529  -45.4877 H         1 UNK         0.0600 
    212 H212       -6.8111  -19.6946  -44.5724 H         1 UNK         0.0600 
    213 H213       -5.6483  -18.5797  -43.8781 H         1 UNK         0.0600 
    214 H214       -5.3666  -20.3093  -43.7675 H         1 UNK         0.0600 
    215 H215       -6.7463  -19.5025  -47.6016 H         1 UNK         0.3000 
    216 H216       -7.1121  -16.6677  -47.9963 H         1 UNK         0.0600 
    217 H217       -8.7435  -17.4341  -49.7204 H         1 UNK         0.0600 
    218 H218       -8.9680  -18.2720  -48.1949 H         1 UNK         0.0600 
    219 H219       -8.1738  -19.0893  -49.5365 H         1 UNK         0.0600 
    220 H220       -4.5531  -16.7622  -48.3296 H         1 UNK         0.3000 
    221 H221       -2.7660  -16.2487  -49.5838 H         1 UNK         0.0600 
    222 H222       -4.9303  -14.7585  -51.1598 H         1 UNK         0.0600 
    223 H223       -4.0711  -14.1861  -49.7363 H         1 UNK         0.0600 
    224 H224       -3.1990  -14.4174  -51.2380 H         1 UNK         0.0600 
    225 H225       -4.2444  -15.9431  -52.6589 H         1 UNK         0.3000 
    226 H226       -2.4731  -17.6996  -53.9658 H         1 UNK         0.0600 
    227 H227       -3.4787  -15.6942  -55.0207 H         1 UNK         0.0600 
    228 H228       -3.8459  -17.1213  -55.9740 H         1 UNK         0.0600 
    229 H229       -5.0843  -16.4223  -54.9372 H         1 UNK         0.0600 
    230 H230       -5.3641  -18.5661  -52.2918 H         1 UNK         0.3000 
    231 H231       -5.9988  -20.9605  -53.8069 H         1 UNK         0.0600 
    232 H232       -7.6296  -19.8341  -52.2730 H         1 UNK         0.0600 
    233 H233       -6.5928  -20.2109  -50.8975 H         1 UNK         0.0600 
    234 H234       -7.3584  -21.5075  -51.8062 H         1 UNK         0.0600 
    235 H235       -3.4842  -20.1152  -51.4932 H         1 UNK         0.3000 
    236 H236       -3.1659  -22.7441  -50.3573 H         1 UNK         0.0600 
    237 H237       -2.6872  -20.6202  -49.1426 H         1 UNK         0.0600 
    238 H238       -1.3000  -21.7033  -49.1579 H         1 UNK         0.0600 
    239 H239       -1.3292  -20.3090  -50.2277 H         1 UNK         0.0600 
    240 H240       -2.0134  -21.3913  -53.3117 H         1 UNK         0.3000 
    241 H241        0.5954  -22.3125  -53.4062 H         1 UNK         0.0600 
    242 H242       -1.2497  -25.8056  -54.3541 H         1 UNK         0.3800 
    243 H243       -2.1452  -24.4665  -53.6808 H         1 UNK         0.3800 
    244 H244       -1.1311  -22.0197  -55.8955 H         1 UNK         0.0800 
    245 H245        0.5932  -21.8200  -55.7809 H         1 UNK         0.0800 
    246 H246        1.7649  -19.7719  -55.4238 H         1 UNK         0.0800 
    247 H247        1.0794  -18.1960  -55.1295 H         1 UNK         0.0800 
@<TRIPOS>BOND
     1    1    2 1    
     2    1  127 1    
     3    1  128 1    
     4    1  129 1    
     5    2    3 2    
     6    2    4 am   BACKBONE|DICT|INTERRES
     7    4    5 1    
     8    4  130 1    
     9    5    6 1    
    10    5   65 1    
    11    5  131 1    
    12    6    7 1    
    13    6  132 1    
    14    6  133 1    
    15    7    8 1    
    16    8    9 1    
    17    8  134 1    
    18    8  135 1    
    19    9   10 ar   
    20    9   14 ar   
    21   10   11 ar   
    22   10  136 1    
    23   11   12 ar   
    24   11  126 1    
    25   12   13 ar   
    26   12  137 1    
    27   13   14 ar   
    28   13   15 1    
    29   14  138 1    
    30   15   16 1    
    31   15  139 1    
    32   15  140 1    
    33   16   17 1    
    34   17   18 1    
    35   17  141 1    
    36   17  142 1    
    37   18   19 1    
    38   18   67 1    
    39   18  143 1    
    40   19   20 am   BACKBONE|DICT|INTERRES
    41   19  144 1    
    42   20   21 2    
    43   20   22 1    
    44   22   23 1    
    45   22   24 1    
    46   22  145 1    
    47   23  146 1    
    48   23  147 1    
    49   23  148 1    
    50   24   25 am   BACKBONE|DICT|INTERRES
    51   24  149 1    
    52   25   26 2    
    53   25   27 1    
    54   27   28 1    
    55   27   29 1    
    56   27  150 1    
    57   28  151 1    
    58   28  152 1    
    59   28  153 1    
    60   29   30 am   BACKBONE|DICT|INTERRES
    61   29  154 1    
    62   30   31 2    
    63   30   32 1    
    64   32   33 1    
    65   32   34 1    
    66   32  155 1    
    67   33  156 1    
    68   33  157 1    
    69   33  158 1    
    70   34   35 am   BACKBONE|DICT|INTERRES
    71   34  159 1    
    72   35   36 2    
    73   35   37 1    
    74   37   38 1    
    75   37   39 1    
    76   37  160 1    
    77   38  161 1    
    78   38  162 1    
    79   38  163 1    
    80   39   40 am   BACKBONE|DICT|INTERRES
    81   39  164 1    
    82   40   41 2    
    83   40   42 1    
    84   42   43 1    
    85   42   44 1    
    86   42  165 1    
    87   43  166 1    
    88   43  167 1    
    89   43  168 1    
    90   44   45 am   BACKBONE|DICT|INTERRES
    91   44  169 1    
    92   45   46 2    
    93   45   47 1    
    94   47   48 1    
    95   47   49 1    
    96   47  170 1    
    97   48  171 1    
    98   48  172 1    
    99   48  173 1    
   100   49   50 am   BACKBONE|DICT|INTERRES
   101   49  174 1    
   102   50   51 2    
   103   50   52 1    
   104   52   53 1    
   105   52   54 1    
   106   52  175 1    
   107   53  176 1    
   108   53  177 1    
   109   53  178 1    
   110   54   55 am   BACKBONE|DICT|INTERRES
   111   54  179 1    
   112   55   56 2    
   113   55   57 1    
   114   57   58 1    
   115   57   59 1    
   116   57  180 1    
   117   58  181 1    
   118   58  182 1    
   119   58  183 1    
   120   59   60 am   BACKBONE|DICT|INTERRES
   121   59  184 1    
   122   60   61 2    
   123   60   62 1    
   124   62   63 1    
   125   62   64 1    
   126   62  185 1    
   127   63  186 1    
   128   63  187 1    
   129   63  188 1    
   130   64   65 am   BACKBONE|DICT|INTERRES
   131   64  189 1    
   132   65   66 2    
   133   67   68 2    
   134   67   69 am   BACKBONE|DICT|INTERRES
   135   69   70 1    
   136   69  190 1    
   137   70   71 1    
   138   70   72 1    
   139   70  191 1    
   140   71  192 1    
   141   71  193 1    
   142   71  194 1    
   143   72   73 2    
   144   72   74 am   BACKBONE|DICT|INTERRES
   145   74   75 1    
   146   74  195 1    
   147   75   76 1    
   148   75   77 1    
   149   75  196 1    
   150   76  197 1    
   151   76  198 1    
   152   76  199 1    
   153   77   78 2    
   154   77   79 am   BACKBONE|DICT|INTERRES
   155   79   80 1    
   156   79  200 1    
   157   80   81 1    
   158   80   82 1    
   159   80  201 1    
   160   81  202 1    
   161   81  203 1    
   162   81  204 1    
   163   82   83 2    
   164   82   84 am   BACKBONE|DICT|INTERRES
   165   84   85 1    
   166   84  205 1    
   167   85   86 1    
   168   85   87 1    
   169   85  206 1    
   170   86  207 1    
   171   86  208 1    
   172   86  209 1    
   173   87   88 2    
   174   87   89 am   BACKBONE|DICT|INTERRES
   175   89   90 1    
   176   89  210 1    
   177   90   91 1    
   178   90   92 1    
   179   90  211 1    
   180   91  212 1    
   181   91  213 1    
   182   91  214 1    
   183   92   93 2    
   184   92   94 am   BACKBONE|DICT|INTERRES
   185   94   95 1    
   186   94  215 1    
   187   95   96 1    
   188   95   97 1    
   189   95  216 1    
   190   96  217 1    
   191   96  218 1    
   192   96  219 1    
   193   97   98 2    
   194   97   99 am   BACKBONE|DICT|INTERRES
   195   99  100 1    
   196   99  220 1    
   197  100  101 1    
   198  100  102 1    
   199  100  221 1    
   200  101  222 1    
   201  101  223 1    
   202  101  224 1    
   203  102  103 2    
   204  102  104 am   BACKBONE|DICT|INTERRES
   205  104  105 1    
   206  104  225 1    
   207  105  106 1    
   208  105  107 1    
   209  105  226 1    
   210  106  227 1    
   211  106  228 1    
   212  106  229 1    
   213  107  108 2    
   214  107  109 am   BACKBONE|DICT|INTERRES
   215  109  110 1    
   216  109  230 1    
   217  110  111 1    
   218  110  112 1    
   219  110  231 1    
   220  111  232 1    
   221  111  233 1    
   222  111  234 1    
   223  112  113 2    
   224  112  114 am   BACKBONE|DICT|INTERRES
   225  114  115 1    
   226  114  235 1    
   227  115  116 1    
   228  115  117 1    
   229  115  236 1    
   230  116  237 1    
   231  116  238 1    
   232  116  239 1    
   233  117  118 2    
   234  117  119 am   BACKBONE|DICT|INTERRES
   235  119  120 1    
   236  119  240 1    
   237  120  121 1    
   238  120  124 1    
   239  120  241 1    
   240  121  122 am   BACKBONE|DICT|INTERRES
   241  121  123 2    
   242  122  242 1    
   243  122  243 1    
   244  124  125 1    
   245  124  244 1    
   246  124  245 1    
   247  125  126 1    
   248  126  246 1    
   249  126  247 1    
@<TRIPOS>SUBSTRUCTURE
     1 UNK         1 GROUP             0       ****    0 ROOT    
