@<TRIPOS>MOLECULE
3R540
247   249    1
SMALL
USER_CHARGES


@<TRIPOS>ATOM
      1 CA          6.2966  -14.5932  -45.9569 C.3       0 UNK        -0.1800 
      2 C           5.0498  -13.8839  -45.4520 C.2       0 UNK         0.5000 
      3 O           4.8001  -13.8598  -44.2477 O.2       0 UNK        -0.5000 
      4 N           4.2634  -13.2873  -46.3586 N.am      1 UNK        -0.5000 
      5 CA          3.0545  -12.5202  -46.0234 C.3       1 UNK         0.1400 
      6 C6          2.1597  -12.2480  -47.2559 C.3       23 UNK        -0.0398 
      7 S7          1.1688  -13.7173  -47.6685 S.3       23 UNK        -0.2404 
      8 C8          1.6542  -14.0698  -49.3851 C.3       23 UNK        -0.0205 
      9 C9          0.8222  -15.2106  -49.9556 C.ar      23 UNK        -0.0193 
     10 C10        -0.4864  -14.9721  -50.3830 C.ar      23 UNK        -0.1150 
     11 C11        -1.2653  -16.0129  -50.8927 C.ar      23 UNK        -0.0193 
     12 C12        -0.7247  -17.2980  -50.9803 C.ar      23 UNK        -0.1150 
     13 C13         0.5778  -17.5643  -50.5406 C.ar      23 UNK        -0.0193 
     14 C14         1.3469  -16.5043  -50.0457 C.ar      23 UNK        -0.1150 
     15 C15         1.1993  -18.9664  -50.5775 C.3       23 UNK        -0.0205 
     16 S16         0.0660  -20.3672  -50.9138 S.3       23 UNK        -0.2404 
     17 C17        -1.0943  -20.3123  -49.5057 C.3       23 UNK        -0.0398 
     18 CA         -1.0272  -21.5778  -48.6013 C.3       11 UNK         0.1400 
     19 N          -0.3609  -21.3152  -47.3201 N.am      11 UNK        -0.5000 
     20 C          -0.1032  -22.2275  -46.3708 C.2       10 UNK         0.5000 
     21 O          -0.3221  -23.4311  -46.5017 O.2       10 UNK        -0.5000 
     22 CA          0.4413  -21.7045  -45.0270 C.3       10 UNK         0.1400 
     23 CB          1.9570  -21.4681  -45.0988 C.3       10 UNK        -0.1800 
     24 N          -0.2367  -20.4859  -44.5769 N.am      10 UNK        -0.5000 
     25 C          -1.5345  -20.4244  -44.2425 C.2       9 UNK         0.5000 
     26 O          -2.2798  -21.4027  -44.2264 O.2       9 UNK        -0.5000 
     27 CA         -2.1173  -19.0339  -43.9266 C.3       9 UNK         0.1400 
     28 CB         -1.8090  -18.6145  -42.4819 C.3       9 UNK        -0.1800 
     29 N          -1.6440  -18.0061  -44.8518 N.am      9 UNK        -0.5000 
     30 C          -1.8794  -18.0078  -46.1720 C.2       8 UNK         0.5000 
     31 O          -2.5817  -18.8405  -46.7457 O.2       8 UNK        -0.5000 
     32 CA         -1.1466  -16.9364  -46.9940 C.3       8 UNK         0.1400 
     33 CB         -1.8956  -15.5974  -46.9278 C.3       8 UNK        -0.1800 
     34 N           0.2441  -16.7766  -46.5571 N.am      8 UNK        -0.5000 
     35 C           1.1795  -17.7314  -46.6718 C.2       7 UNK         0.5000 
     36 O           0.9706  -18.8220  -47.1969 O.2       7 UNK        -0.5000 
     37 CA          2.5606  -17.4654  -46.0476 C.3       7 UNK         0.1400 
     38 CB          3.5140  -16.7972  -47.0438 C.3       7 UNK        -0.1800 
     39 N           2.4826  -16.6871  -44.8114 N.am      7 UNK        -0.5000 
     40 C           1.9960  -17.1877  -43.6673 C.2       6 UNK         0.5000 
     41 O           1.5911  -18.3447  -43.5498 O.2       6 UNK        -0.5000 
     42 CA          1.9125  -16.2303  -42.4655 C.3       6 UNK         0.1400 
     43 CB          3.2632  -16.1653  -41.7384 C.3       6 UNK        -0.1800 
     44 N           1.4708  -14.8769  -42.8167 N.am      6 UNK        -0.5000 
     45 C           0.2864  -14.5838  -43.3755 C.2       5 UNK         0.5000 
     46 O          -0.5314  -15.4452  -43.7042 O.2       5 UNK        -0.5000 
     47 CA         -0.0266  -13.0930  -43.6363 C.3       5 UNK         0.1400 
     48 CB         -1.5409  -12.7935  -43.6367 C.3       5 UNK        -0.1800 
     49 N           0.6917  -12.1611  -42.7553 N.am      5 UNK        -0.5000 
     50 C           0.5399  -12.0292  -41.4286 C.2       4 UNK         0.5000 
     51 O          -0.2001  -12.7418  -40.7478 O.2       4 UNK        -0.5000 
     52 CA          1.3570  -10.8994  -40.7650 C.3       4 UNK         0.1400 
     53 CB          1.1564  -10.8259  -39.2365 C.3       4 UNK        -0.1800 
     54 N           2.7868  -10.9479  -41.0896 N.am      4 UNK        -0.5000 
     55 C           3.6434  -11.9523  -40.8539 C.2       3 UNK         0.5000 
     56 O           3.3115  -13.0280  -40.3565 O.2       3 UNK        -0.5000 
     57 CA          5.1139  -11.7047  -41.2532 C.3       3 UNK         0.1400 
     58 CB          5.9924  -12.9608  -41.1076 C.3       3 UNK        -0.1800 
     59 N           5.2101  -11.2140  -42.6279 N.am      3 UNK        -0.5000 
     60 C           5.1273   -9.9276  -42.9994 C.2       2 UNK         0.5000 
     61 O           5.0084   -8.9996  -42.1992 O.2       2 UNK        -0.5000 
     62 CA          5.1186   -9.6247  -44.5125 C.3       2 UNK         0.1400 
     63 CB          6.5325   -9.2716  -44.9978 C.3       2 UNK        -0.1800 
     64 N           4.5985  -10.7285  -45.3219 N.am      2 UNK        -0.5000 
     65 C           3.3534  -11.2210  -45.2446 C.2       1 UNK         0.5000 
     66 O           2.4682  -10.7287  -44.5428 O.2       1 UNK        -0.5000 
     67 C          -2.4321  -22.1776  -48.3834 C.2       11 UNK         0.5000 
     68 O          -2.7465  -23.2172  -48.9636 O.2       11 UNK        -0.5000 
     69 N          -3.2372  -21.5320  -47.5270 N.am      12 UNK        -0.5000 
     70 CA         -4.5777  -21.9747  -47.1426 C.3       12 UNK         0.1400 
     71 CB         -5.2399  -20.9121  -46.2537 C.3       12 UNK        -0.1800 
     72 C          -4.5822  -23.3546  -46.4596 C.2       12 UNK         0.5000 
     73 O          -5.3827  -24.2097  -46.8408 O.2       12 UNK        -0.5000 
     74 N          -3.6563  -23.5647  -45.5118 N.am      13 UNK        -0.5000 
     75 CA         -3.4451  -24.8295  -44.8000 C.3       13 UNK         0.1400 
     76 CB         -2.4101  -24.6246  -43.6842 C.3       13 UNK        -0.1800 
     77 C          -3.0246  -25.9934  -45.7183 C.2       13 UNK         0.5000 
     78 O          -3.3759  -27.1400  -45.4410 O.2       13 UNK        -0.5000 
     79 N          -2.3370  -25.6782  -46.8235 N.am      14 UNK        -0.5000 
     80 CA         -1.9716  -26.5996  -47.9012 C.3       14 UNK         0.1400 
     81 CB         -0.6928  -26.0798  -48.5833 C.3       14 UNK        -0.1800 
     82 C          -3.1176  -26.8268  -48.9152 C.2       14 UNK         0.5000 
     83 O          -2.8440  -27.1319  -50.0760 O.2       14 UNK        -0.5000 
     84 N          -4.3745  -26.6617  -48.4737 N.am      15 UNK        -0.5000 
     85 CA         -5.6218  -26.7930  -49.2339 C.3       15 UNK         0.1400 
     86 CB         -5.8371  -28.2521  -49.6888 C.3       15 UNK        -0.1800 
     87 C          -5.6998  -25.7822  -50.3930 C.2       15 UNK         0.5000 
     88 O          -6.0049  -26.1592  -51.5247 O.2       15 UNK        -0.5000 
     89 N          -5.3636  -24.5188  -50.0926 N.am      16 UNK        -0.5000 
     90 CA         -5.2254  -23.4017  -51.0364 C.3       16 UNK         0.1400 
     91 CB         -6.5938  -23.0145  -51.6335 C.3       16 UNK        -0.1800 
     92 C          -4.1589  -23.6843  -52.1154 C.2       16 UNK         0.5000 
     93 O          -4.3710  -23.3858  -53.2908 O.2       16 UNK        -0.5000 
     94 N          -3.0442  -24.2951  -51.6957 N.am      17 UNK        -0.5000 
     95 CA         -1.9450  -24.8131  -52.5192 C.3       17 UNK         0.1400 
     96 CB         -1.2331  -23.6684  -53.2697 C.3       17 UNK        -0.1800 
     97 C          -2.3510  -25.9782  -53.4550 C.2       17 UNK         0.5000 
     98 O          -1.6161  -26.2808  -54.3960 O.2       17 UNK        -0.5000 
     99 N          -3.4912  -26.6209  -53.1603 N.am      18 UNK        -0.5000 
    100 CA        -4.0898  -27.7845  -53.8179 C.3       18 UNK         0.1400 
    101 CB        -3.2755  -29.0466  -53.4663 C.3       18 UNK        -0.1800 
    102 C         -4.2957  -27.6115  -55.3432 C.2       18 UNK         0.5000 
    103 O         -3.6392  -28.3026  -56.1228 O.2       18 UNK        -0.5000 
    104 N         -5.1811  -26.7210  -55.8106 N.am      19 UNK        -0.5000 
    105 CA        -6.0409  -25.7918  -55.0834 C.3       19 UNK         0.1400 
    106 CB        -7.3548  -26.4823  -54.6724 C.3       19 UNK        -0.1800 
    107 C         -6.2921  -24.6118  -56.0331 C.2       19 UNK         0.5000 
    108 O         -7.0018  -24.7849  -57.0267 O.2       19 UNK        -0.5000 
    109 N         -5.6646  -23.4625  -55.7612 N.am      20 UNK        -0.5000 
    110 CA        -5.6953  -22.2808  -56.6305 C.3       20 UNK         0.1400 
    111 CB        -4.7487  -22.4937  -57.8289 C.3       20 UNK        -0.1800 
    112 C         -5.3554  -20.9592  -55.9142 C.2       20 UNK         0.5000 
    113 O         -5.6319  -19.8971  -56.4755 O.2       20 UNK        -0.5000 
    114 N         -4.7465  -21.0188  -54.7223 N.am      21 UNK        -0.5000 
    115 CA        -4.3322  -19.8534  -53.9400 C.3       21 UNK         0.1400 
    116 CB        -3.1682  -20.2666  -53.0201 C.3       21 UNK        -0.1800 
    117 C         -5.4964  -19.2320  -53.1391 C.2       21 UNK         0.5000 
    118 O         -6.6494  -19.6487  -53.2695 O.2       21 UNK        -0.5000 
    119 N         -5.1598  -18.2376  -52.3102 N.am      22 UNK        -0.5000 
    120 CA        -6.0809  -17.5115  -51.4202 C.3       22 UNK         0.1400 
    121 C         -6.6473  -18.3307  -50.2200 C.2       22 UNK         0.5000 
    122 N         -6.1166  -19.5053  -49.9026 N.am      22 UNK        -0.7600 
    123 O         -7.5971  -17.8955  -49.5747 O.2       22 UNK        -0.5000 
    124 C124       -5.4669  -16.1625  -50.9596 C.3       23 UNK        -0.0398 
    125 S125       -3.8745  -16.3436  -50.0777 S.3       23 UNK        -0.2404 
    126 C126       -2.6966  -15.7621  -51.3368 C.3       23 UNK        -0.0205 
    127 H127        6.2797  -14.7172  -47.0399 H         1 UNK         0.0600 
    128 H128        6.3786  -15.5800  -45.5016 H         1 UNK         0.0600 
    129 H129        7.1849  -14.0210  -45.6898 H         1 UNK         0.0600 
    130 H130        4.5065  -13.3322  -47.3381 H         1 UNK         0.3000 
    131 H131        2.4872  -13.1363  -45.3246 H         1 UNK         0.0600 
    132 H132        1.4470  -11.4439  -47.0616 H         1 UNK         0.0800 
    133 H133        2.7539  -11.9249  -48.1120 H         1 UNK         0.0800 
    134 H134        1.5145  -13.1762  -49.9951 H         1 UNK         0.0800 
    135 H135        2.7172  -14.3120  -49.4220 H         1 UNK         0.0800 
    136 H136       -0.9016  -13.9772  -50.3033 H         1 UNK         0.1150 
    137 H137       -1.3394  -18.0894  -51.3753 H         1 UNK         0.1150 
    138 H138        2.3582  -16.6907  -49.7183 H         1 UNK         0.1150 
    139 H139        1.9709  -18.9706  -51.3482 H         1 UNK         0.0800 
    140 H140        1.7133  -19.1625  -49.6367 H         1 UNK         0.0800 
    141 H141       -2.0853  -20.1697  -49.9414 H         1 UNK         0.0800 
    142 H142       -0.9198  -19.4093  -48.9238 H         1 UNK         0.0800 
    143 H143       -0.4425  -22.3495  -49.1063 H         1 UNK         0.0600 
    144 H144       -0.0721  -20.3542  -47.1529 H         1 UNK         0.3000 
    145 H145        0.2609  -22.4753  -44.2752 H         1 UNK         0.0600 
    146 H146        2.3480  -21.1148  -44.1445 H         1 UNK         0.0600 
    147 H147        2.4813  -22.3923  -45.3443 H         1 UNK         0.0600 
    148 H148        2.2181  -20.7349  -45.8606 H         1 UNK         0.0600 
    149 H149        0.3251  -19.6439  -44.5131 H         1 UNK         0.3000 
    150 H150       -3.2019  -19.0982  -44.0341 H         1 UNK         0.0600 
    151 H151       -2.1980  -19.3465  -41.7731 H         1 UNK         0.0600 
    152 H152       -2.2675  -17.6543  -42.2443 H         1 UNK         0.0600 
    153 H153       -0.7377  -18.5243  -42.3046 H         1 UNK         0.0600 
    154 H154       -1.0809  -17.2575  -44.4603 H         1 UNK         0.3000 
    155 H155       -1.1404  -17.2597  -48.0357 H         1 UNK         0.0600 
    156 H156       -2.9478  -15.7280  -47.1831 H         1 UNK         0.0600 
    157 H157       -1.4863  -14.8790  -47.6355 H         1 UNK         0.0600 
    158 H158       -1.8552  -15.1560  -45.9341 H         1 UNK         0.0600 
    159 H159        0.4801  -15.9100  -46.0985 H         1 UNK         0.3000 
    160 H160        2.9926  -18.4373  -45.8001 H         1 UNK         0.0600 
    161 H161        3.1751  -15.8038  -47.3314 H         1 UNK         0.0600 
    162 H162        3.6060  -17.3960  -47.9499 H         1 UNK         0.0600 
    163 H163        4.5142  -16.7097  -46.6237 H         1 UNK         0.0600 
    164 H164        2.8077  -15.7319  -44.8311 H         1 UNK         0.3000 
    165 H165        1.1766  -16.6445  -41.7733 H         1 UNK         0.0600 
    166 H166        3.1756  -15.6284  -40.7946 H         1 UNK         0.0600 
    167 H167        3.6318  -17.1650  -41.5045 H         1 UNK         0.0600 
    168 H168        4.0233  -15.6674  -42.3409 H         1 UNK         0.0600 
    169 H169        2.0797  -14.1183  -42.5439 H         1 UNK         0.3000 
    170 H170        0.3271  -12.8858  -44.6454 H         1 UNK         0.0600 
    171 H171       -1.7340  -11.7358  -43.8154 H         1 UNK         0.0600 
    172 H172       -2.0520  -13.3490  -44.4227 H         1 UNK         0.0600 
    173 H173       -2.0100  -13.0663  -42.6912 H         1 UNK         0.0600 
    174 H174        1.3376  -11.5328  -43.2278 H         1 UNK         0.3000 
    175 H175        0.9797   -9.9669  -41.1872 H         1 UNK         0.0600 
    176 H176        1.4893  -11.7373  -38.7389 H         1 UNK         0.0600 
    177 H177        1.7072   -9.9893  -38.8066 H         1 UNK         0.0600 
    178 H178        0.1045  -10.6827  -38.9869 H         1 UNK         0.0600 
    179 H179        3.1666  -10.1133  -41.5188 H         1 UNK         0.3000 
    180 H180        5.5084  -10.9503  -40.5695 H         1 UNK         0.0600 
    181 H181        5.6313  -13.7819  -41.7268 H         1 UNK         0.0600 
    182 H182        6.0050  -13.3112  -40.0749 H         1 UNK         0.0600 
    183 H183        7.0244  -12.7556  -41.3923 H         1 UNK         0.0600 
    184 H184        5.2377  -11.9296  -43.3444 H         1 UNK         0.3000 
    185 H185        4.4730   -8.7585  -44.6713 H         1 UNK         0.0600 
    186 H186        6.5284   -8.9805  -46.0484 H         1 UNK         0.0600 
    187 H187        6.9421   -8.4339  -44.4316 H         1 UNK         0.0600 
    188 H188        7.2187  -10.1118  -44.8836 H         1 UNK         0.0600 
    189 H189        5.2606  -11.1991  -45.9211 H         1 UNK         0.3000 
    190 H190       -2.9145  -20.6589  -47.1151 H         1 UNK         0.3000 
    191 H191       -5.1689  -22.0590  -48.0559 H         1 UNK         0.0600 
    192 H192       -6.2561  -21.2041  -45.9862 H         1 UNK         0.0600 
    193 H193       -4.6873  -20.7591  -45.3269 H         1 UNK         0.0600 
    194 H194       -5.3004  -19.9518  -46.7665 H         1 UNK         0.0600 
    195 H195       -3.0619  -22.7881  -45.2307 H         1 UNK         0.3000 
    196 H196       -4.3938  -25.1068  -44.3362 H         1 UNK         0.0600 
    197 H197       -2.2513  -25.5460  -43.1225 H         1 UNK         0.0600 
    198 H198       -2.7395  -23.8651  -42.9750 H         1 UNK         0.0600 
    199 H199       -1.4453  -24.3134  -44.0851 H         1 UNK         0.0600 
    200 H200       -2.0624  -24.7115  -46.9558 H         1 UNK         0.3000 
    201 H201       -1.7406  -27.5736  -47.4657 H         1 UNK         0.0600 
    202 H202        0.1107  -25.9430  -47.8594 H         1 UNK         0.0600 
    203 H203       -0.8603  -25.1232  -49.0784 H         1 UNK         0.0600 
    204 H204       -0.3314  -26.7815  -49.3358 H         1 UNK         0.0600 
    205 H205       -4.4897  -26.3679  -47.5132 H         1 UNK         0.3000 
    206 H206       -6.4303  -26.5366  -48.5479 H         1 UNK         0.0600 
    207 H207       -5.7880  -28.9395  -48.8443 H         1 UNK         0.0600 
    208 H208       -6.8173  -28.3750  -50.1508 H         1 UNK         0.0600 
    209 H209       -5.0917  -28.5657  -50.4204 H         1 UNK         0.0600 
    210 H210       -5.0870  -24.3274  -49.1376 H         1 UNK         0.3000 
    211 H211       -4.8644  -22.5462  -50.4659 H         1 UNK         0.0600 
    212 H212       -7.0017  -23.8020  -52.2677 H         1 UNK         0.0600 
    213 H213       -6.5123  -22.1173  -52.2461 H         1 UNK         0.0600 
    214 H214       -7.3206  -22.8041  -50.8491 H         1 UNK         0.0600 
    215 H215       -2.9525  -24.4493  -50.6979 H         1 UNK         0.3000 
    216 H216       -1.2281  -25.2370  -51.8146 H         1 UNK         0.0600 
    217 H217       -0.3043  -24.0166  -53.7226 H         1 UNK         0.0600 
    218 H218       -1.8508  -23.2610  -54.0702 H         1 UNK         0.0600 
    219 H219       -0.9765  -22.8530  -52.5935 H         1 UNK         0.0600 
    220 H220       -4.0175  -26.2815  -52.3645 H         1 UNK         0.3000 
    221 H221       -5.0759  -27.9178  -53.3755 H         1 UNK         0.0600 
    222 H222       -2.2572  -28.9943  -53.8532 H         1 UNK         0.0600 
    223 H223       -3.2148  -29.1844  -52.3864 H         1 UNK         0.0600 
    224 H224       -3.7406  -29.9411  -53.8822 H         1 UNK         0.0600 
    225 H225       -5.2669  -26.6306  -56.8136 H         1 UNK         0.3000 
    226 H226       -5.5484  -25.4260  -54.1869 H         1 UNK         0.0600 
    227 H227       -7.1841  -27.2938  -53.9667 H         1 UNK         0.0600 
    228 H228       -8.0251  -25.7732  -54.1853 H         1 UNK         0.0600 
    229 H229       -7.8819  -26.8964  -55.5328 H         1 UNK         0.0600 
    230 H230       -5.1080  -23.4032  -54.9111 H         1 UNK         0.3000 
    231 H231       -6.7121  -22.1612  -57.0107 H         1 UNK         0.0600 
    232 H232       -3.7242  -22.6705  -57.4994 H         1 UNK         0.0600 
    233 H233       -4.7378  -21.6214  -58.4837 H         1 UNK         0.0600 
    234 H234       -5.0562  -23.3443  -58.4370 H         1 UNK         0.0600 
    235 H235       -4.5804  -21.9182  -54.2813 H         1 UNK         0.3000 
    236 H236       -3.9612  -19.0893  -54.6264 H         1 UNK         0.0600 
    237 H237       -2.4052  -20.8195  -53.5681 H         1 UNK         0.0600 
    238 H238       -2.6764  -19.3941  -52.5950 H         1 UNK         0.0600 
    239 H239       -3.5026  -20.8882  -52.1906 H         1 UNK         0.0600 
    240 H240       -4.1914  -17.9674  -52.2374 H         1 UNK         0.3000 
    241 H241       -6.9562  -17.2627  -52.0234 H         1 UNK         0.0600 
    242 H242       -5.3316  -19.8620  -50.4173 H         1 UNK         0.3800 
    243 H243       -6.5050  -20.0210  -49.1309 H         1 UNK         0.3800 
    244 H244       -6.1607  -15.6268  -50.3093 H         1 UNK         0.0800 
    245 H245       -5.3267  -15.5127  -51.8244 H         1 UNK         0.0800 
    246 H246       -2.8608  -14.6991  -51.5206 H         1 UNK         0.0800 
    247 H247       -2.8769  -16.2716  -52.2840 H         1 UNK         0.0800 
@<TRIPOS>BOND
     1    1    2 1    
     2    1  127 1    
     3    1  128 1    
     4    1  129 1    
     5    2    3 2    
     6    2    4 am   BACKBONE|DICT|INTERRES
     7    4    5 1    
     8    4  130 1    
     9    5    6 1    
    10    5   65 1    
    11    5  131 1    
    12    6    7 1    
    13    6  132 1    
    14    6  133 1    
    15    7    8 1    
    16    8    9 1    
    17    8  134 1    
    18    8  135 1    
    19    9   10 ar   
    20    9   14 ar   
    21   10   11 ar   
    22   10  136 1    
    23   11   12 ar   
    24   11  126 1    
    25   12   13 ar   
    26   12  137 1    
    27   13   14 ar   
    28   13   15 1    
    29   14  138 1    
    30   15   16 1    
    31   15  139 1    
    32   15  140 1    
    33   16   17 1    
    34   17   18 1    
    35   17  141 1    
    36   17  142 1    
    37   18   19 1    
    38   18   67 1    
    39   18  143 1    
    40   19   20 am   BACKBONE|DICT|INTERRES
    41   19  144 1    
    42   20   21 2    
    43   20   22 1    
    44   22   23 1    
    45   22   24 1    
    46   22  145 1    
    47   23  146 1    
    48   23  147 1    
    49   23  148 1    
    50   24   25 am   BACKBONE|DICT|INTERRES
    51   24  149 1    
    52   25   26 2    
    53   25   27 1    
    54   27   28 1    
    55   27   29 1    
    56   27  150 1    
    57   28  151 1    
    58   28  152 1    
    59   28  153 1    
    60   29   30 am   BACKBONE|DICT|INTERRES
    61   29  154 1    
    62   30   31 2    
    63   30   32 1    
    64   32   33 1    
    65   32   34 1    
    66   32  155 1    
    67   33  156 1    
    68   33  157 1    
    69   33  158 1    
    70   34   35 am   BACKBONE|DICT|INTERRES
    71   34  159 1    
    72   35   36 2    
    73   35   37 1    
    74   37   38 1    
    75   37   39 1    
    76   37  160 1    
    77   38  161 1    
    78   38  162 1    
    79   38  163 1    
    80   39   40 am   BACKBONE|DICT|INTERRES
    81   39  164 1    
    82   40   41 2    
    83   40   42 1    
    84   42   43 1    
    85   42   44 1    
    86   42  165 1    
    87   43  166 1    
    88   43  167 1    
    89   43  168 1    
    90   44   45 am   BACKBONE|DICT|INTERRES
    91   44  169 1    
    92   45   46 2    
    93   45   47 1    
    94   47   48 1    
    95   47   49 1    
    96   47  170 1    
    97   48  171 1    
    98   48  172 1    
    99   48  173 1    
   100   49   50 am   BACKBONE|DICT|INTERRES
   101   49  174 1    
   102   50   51 2    
   103   50   52 1    
   104   52   53 1    
   105   52   54 1    
   106   52  175 1    
   107   53  176 1    
   108   53  177 1    
   109   53  178 1    
   110   54   55 am   BACKBONE|DICT|INTERRES
   111   54  179 1    
   112   55   56 2    
   113   55   57 1    
   114   57   58 1    
   115   57   59 1    
   116   57  180 1    
   117   58  181 1    
   118   58  182 1    
   119   58  183 1    
   120   59   60 am   BACKBONE|DICT|INTERRES
   121   59  184 1    
   122   60   61 2    
   123   60   62 1    
   124   62   63 1    
   125   62   64 1    
   126   62  185 1    
   127   63  186 1    
   128   63  187 1    
   129   63  188 1    
   130   64   65 am   BACKBONE|DICT|INTERRES
   131   64  189 1    
   132   65   66 2    
   133   67   68 2    
   134   67   69 am   BACKBONE|DICT|INTERRES
   135   69   70 1    
   136   69  190 1    
   137   70   71 1    
   138   70   72 1    
   139   70  191 1    
   140   71  192 1    
   141   71  193 1    
   142   71  194 1    
   143   72   73 2    
   144   72   74 am   BACKBONE|DICT|INTERRES
   145   74   75 1    
   146   74  195 1    
   147   75   76 1    
   148   75   77 1    
   149   75  196 1    
   150   76  197 1    
   151   76  198 1    
   152   76  199 1    
   153   77   78 2    
   154   77   79 am   BACKBONE|DICT|INTERRES
   155   79   80 1    
   156   79  200 1    
   157   80   81 1    
   158   80   82 1    
   159   80  201 1    
   160   81  202 1    
   161   81  203 1    
   162   81  204 1    
   163   82   83 2    
   164   82   84 am   BACKBONE|DICT|INTERRES
   165   84   85 1    
   166   84  205 1    
   167   85   86 1    
   168   85   87 1    
   169   85  206 1    
   170   86  207 1    
   171   86  208 1    
   172   86  209 1    
   173   87   88 2    
   174   87   89 am   BACKBONE|DICT|INTERRES
   175   89   90 1    
   176   89  210 1    
   177   90   91 1    
   178   90   92 1    
   179   90  211 1    
   180   91  212 1    
   181   91  213 1    
   182   91  214 1    
   183   92   93 2    
   184   92   94 am   BACKBONE|DICT|INTERRES
   185   94   95 1    
   186   94  215 1    
   187   95   96 1    
   188   95   97 1    
   189   95  216 1    
   190   96  217 1    
   191   96  218 1    
   192   96  219 1    
   193   97   98 2    
   194   97   99 am   BACKBONE|DICT|INTERRES
   195   99  100 1    
   196   99  220 1    
   197  100  101 1    
   198  100  102 1    
   199  100  221 1    
   200  101  222 1    
   201  101  223 1    
   202  101  224 1    
   203  102  103 2    
   204  102  104 am   BACKBONE|DICT|INTERRES
   205  104  105 1    
   206  104  225 1    
   207  105  106 1    
   208  105  107 1    
   209  105  226 1    
   210  106  227 1    
   211  106  228 1    
   212  106  229 1    
   213  107  108 2    
   214  107  109 am   BACKBONE|DICT|INTERRES
   215  109  110 1    
   216  109  230 1    
   217  110  111 1    
   218  110  112 1    
   219  110  231 1    
   220  111  232 1    
   221  111  233 1    
   222  111  234 1    
   223  112  113 2    
   224  112  114 am   BACKBONE|DICT|INTERRES
   225  114  115 1    
   226  114  235 1    
   227  115  116 1    
   228  115  117 1    
   229  115  236 1    
   230  116  237 1    
   231  116  238 1    
   232  116  239 1    
   233  117  118 2    
   234  117  119 am   BACKBONE|DICT|INTERRES
   235  119  120 1    
   236  119  240 1    
   237  120  121 1    
   238  120  124 1    
   239  120  241 1    
   240  121  122 am   BACKBONE|DICT|INTERRES
   241  121  123 2    
   242  122  242 1    
   243  122  243 1    
   244  124  125 1    
   245  124  244 1    
   246  124  245 1    
   247  125  126 1    
   248  126  246 1    
   249  126  247 1    
@<TRIPOS>SUBSTRUCTURE
     1 UNK         1 GROUP             0       ****    0 ROOT    
