@<TRIPOS>MOLECULE
3R540
247   249    1
SMALL
USER_CHARGES


@<TRIPOS>ATOM
      1 CA         -0.8498  -17.9068  -48.7209 C.3       0 UNK        -0.1800 
      2 C          -0.0133  -16.6446  -48.6945 C.2       0 UNK         0.5000 
      3 O           0.5477  -16.3122  -47.6521 O.2       0 UNK        -0.5000 
      4 N           0.0613  -15.9276  -49.8229 N.am      1 UNK        -0.5000 
      5 CA          0.8230  -14.6899  -50.0449 C.3       1 UNK         0.1400 
      6 C6          2.3496  -14.8168  -49.7757 C.3       23 UNK        -0.0398 
      7 S7          3.1601  -16.0831  -50.8216 S.3       23 UNK        -0.2404 
      8 C8          3.3995  -17.4848  -49.6648 C.3       23 UNK        -0.0205 
      9 C9          2.7635  -18.8076  -50.1030 C.ar      23 UNK        -0.0193 
     10 C10         1.6260  -18.8527  -50.9190 C.ar      23 UNK        -0.1150 
     11 C11         1.0239  -20.0700  -51.2440 C.ar      23 UNK        -0.0193 
     12 C12         1.5708  -21.2575  -50.7580 C.ar      23 UNK        -0.1150 
     13 C13         2.7033  -21.2403  -49.9419 C.ar      23 UNK        -0.0193 
     14 C14         3.3007  -20.0113  -49.6295 C.ar      23 UNK        -0.1150 
     15 C15         3.2526  -22.5670  -49.4216 C.3       23 UNK        -0.0205 
     16 S16         3.8293  -22.5425  -47.6901 S.3       23 UNK        -0.2404 
     17 C17         2.3900  -21.8826  -46.7879 C.3       23 UNK        -0.0398 
     18 CA          1.3599  -22.9655  -46.3638 C.3       11 UNK         0.1400 
     19 N           1.0163  -22.8592  -44.9430 N.am      11 UNK        -0.5000 
     20 C           0.3062  -23.7522  -44.2407 C.2       10 UNK         0.5000 
     21 O          -0.0883  -24.8245  -44.6964 O.2       10 UNK        -0.5000 
     22 CA         -0.0610  -23.3505  -42.7986 C.3       10 UNK         0.1400 
     23 CB          1.0404  -23.7847  -41.8206 C.3       10 UNK        -0.1800 
     24 N          -0.2890  -21.9086  -42.6635 N.am      10 UNK        -0.5000 
     25 C          -1.3318  -21.2570  -43.1993 C.2       9 UNK         0.5000 
     26 O          -2.2511  -21.8216  -43.7916 O.2       9 UNK        -0.5000 
     27 CA         -1.3041  -19.7158  -43.1183 C.3       9 UNK         0.1400 
     28 CB         -1.9309  -19.2211  -41.8068 C.3       9 UNK        -0.1800 
     29 N           0.0479  -19.1609  -43.2511 N.am      9 UNK        -0.5000 
     30 C           0.8091  -19.2775  -44.3489 C.2       8 UNK         0.5000 
     31 O           0.4186  -19.8367  -45.3732 O.2       8 UNK        -0.5000 
     32 CA          2.2454  -18.7285  -44.2798 C.3       8 UNK         0.1400 
     33 CB          2.7139  -18.1436  -45.6232 C.3       8 UNK        -0.1800 
     34 N           2.3794  -17.7013  -43.2507 N.am      8 UNK        -0.5000 
     35 C           3.2955  -17.6792  -42.2743 C.2       7 UNK         0.5000 
     36 O           4.0689  -18.6089  -42.0384 O.2       7 UNK        -0.5000 
     37 CA          3.3566  -16.3781  -41.4429 C.3       7 UNK         0.1400 
     38 CB          4.6587  -16.2310  -40.6289 C.3       7 UNK        -0.1800 
     39 N           3.1106  -15.1912  -42.2702 N.am      7 UNK        -0.5000 
     40 C           3.8223  -14.7683  -43.3285 C.2       6 UNK         0.5000 
     41 O           4.9108  -15.2402  -43.6586 O.2       6 UNK        -0.5000 
     42 CA          3.1957  -13.6566  -44.1943 C.3       6 UNK         0.1400 
     43 CB          2.8238  -14.2083  -45.5829 C.3       6 UNK        -0.1800 
     44 N           1.9983  -13.0799  -43.5767 N.am      6 UNK        -0.5000 
     45 C           1.9993  -12.0282  -42.7458 C.2       5 UNK         0.5000 
     46 O           3.0029  -11.3627  -42.4890 O.2       5 UNK        -0.5000 
     47 CA          0.6644  -11.6738  -42.0601 C.3       5 UNK         0.1400 
     48 CB         -0.0398  -10.5212  -42.7899 C.3       5 UNK        -0.1800 
     49 N          -0.2474  -12.8173  -41.9579 N.am      5 UNK        -0.5000 
     50 C          -0.0933  -13.8207  -41.0808 C.2       4 UNK         0.5000 
     51 O           0.8252  -13.8726  -40.2634 O.2       4 UNK        -0.5000 
     52 CA         -1.0947  -14.9902  -41.1545 C.3       4 UNK         0.1400 
     53 CB         -2.2741  -14.7541  -40.2002 C.3       4 UNK        -0.1800 
     54 N          -1.6104  -15.2447  -42.5005 N.am      4 UNK        -0.5000 
     55 C          -0.8642  -15.5922  -43.5562 C.2       3 UNK         0.5000 
     56 O           0.3592  -15.7288  -43.5055 O.2       3 UNK        -0.5000 
     57 CA         -1.5820  -15.8014  -44.9010 C.3       3 UNK         0.1400 
     58 CB         -3.1235  -15.8025  -44.8114 C.3       3 UNK        -0.1800 
     59 N          -1.1240  -14.8397  -45.9050 N.am      3 UNK        -0.5000 
     60 C          -1.1607  -13.4975  -45.8435 C.2       2 UNK         0.5000 
     61 O          -1.5948  -12.8777  -44.8715 O.2       2 UNK        -0.5000 
     62 CA         -0.6220  -12.7163  -47.0630 C.3       2 UNK         0.1400 
     63 CB          0.2155  -11.4884  -46.6611 C.3       2 UNK        -0.1800 
     64 N           0.1413  -13.5843  -47.9612 N.am      2 UNK        -0.5000 
     65 C           0.1886  -13.4960  -49.2949 C.2       1 UNK         0.5000 
     66 O          -0.2856  -12.5567  -49.9350 O.2       1 UNK        -0.5000 
     67 C           0.0874  -22.9060  -47.2341 C.2       11 UNK         0.5000 
     68 O          -0.0805  -23.7337  -48.1290 O.2       11 UNK        -0.5000 
     69 N          -0.8092  -21.9626  -46.9064 N.am      12 UNK        -0.5000 
     70 CA         -2.1233  -21.7982  -47.5268 C.3       12 UNK         0.1400 
     71 CB         -2.8074  -20.5359  -46.9792 C.3       12 UNK        -0.1800 
     72 C          -3.0252  -23.0278  -47.3381 C.2       12 UNK         0.5000 
     73 O          -3.6676  -23.4605  -48.2951 O.2       12 UNK        -0.5000 
     74 N          -3.0250  -23.5861  -46.1190 N.am      13 UNK        -0.5000 
     75 CA         -3.7358  -24.8145  -45.7677 C.3       13 UNK         0.1400 
     76 CB         -3.6766  -25.0315  -44.2485 C.3       13 UNK        -0.1800 
     77 C          -3.2007  -26.0435  -46.5251 C.2       13 UNK         0.5000 
     78 O          -3.9984  -26.8201  -47.0503 O.2       13 UNK        -0.5000 
     79 N          -1.8686  -26.1746  -46.6140 N.am      14 UNK        -0.5000 
     80 CA         -1.1823  -27.2275  -47.3697 C.3       14 UNK         0.1400 
     81 CB          0.3247  -27.1709  -47.0770 C.3       14 UNK        -0.1800 
     82 C          -1.4480  -27.1531  -48.8864 C.2       14 UNK         0.5000 
     83 O          -1.6037  -28.1910  -49.5303 O.2       14 UNK        -0.5000 
     84 N          -1.5375  -25.9274  -49.4178 N.am      15 UNK        -0.5000 
     85 CA         -1.9051  -25.6259  -50.8028 C.3       15 UNK         0.1400 
     86 CB         -1.3797  -24.2245  -51.1457 C.3       15 UNK        -0.1800 
     87 C          -3.4221  -25.7182  -51.0784 C.2       15 UNK         0.5000 
     88 O          -3.8327  -25.5301  -52.2246 O.2       15 UNK        -0.5000 
     89 N          -4.2284  -25.9744  -50.0360 N.am      16 UNK        -0.5000 
     90 CA         -5.6920  -26.0833  -50.0353 C.3       16 UNK         0.1400 
     91 CB         -6.1414  -27.3267  -50.8304 C.3       16 UNK        -0.1800 
     92 C          -6.4124  -24.7929  -50.4852 C.2       16 UNK         0.5000 
     93 O          -7.5277  -24.8639  -51.0045 O.2       16 UNK        -0.5000 
     94 N          -5.7587  -23.6399  -50.2745 N.am      17 UNK        -0.5000 
     95 CA         -6.1903  -22.2843  -50.6291 C.3       17 UNK         0.1400 
     96 CB         -7.3262  -21.8275  -49.6919 C.3       17 UNK        -0.1800 
     97 C          -6.5336  -22.1005  -52.1271 C.2       17 UNK         0.5000 
     98 O          -7.4473  -21.3445  -52.4622 O.2       17 UNK        -0.5000 
     99 N          -5.8117  -22.8096  -53.0058 N.am      18 UNK        -0.5000 
    100 CA        -5.9998  -22.7653  -54.4549 C.3       18 UNK         0.1400 
    101 CB        -5.3200  -23.9932  -55.0800 C.3       18 UNK        -0.1800 
    102 C         -5.4420  -21.4650  -55.0641 C.2       18 UNK         0.5000 
    103 O         -4.2928  -21.1191  -54.7903 O.2       18 UNK        -0.5000 
    104 N         -6.2494  -20.8101  -55.9112 N.am      19 UNK        -0.5000 
    105 CA        -5.9882  -19.5540  -56.6312 C.3       19 UNK         0.1400 
    106 CB        -4.7198  -19.6588  -57.5045 C.3       19 UNK        -0.1800 
    107 C         -5.9471  -18.3058  -55.7236 C.2       19 UNK         0.5000 
    108 O         -5.8719  -18.4088  -54.4977 O.2       19 UNK        -0.5000 
    109 N         -6.0026  -17.1236  -56.3525 N.am      20 UNK        -0.5000 
    110 CA        -6.0900  -15.8123  -55.6955 C.3       20 UNK         0.1400 
    111 CB        -6.3074  -14.7336  -56.7679 C.3       20 UNK        -0.1800 
    112 C         -4.8828  -15.4488  -54.8063 C.2       20 UNK         0.5000 
    113 O         -5.0299  -14.6440  -53.8862 O.2       20 UNK        -0.5000 
    114 N         -3.7212  -16.0557  -55.0814 N.am      21 UNK        -0.5000 
    115 CA        -2.4944  -15.9124  -54.2947 C.3       21 UNK         0.1400 
    116 CB        -1.3016  -16.3281  -55.1707 C.3       21 UNK        -0.1800 
    117 C         -2.5010  -16.7277  -52.9846 C.2       21 UNK         0.5000 
    118 O         -1.6046  -16.5338  -52.1596 O.2       21 UNK        -0.5000 
    119 N         -3.4726  -17.6365  -52.8261 N.am      22 UNK        -0.5000 
    120 CA        -3.5463  -18.5931  -51.7152 C.3       22 UNK         0.1400 
    121 C         -4.9404  -18.6724  -51.0379 C.2       22 UNK         0.5000 
    122 N         -6.0354  -18.3877  -51.7286 N.am      22 UNK        -0.7600 
    123 O         -5.0304  -18.9817  -49.8541 O.2       22 UNK        -0.5000 
    124 C124       -3.0264  -19.9883  -52.1609 C.3       23 UNK        -0.0398 
    125 S125       -1.6767  -20.5939  -51.1138 S.3       23 UNK        -0.2404 
    126 C126       -0.2306  -20.1028  -52.1005 C.3       23 UNK        -0.0205 
    127 H127       -1.0151  -18.2284  -49.7445 H         1 UNK         0.0600 
    128 H128       -1.8152  -17.7320  -48.2474 H         1 UNK         0.0600 
    129 H129       -0.3341  -18.7111  -48.1951 H         1 UNK         0.0600 
    130 H130       -0.4799  -16.2307  -50.6300 H         1 UNK         0.3000 
    131 H131        0.7051  -14.4752  -51.1084 H         1 UNK         0.0600 
    132 H132        2.8389  -13.8664  -49.9954 H         1 UNK         0.0800 
    133 H133        2.5573  -15.0117  -48.7233 H         1 UNK         0.0800 
    134 H134        4.4737  -17.6238  -49.5344 H         1 UNK         0.0800 
    135 H135        3.0061  -17.2359  -48.6791 H         1 UNK         0.0800 
    136 H136        1.1865  -17.9391  -51.2896 H         1 UNK         0.1150 
    137 H137        1.0964  -22.1969  -51.0039 H         1 UNK         0.1150 
    138 H138        4.1755  -19.9900  -48.9952 H         1 UNK         0.1150 
    139 H139        2.4963  -23.3492  -49.5093 H         1 UNK         0.0800 
    140 H140        4.0826  -22.8710  -50.0603 H         1 UNK         0.0800 
    141 H141        1.9319  -21.0675  -47.3506 H         1 UNK         0.0800 
    142 H142        2.8099  -21.3986  -45.9059 H         1 UNK         0.0800 
    143 H143        1.8011  -23.9549  -46.5032 H         1 UNK         0.0600 
    144 H144        1.2476  -21.9870  -44.4948 H         1 UNK         0.3000 
    145 H145       -0.9822  -23.8718  -42.5301 H         1 UNK         0.0600 
    146 H146        0.7611  -23.5651  -40.7900 H         1 UNK         0.0600 
    147 H147        1.2179  -24.8590  -41.8861 H         1 UNK         0.0600 
    148 H148        1.9862  -23.2823  -42.0272 H         1 UNK         0.0600 
    149 H149        0.4178  -21.3759  -42.1784 H         1 UNK         0.3000 
    150 H150       -1.9047  -19.3340  -43.9468 H         1 UNK         0.0600 
    151 H151       -2.9454  -19.6050  -41.6907 H         1 UNK         0.0600 
    152 H152       -1.9928  -18.1332  -41.7839 H         1 UNK         0.0600 
    153 H153       -1.3562  -19.5434  -40.9377 H         1 UNK         0.0600 
    154 H154        0.4374  -18.6946  -42.4452 H         1 UNK         0.3000 
    155 H155        2.8814  -19.5837  -44.0451 H         1 UNK         0.0600 
    156 H156        3.7567  -17.8302  -45.5726 H         1 UNK         0.0600 
    157 H157        2.1212  -17.2732  -45.8977 H         1 UNK         0.0600 
    158 H158        2.6317  -18.8666  -46.4348 H         1 UNK         0.0600 
    159 H159        1.7576  -16.9002  -43.3517 H         1 UNK         0.3000 
    160 H160        2.5292  -16.4309  -40.7339 H         1 UNK         0.0600 
    161 H161        5.5424  -16.2430  -41.2672 H         1 UNK         0.0600 
    162 H162        4.7639  -17.0460  -39.9121 H         1 UNK         0.0600 
    163 H163        4.6655  -15.2993  -40.0632 H         1 UNK         0.0600 
    164 H164        2.2333  -14.7228  -42.0937 H         1 UNK         0.3000 
    165 H165        3.9560  -12.8848  -44.3298 H         1 UNK         0.0600 
    166 H166        1.9777  -14.8934  -45.5329 H         1 UNK         0.0600 
    167 H167        2.5682  -13.4050  -46.2714 H         1 UNK         0.0600 
    168 H168        3.6562  -14.7522  -46.0316 H         1 UNK         0.0600 
    169 H169        1.1380  -13.5962  -43.7041 H         1 UNK         0.3000 
    170 H170        0.9001  -11.3311  -41.0502 H         1 UNK         0.0600 
    171 H171        0.6073   -9.6455  -42.8543 H         1 UNK         0.0600 
    172 H172       -0.3182  -10.7977  -43.8052 H         1 UNK         0.0600 
    173 H173       -0.9459  -10.2178  -42.2654 H         1 UNK         0.0600 
    174 H174       -1.0005  -12.8618  -42.6340 H         1 UNK         0.3000 
    175 H175       -0.5682  -15.8898  -40.8286 H         1 UNK         0.0600 
    176 H176       -2.8615  -13.8835  -40.4943 H         1 UNK         0.0600 
    177 H177       -2.9400  -15.6170  -40.1751 H         1 UNK         0.0600 
    178 H178       -1.9245  -14.5856  -39.1807 H         1 UNK         0.0600 
    179 H179       -2.6034  -15.1214  -42.6341 H         1 UNK         0.3000 
    180 H180       -1.2718  -16.7860  -45.2551 H         1 UNK         0.0600 
    181 H181       -3.5209  -14.8387  -44.4915 H         1 UNK         0.0600 
    182 H182       -3.4781  -16.5622  -44.1134 H         1 UNK         0.0600 
    183 H183       -3.5651  -16.0322  -45.7812 H         1 UNK         0.0600 
    184 H184       -0.6776  -15.2749  -46.7048 H         1 UNK         0.3000 
    185 H185       -1.5047  -12.3612  -47.5986 H         1 UNK         0.0600 
    186 H186        0.6570  -11.0039  -47.5319 H         1 UNK         0.0600 
    187 H187       -0.4075  -10.7442  -46.1647 H         1 UNK         0.0600 
    188 H188        1.0210  -11.7490  -45.9764 H         1 UNK         0.0600 
    189 H189        0.5383  -14.4233  -47.5488 H         1 UNK         0.3000 
    190 H190       -0.5533  -21.2845  -46.1949 H         1 UNK         0.3000 
    191 H191       -1.9576  -21.6683  -48.5936 H         1 UNK         0.0600 
    192 H192       -2.1267  -19.6875  -46.9600 H         1 UNK         0.0600 
    193 H193       -3.6602  -20.2608  -47.6011 H         1 UNK         0.0600 
    194 H194       -3.1773  -20.6778  -45.9643 H         1 UNK         0.0600 
    195 H195       -2.5124  -23.1241  -45.3757 H         1 UNK         0.3000 
    196 H196       -4.7825  -24.6813  -46.0491 H         1 UNK         0.0600 
    197 H197       -4.2494  -25.9133  -43.9589 H         1 UNK         0.0600 
    198 H198       -4.0955  -24.1799  -43.7119 H         1 UNK         0.0600 
    199 H199       -2.6546  -25.1763  -43.8993 H         1 UNK         0.0600 
    200 H200       -1.2768  -25.5169  -46.1151 H         1 UNK         0.3000 
    201 H201       -1.5600  -28.1890  -47.0159 H         1 UNK         0.0600 
    202 H202        0.5246  -27.3023  -46.0135 H         1 UNK         0.0600 
    203 H203        0.7598  -26.2194  -47.3833 H         1 UNK         0.0600 
    204 H204        0.8561  -27.9615  -47.6082 H         1 UNK         0.0600 
    205 H205       -1.3213  -25.1287  -48.8282 H         1 UNK         0.3000 
    206 H206       -1.4129  -26.3444  -51.4609 H         1 UNK         0.0600 
    207 H207       -0.2979  -24.1708  -51.0263 H         1 UNK         0.0600 
    208 H208       -1.6077  -23.9510  -52.1766 H         1 UNK         0.0600 
    209 H209       -1.8246  -23.4697  -50.4974 H         1 UNK         0.0600 
    210 H210       -3.7952  -26.0837  -49.1276 H         1 UNK         0.3000 
    211 H211       -5.9800  -26.2372  -48.9946 H         1 UNK         0.0600 
    212 H212       -5.9487  -27.2157  -51.8979 H         1 UNK         0.0600 
    213 H213       -7.2102  -27.5057  -50.7081 H         1 UNK         0.0600 
    214 H214       -5.6232  -28.2220  -50.4866 H         1 UNK         0.0600 
    215 H215       -4.8743  -23.6930  -49.7740 H         1 UNK         0.3000 
    216 H216       -5.3294  -21.6449  -50.4345 H         1 UNK         0.0600 
    217 H217       -7.0407  -21.9386  -48.6458 H         1 UNK         0.0600 
    218 H218       -8.2395  -22.4003  -49.8554 H         1 UNK         0.0600 
    219 H219       -7.5636  -20.7748  -49.8499 H         1 UNK         0.0600 
    220 H220       -5.0853  -23.4237  -52.6627 H         1 UNK         0.3000 
    221 H221       -7.0698  -22.8286  -54.6645 H         1 UNK         0.0600 
    222 H222       -4.2472  -24.0030  -54.8817 H         1 UNK         0.0600 
    223 H223       -5.7395  -24.9193  -54.6860 H         1 UNK         0.0600 
    224 H224       -5.4554  -24.0070  -56.1621 H         1 UNK         0.0600 
    225 H225       -7.1813  -21.1782  -56.0406 H         1 UNK         0.3000 
    226 H226       -6.8401  -19.4231  -57.3001 H         1 UNK         0.0600 
    227 H227       -4.7332  -20.5631  -58.1129 H         1 UNK         0.0600 
    228 H228       -4.6414  -18.8135  -58.1889 H         1 UNK         0.0600 
    229 H229       -3.8091  -19.6717  -56.9049 H         1 UNK         0.0600 
    230 H230       -6.0535  -17.1146  -57.3611 H         1 UNK         0.3000 
    231 H231       -6.9691  -15.8292  -55.0478 H         1 UNK         0.0600 
    232 H232       -6.4078  -13.7459  -56.3157 H         1 UNK         0.0600 
    233 H233       -7.2174  -14.9207  -57.3383 H         1 UNK         0.0600 
    234 H234       -5.4729  -14.6902  -57.4689 H         1 UNK         0.0600 
    235 H235       -3.6912  -16.7002  -55.8576 H         1 UNK         0.3000 
    236 H236       -2.3699  -14.8617  -54.0243 H         1 UNK         0.0600 
    237 H237       -1.2449  -15.7214  -56.0746 H         1 UNK         0.0600 
    238 H238       -0.3591  -16.2004  -54.6364 H         1 UNK         0.0600 
    239 H239       -1.3689  -17.3747  -55.4707 H         1 UNK         0.0600 
    240 H240       -4.1897  -17.7286  -53.5357 H         1 UNK         0.3000 
    241 H241       -2.9083  -18.2162  -50.9171 H         1 UNK         0.0600 
    242 H242       -6.0030  -18.2683  -52.7394 H         1 UNK         0.3800 
    243 H243       -6.9298  -18.4400  -51.2699 H         1 UNK         0.3800 
    244 H244       -2.6635  -19.9628  -53.1890 H         1 UNK         0.0800 
    245 H245       -3.8148  -20.7408  -52.1622 H         1 UNK         0.0800 
    246 H246       -0.0983  -20.8034  -52.9261 H         1 UNK         0.0800 
    247 H247       -0.4087  -19.1227  -52.5460 H         1 UNK         0.0800 
@<TRIPOS>BOND
     1    1    2 1    
     2    1  127 1    
     3    1  128 1    
     4    1  129 1    
     5    2    3 2    
     6    2    4 am   BACKBONE|DICT|INTERRES
     7    4    5 1    
     8    4  130 1    
     9    5    6 1    
    10    5   65 1    
    11    5  131 1    
    12    6    7 1    
    13    6  132 1    
    14    6  133 1    
    15    7    8 1    
    16    8    9 1    
    17    8  134 1    
    18    8  135 1    
    19    9   10 ar   
    20    9   14 ar   
    21   10   11 ar   
    22   10  136 1    
    23   11   12 ar   
    24   11  126 1    
    25   12   13 ar   
    26   12  137 1    
    27   13   14 ar   
    28   13   15 1    
    29   14  138 1    
    30   15   16 1    
    31   15  139 1    
    32   15  140 1    
    33   16   17 1    
    34   17   18 1    
    35   17  141 1    
    36   17  142 1    
    37   18   19 1    
    38   18   67 1    
    39   18  143 1    
    40   19   20 am   BACKBONE|DICT|INTERRES
    41   19  144 1    
    42   20   21 2    
    43   20   22 1    
    44   22   23 1    
    45   22   24 1    
    46   22  145 1    
    47   23  146 1    
    48   23  147 1    
    49   23  148 1    
    50   24   25 am   BACKBONE|DICT|INTERRES
    51   24  149 1    
    52   25   26 2    
    53   25   27 1    
    54   27   28 1    
    55   27   29 1    
    56   27  150 1    
    57   28  151 1    
    58   28  152 1    
    59   28  153 1    
    60   29   30 am   BACKBONE|DICT|INTERRES
    61   29  154 1    
    62   30   31 2    
    63   30   32 1    
    64   32   33 1    
    65   32   34 1    
    66   32  155 1    
    67   33  156 1    
    68   33  157 1    
    69   33  158 1    
    70   34   35 am   BACKBONE|DICT|INTERRES
    71   34  159 1    
    72   35   36 2    
    73   35   37 1    
    74   37   38 1    
    75   37   39 1    
    76   37  160 1    
    77   38  161 1    
    78   38  162 1    
    79   38  163 1    
    80   39   40 am   BACKBONE|DICT|INTERRES
    81   39  164 1    
    82   40   41 2    
    83   40   42 1    
    84   42   43 1    
    85   42   44 1    
    86   42  165 1    
    87   43  166 1    
    88   43  167 1    
    89   43  168 1    
    90   44   45 am   BACKBONE|DICT|INTERRES
    91   44  169 1    
    92   45   46 2    
    93   45   47 1    
    94   47   48 1    
    95   47   49 1    
    96   47  170 1    
    97   48  171 1    
    98   48  172 1    
    99   48  173 1    
   100   49   50 am   BACKBONE|DICT|INTERRES
   101   49  174 1    
   102   50   51 2    
   103   50   52 1    
   104   52   53 1    
   105   52   54 1    
   106   52  175 1    
   107   53  176 1    
   108   53  177 1    
   109   53  178 1    
   110   54   55 am   BACKBONE|DICT|INTERRES
   111   54  179 1    
   112   55   56 2    
   113   55   57 1    
   114   57   58 1    
   115   57   59 1    
   116   57  180 1    
   117   58  181 1    
   118   58  182 1    
   119   58  183 1    
   120   59   60 am   BACKBONE|DICT|INTERRES
   121   59  184 1    
   122   60   61 2    
   123   60   62 1    
   124   62   63 1    
   125   62   64 1    
   126   62  185 1    
   127   63  186 1    
   128   63  187 1    
   129   63  188 1    
   130   64   65 am   BACKBONE|DICT|INTERRES
   131   64  189 1    
   132   65   66 2    
   133   67   68 2    
   134   67   69 am   BACKBONE|DICT|INTERRES
   135   69   70 1    
   136   69  190 1    
   137   70   71 1    
   138   70   72 1    
   139   70  191 1    
   140   71  192 1    
   141   71  193 1    
   142   71  194 1    
   143   72   73 2    
   144   72   74 am   BACKBONE|DICT|INTERRES
   145   74   75 1    
   146   74  195 1    
   147   75   76 1    
   148   75   77 1    
   149   75  196 1    
   150   76  197 1    
   151   76  198 1    
   152   76  199 1    
   153   77   78 2    
   154   77   79 am   BACKBONE|DICT|INTERRES
   155   79   80 1    
   156   79  200 1    
   157   80   81 1    
   158   80   82 1    
   159   80  201 1    
   160   81  202 1    
   161   81  203 1    
   162   81  204 1    
   163   82   83 2    
   164   82   84 am   BACKBONE|DICT|INTERRES
   165   84   85 1    
   166   84  205 1    
   167   85   86 1    
   168   85   87 1    
   169   85  206 1    
   170   86  207 1    
   171   86  208 1    
   172   86  209 1    
   173   87   88 2    
   174   87   89 am   BACKBONE|DICT|INTERRES
   175   89   90 1    
   176   89  210 1    
   177   90   91 1    
   178   90   92 1    
   179   90  211 1    
   180   91  212 1    
   181   91  213 1    
   182   91  214 1    
   183   92   93 2    
   184   92   94 am   BACKBONE|DICT|INTERRES
   185   94   95 1    
   186   94  215 1    
   187   95   96 1    
   188   95   97 1    
   189   95  216 1    
   190   96  217 1    
   191   96  218 1    
   192   96  219 1    
   193   97   98 2    
   194   97   99 am   BACKBONE|DICT|INTERRES
   195   99  100 1    
   196   99  220 1    
   197  100  101 1    
   198  100  102 1    
   199  100  221 1    
   200  101  222 1    
   201  101  223 1    
   202  101  224 1    
   203  102  103 2    
   204  102  104 am   BACKBONE|DICT|INTERRES
   205  104  105 1    
   206  104  225 1    
   207  105  106 1    
   208  105  107 1    
   209  105  226 1    
   210  106  227 1    
   211  106  228 1    
   212  106  229 1    
   213  107  108 2    
   214  107  109 am   BACKBONE|DICT|INTERRES
   215  109  110 1    
   216  109  230 1    
   217  110  111 1    
   218  110  112 1    
   219  110  231 1    
   220  111  232 1    
   221  111  233 1    
   222  111  234 1    
   223  112  113 2    
   224  112  114 am   BACKBONE|DICT|INTERRES
   225  114  115 1    
   226  114  235 1    
   227  115  116 1    
   228  115  117 1    
   229  115  236 1    
   230  116  237 1    
   231  116  238 1    
   232  116  239 1    
   233  117  118 2    
   234  117  119 am   BACKBONE|DICT|INTERRES
   235  119  120 1    
   236  119  240 1    
   237  120  121 1    
   238  120  124 1    
   239  120  241 1    
   240  121  122 am   BACKBONE|DICT|INTERRES
   241  121  123 2    
   242  122  242 1    
   243  122  243 1    
   244  124  125 1    
   245  124  244 1    
   246  124  245 1    
   247  125  126 1    
   248  126  246 1    
   249  126  247 1    
@<TRIPOS>SUBSTRUCTURE
     1 UNK         1 GROUP             0       ****    0 ROOT    
