@<TRIPOS>MOLECULE
3R540
247   249    1
SMALL
USER_CHARGES


@<TRIPOS>ATOM
      1 CA          3.4661   -9.7543  -46.5639 C.3       0 UNK        -0.1800 
      2 C           3.4279  -11.1982  -46.0878 C.2       0 UNK         0.5000 
      3 O           4.2090  -11.5796  -45.2160 O.2       0 UNK        -0.5000 
      4 N           2.5102  -12.0056  -46.6352 N.am      1 UNK        -0.5000 
      5 CA          2.3387  -13.4310  -46.3189 C.3       1 UNK         0.1400 
      6 C6          1.3894  -14.1498  -47.3024 C.3       23 UNK        -0.0398 
      7 S7         -0.2369  -13.3413  -47.5207 S.3       23 UNK        -0.2404 
      8 C8         -0.4185  -13.3577  -49.3355 C.3       23 UNK        -0.0205 
      9 C9         -0.9133  -14.7034  -49.8511 C.ar      23 UNK        -0.0193 
     10 C10        -2.2079  -14.8325  -50.3621 C.ar      23 UNK        -0.1150 
     11 C11        -2.6558  -16.0600  -50.8599 C.ar      23 UNK        -0.0193 
     12 C12        -1.8175  -17.1778  -50.7960 C.ar      23 UNK        -0.1150 
     13 C13        -0.5246  -17.0670  -50.2754 C.ar      23 UNK        -0.0193 
     14 C14        -0.0716  -15.8184  -49.8418 C.ar      23 UNK        -0.1150 
     15 C15         0.3817  -18.2931  -50.2125 C.3       23 UNK        -0.0205 
     16 S16         1.4101  -18.3996  -48.7002 S.3       23 UNK        -0.2404 
     17 C17         0.1762  -18.3625  -47.3534 C.3       23 UNK        -0.0398 
     18 CA         -0.2825  -19.7791  -46.9316 C.3       11 UNK         0.1400 
     19 N          -0.6747  -19.8451  -45.5217 N.am      11 UNK        -0.5000 
     20 C          -0.9585  -20.9813  -44.8671 C.2       10 UNK         0.5000 
     21 O          -0.8227  -22.1040  -45.3525 O.2       10 UNK        -0.5000 
     22 CA         -1.5604  -20.8338  -43.4595 C.3       10 UNK         0.1400 
     23 CB         -0.4600  -20.6721  -42.3996 C.3       10 UNK        -0.1800 
     24 N          -2.4984  -19.7105  -43.3954 N.am      10 UNK        -0.5000 
     25 C          -3.7043  -19.7124  -43.9836 C.2       9 UNK         0.5000 
     26 O          -4.1648  -20.6851  -44.5787 O.2       9 UNK        -0.5000 
     27 CA         -4.5197  -18.4061  -43.9329 C.3       9 UNK         0.1400 
     28 CB         -5.3919  -18.3685  -42.6696 C.3       9 UNK        -0.1800 
     29 N          -3.6851  -17.2054  -43.9755 N.am      9 UNK        -0.5000 
     30 C          -2.9335  -16.8236  -45.0193 C.2       8 UNK         0.5000 
     31 O          -2.8980  -17.4241  -46.0920 O.2       8 UNK        -0.5000 
     32 CA         -2.0033  -15.6158  -44.7820 C.3       8 UNK         0.1400 
     33 CB         -2.7401  -14.2959  -45.0487 C.3       8 UNK        -0.1800 
     34 N          -1.4611  -15.6054  -43.4189 N.am      8 UNK        -0.5000 
     35 C          -0.6601  -16.5646  -42.9389 C.2       7 UNK         0.5000 
     36 O          -0.2251  -17.4933  -43.6275 O.2       7 UNK        -0.5000 
     37 CA         -0.3804  -16.5406  -41.4304 C.3       7 UNK         0.1400 
     38 CB         -1.6014  -17.0712  -40.6518 C.3       7 UNK        -0.1800 
     39 N           0.7842  -17.3791  -41.1928 N.am      7 UNK        -0.5000 
     40 C           1.4815  -17.5063  -40.0596 C.2       6 UNK         0.5000 
     41 O           1.1795  -16.9639  -38.9961 O.2       6 UNK        -0.5000 
     42 CA          2.7539  -18.3765  -40.1396 C.3       6 UNK         0.1400 
     43 CB          2.4440  -19.8237  -39.7270 C.3       6 UNK        -0.1800 
     44 N           3.3760  -18.3783  -41.4699 N.am      6 UNK        -0.5000 
     45 C           3.8907  -17.2912  -42.0612 C.2       5 UNK         0.5000 
     46 O           3.9372  -16.1860  -41.5151 O.2       5 UNK        -0.5000 
     47 CA          4.4305  -17.4747  -43.4916 C.3       5 UNK         0.1400 
     48 CB          3.3333  -17.9763  -44.4512 C.3       5 UNK        -0.1800 
     49 N           4.9340  -16.1899  -43.9723 N.am      5 UNK        -0.5000 
     50 C           6.2235  -15.8884  -44.1628 C.2       4 UNK         0.5000 
     51 O           7.1354  -16.7158  -44.1217 O.2       4 UNK        -0.5000 
     52 CA          6.5630  -14.4082  -44.4230 C.3       4 UNK         0.1400 
     53 CB          6.5115  -14.0922  -45.9251 C.3       4 UNK        -0.1800 
     54 N           5.6979  -13.4764  -43.6936 N.am      4 UNK        -0.5000 
     55 C           5.7554  -13.2740  -42.3679 C.2       3 UNK         0.5000 
     56 O           6.5417  -13.8619  -41.6240 O.2       3 UNK        -0.5000 
     57 CA          4.7981  -12.2292  -41.7676 C.3       3 UNK         0.1400 
     58 CB          5.3917  -10.8179  -41.9045 C.3       3 UNK        -0.1800 
     59 N           3.4888  -12.2607  -42.4178 N.am      3 UNK        -0.5000 
     60 C           2.3628  -12.7246  -41.8562 C.2       2 UNK         0.5000 
     61 O           2.2872  -13.1106  -40.6896 O.2       2 UNK        -0.5000 
     62 CA          1.0911  -12.7594  -42.7327 C.3       2 UNK         0.1400 
     63 CB          0.1530  -11.5954  -42.3811 C.3       2 UNK        -0.1800 
     64 N           1.3601  -12.7305  -44.1701 N.am      2 UNK        -0.5000 
     65 C           1.9700  -13.7112  -44.8480 C.2       1 UNK         0.5000 
     66 O           2.3060  -14.7782  -44.3391 O.2       1 UNK        -0.5000 
     67 C          -1.4038  -20.3095  -47.8486 C.2       11 UNK         0.5000 
     68 O          -1.1337  -21.1428  -48.7116 O.2       11 UNK        -0.5000 
     69 N          -2.6472  -19.8668  -47.6088 N.am      12 UNK        -0.5000 
     70 CA         -3.8455  -20.3270  -48.3134 C.3       12 UNK         0.1400 
     71 CB         -5.0681  -19.5325  -47.8325 C.3       12 UNK        -0.1800 
     72 C          -4.0875  -21.8401  -48.1568 C.2       12 UNK         0.5000 
     73 O          -4.4159  -22.5010  -49.1391 O.2       12 UNK        -0.5000 
     74 N          -3.8834  -22.3680  -46.9415 N.am      13 UNK        -0.5000 
     75 CA         -3.9683  -23.7959  -46.6332 C.3       13 UNK         0.1400 
     76 CB         -3.9197  -24.0009  -45.1120 C.3       13 UNK        -0.1800 
     77 C          -2.8784  -24.6299  -47.3328 C.2       13 UNK         0.5000 
     78 O          -3.1703  -25.7298  -47.7997 O.2       13 UNK        -0.5000 
     79 N          -1.6535  -24.0932  -47.4207 N.am      14 UNK        -0.5000 
     80 CA         -0.5380  -24.7059  -48.1467 C.3       14 UNK         0.1400 
     81 CB          0.7718  -24.0000  -47.7633 C.3       14 UNK        -0.1800 
     82 C          -0.7457  -24.6873  -49.6741 C.2       14 UNK         0.5000 
     83 O          -0.3974  -25.6548  -50.3508 O.2       14 UNK        -0.5000 
     84 N          -1.3264  -23.5937  -50.1823 N.am      15 UNK        -0.5000 
     85 CA         -1.6564  -23.3781  -51.5907 C.3       15 UNK         0.1400 
     86 CB         -1.7745  -21.8643  -51.8343 C.3       15 UNK        -0.1800 
     87 C          -2.9316  -24.1092  -52.0577 C.2       15 UNK         0.5000 
     88 O          -3.2312  -24.0786  -53.2539 O.2       15 UNK        -0.5000 
     89 N          -3.6874  -24.7223  -51.1357 N.am      16 UNK        -0.5000 
     90 CA         -4.9146  -25.4695  -51.4163 C.3       16 UNK         0.1400 
     91 CB         -5.5424  -25.9503  -50.1016 C.3       16 UNK        -0.1800 
     92 C          -4.6541  -26.6499  -52.3676 C.2       16 UNK         0.5000 
     93 O          -3.6883  -27.3903  -52.1703 O.2       16 UNK        -0.5000 
     94 N          -5.4887  -26.7618  -53.4101 N.am      17 UNK        -0.5000 
     95 CA         -5.4160  -27.6868  -54.5525 C.3       17 UNK         0.1400 
     96 CB         -5.4906  -29.1571  -54.0986 C.3       17 UNK        -0.1800 
     97 C          -4.2141  -27.4540  -55.4950 C.2       17 UNK         0.5000 
     98 O          -4.3801  -27.5547  -56.7104 O.2       17 UNK        -0.5000 
     99 N          -3.0424  -27.1283  -54.9351 N.am      18 UNK        -0.5000 
    100 CA        -1.7955  -26.8474  -55.6472 C.3       18 UNK         0.1400 
    101 CB        -0.6491  -26.7485  -54.6284 C.3       18 UNK        -0.1800 
    102 C         -1.8652  -25.5734  -56.5086 C.2       18 UNK         0.5000 
    103 O         -1.3971  -25.5837  -57.6479 O.2       18 UNK        -0.5000 
    104 N         -2.4578  -24.5109  -55.9519 N.am      19 UNK        -0.5000 
    105 CA        -2.6499  -23.2114  -56.5975 C.3       19 UNK         0.1400 
    106 CB        -1.5400  -22.2501  -56.1360 C.3       19 UNK        -0.1800 
    107 C         -4.0629  -22.6546  -56.3316 C.2       19 UNK         0.5000 
    108 O         -4.2868  -21.4565  -56.5059 O.2       19 UNK        -0.5000 
    109 N         -4.9899  -23.5365  -55.9231 N.am      20 UNK        -0.5000 
    110 CA        -6.3974  -23.2698  -55.6014 C.3       20 UNK         0.1400 
    111 CB        -7.1770  -22.8411  -56.8622 C.3       20 UNK        -0.1800 
    112 C         -6.5881  -22.2989  -54.4151 C.2       20 UNK         0.5000 
    113 O         -7.5389  -21.5126  -54.4080 O.2       20 UNK        -0.5000 
    114 N         -5.6868  -22.3862  -53.4243 N.am      21 UNK        -0.5000 
    115 CA        -5.6343  -21.5698  -52.2077 C.3       21 UNK         0.1400 
    116 CB        -6.8243  -21.8930  -51.2735 C.3       21 UNK        -0.1800 
    117 C         -5.4844  -20.0756  -52.5510 C.2       21 UNK         0.5000 
    118 O         -4.4240  -19.6747  -53.0322 O.2       21 UNK        -0.5000 
    119 N         -6.5494  -19.3007  -52.3275 N.am      22 UNK        -0.5000 
    120 CA        -6.6895  -17.8983  -52.7425 C.3       22 UNK         0.1400 
    121 C         -7.9047  -17.6895  -53.6949 C.2       22 UNK         0.5000 
    122 N         -8.4729  -18.7315  -54.2934 N.am      22 UNK        -0.7600 
    123 O         -8.3381  -16.5613  -53.9128 O.2       22 UNK        -0.5000 
    124 C124       -6.7133  -16.9272  -51.5291 C.3       23 UNK        -0.0398 
    125 S125       -5.2284  -17.0300  -50.4703 S.3       23 UNK        -0.2404 
    126 C126       -4.0219  -16.1656  -51.5182 C.3       23 UNK        -0.0205 
    127 H127        3.2929   -9.0794  -45.7257 H         1 UNK         0.0600 
    128 H128        2.7088   -9.5577  -47.3231 H         1 UNK         0.0600 
    129 H129        4.4434   -9.5273  -46.9896 H         1 UNK         0.0600 
    130 H130        1.8738  -11.6375  -47.3285 H         1 UNK         0.3000 
    131 H131        3.3182  -13.8892  -46.4559 H         1 UNK         0.0600 
    132 H132        1.8967  -14.1874  -48.2658 H         1 UNK         0.0800 
    133 H133        1.2320  -15.1904  -47.0109 H         1 UNK         0.0800 
    134 H134       -1.1202  -12.5698  -49.6132 H         1 UNK         0.0800 
    135 H135        0.5259  -13.0983  -49.8158 H         1 UNK         0.0800 
    136 H136       -2.8591  -13.9704  -50.3977 H         1 UNK         0.1150 
    137 H137       -2.1716  -18.1298  -51.1678 H         1 UNK         0.1150 
    138 H138        0.9401  -15.7269  -49.4821 H         1 UNK         0.1150 
    139 H139       -0.2068  -19.2060  -50.3056 H         1 UNK         0.0800 
    140 H140        1.0446  -18.2726  -51.0782 H         1 UNK         0.0800 
    141 H141       -0.6648  -17.7177  -47.6128 H         1 UNK         0.0800 
    142 H142        0.6652  -17.8708  -46.5107 H         1 UNK         0.0800 
    143 H143        0.5680  -20.4567  -47.0360 H         1 UNK         0.0600 
    144 H144       -0.7757  -18.9648  -45.0299 H         1 UNK         0.3000 
    145 H145       -2.1109  -21.7490  -43.2314 H         1 UNK         0.0600 
    146 H146       -0.8826  -20.5242  -41.4057 H         1 UNK         0.0600 
    147 H147        0.1652  -21.5646  -42.3567 H         1 UNK         0.0600 
    148 H148        0.1969  -19.8313  -42.6160 H         1 UNK         0.0600 
    149 H149       -2.1640  -18.8611  -42.9681 H         1 UNK         0.3000 
    150 H150       -5.1777  -18.3896  -44.8038 H         1 UNK         0.0600 
    151 H151       -6.0435  -19.2420  -42.6195 H         1 UNK         0.0600 
    152 H152       -6.0325  -17.4864  -42.6584 H         1 UNK         0.0600 
    153 H153       -4.7875  -18.3572  -41.7616 H         1 UNK         0.0600 
    154 H154       -3.6579  -16.6459  -43.1367 H         1 UNK         0.3000 
    155 H155       -1.1682  -15.6919  -45.4822 H         1 UNK         0.0600 
    156 H156       -3.5901  -14.1622  -44.3787 H         1 UNK         0.0600 
    157 H157       -2.0742  -13.4418  -44.9221 H         1 UNK         0.0600 
    158 H158       -3.1175  -14.2628  -46.0717 H         1 UNK         0.0600 
    159 H159       -1.7957  -14.8784  -42.8034 H         1 UNK         0.3000 
    160 H160       -0.1523  -15.5188  -41.1227 H         1 UNK         0.0600 
    161 H161       -1.8162  -18.1114  -40.8978 H         1 UNK         0.0600 
    162 H162       -2.4965  -16.4882  -40.8710 H         1 UNK         0.0600 
    163 H163       -1.4446  -17.0130  -39.5750 H         1 UNK         0.0600 
    164 H164        1.1175  -17.8419  -42.0292 H         1 UNK         0.3000 
    165 H165        3.4767  -17.9661  -39.4312 H         1 UNK         0.0600 
    166 H166        3.3505  -20.4282  -39.6956 H         1 UNK         0.0600 
    167 H167        1.9972  -19.8588  -38.7324 H         1 UNK         0.0600 
    168 H168        1.7459  -20.2992  -40.4164 H         1 UNK         0.0600 
    169 H169        3.3852  -19.2594  -41.9626 H         1 UNK         0.3000 
    170 H170        5.2303  -18.2168  -43.4557 H         1 UNK         0.0600 
    171 H171        3.0223  -18.9914  -44.2034 H         1 UNK         0.0600 
    172 H172        2.4428  -17.3492  -44.4180 H         1 UNK         0.0600 
    173 H173        3.6881  -17.9931  -45.4818 H         1 UNK         0.0600 
    174 H174        4.2492  -15.4418  -43.9645 H         1 UNK         0.3000 
    175 H175        7.5887  -14.2430  -44.0860 H         1 UNK         0.0600 
    176 H176        7.2279  -14.7042  -46.4744 H         1 UNK         0.0600 
    177 H177        5.5273  -14.2891  -46.3463 H         1 UNK         0.0600 
    178 H178        6.7584  -13.0482  -46.1197 H         1 UNK         0.0600 
    179 H179        5.0835  -12.8917  -44.2535 H         1 UNK         0.3000 
    180 H180        4.7014  -12.4492  -40.7024 H         1 UNK         0.0600 
    181 H181        5.5197  -10.5321  -42.9493 H         1 UNK         0.0600 
    182 H182        6.3694  -10.7573  -41.4247 H         1 UNK         0.0600 
    183 H183        4.7502  -10.0747  -41.4308 H         1 UNK         0.0600 
    184 H184        3.4686  -11.9696  -43.3885 H         1 UNK         0.3000 
    185 H185        0.5732  -13.6925  -42.5097 H         1 UNK         0.0600 
    186 H186       -0.1006  -11.6037  -41.3202 H         1 UNK         0.0600 
    187 H187        0.6108  -10.6304  -42.6018 H         1 UNK         0.0600 
    188 H188       -0.7822  -11.6602  -42.9379 H         1 UNK         0.0600 
    189 H189        1.1258  -11.8812  -44.6631 H         1 UNK         0.3000 
    190 H190       -2.7793  -19.1317  -46.9191 H         1 UNK         0.3000 
    191 H191       -3.6998  -20.1148  -49.3746 H         1 UNK         0.0600 
    192 H192       -5.3409  -19.7862  -46.8089 H         1 UNK         0.0600 
    193 H193       -5.9346  -19.7378  -48.4618 H         1 UNK         0.0600 
    194 H194       -4.8842  -18.4590  -47.8705 H         1 UNK         0.0600 
    195 H195       -3.6863  -21.7449  -46.1646 H         1 UNK         0.3000 
    196 H196       -4.9361  -24.1542  -46.9903 H         1 UNK         0.0600 
    197 H197       -4.0152  -25.0571  -44.8573 H         1 UNK         0.0600 
    198 H198       -4.7341  -23.4720  -44.6167 H         1 UNK         0.0600 
    199 H199       -2.9816  -23.6444  -44.6867 H         1 UNK         0.0600 
    200 H200       -1.4714  -23.2058  -46.9636 H         1 UNK         0.3000 
    201 H201       -0.4620  -25.7495  -47.8344 H         1 UNK         0.0600 
    202 H202        0.9521  -24.0610  -46.6898 H         1 UNK         0.0600 
    203 H203        0.7593  -22.9455  -48.0394 H         1 UNK         0.0600 
    204 H204        1.6241  -24.4605  -48.2641 H         1 UNK         0.0600 
    205 H205       -1.5101  -22.8139  -49.5559 H         1 UNK         0.3000 
    206 H206       -0.8361  -23.7554  -52.2045 H         1 UNK         0.0600 
    207 H207       -0.8147  -21.3694  -51.6869 H         1 UNK         0.0600 
    208 H208       -2.1026  -21.6408  -52.8492 H         1 UNK         0.0600 
    209 H209       -2.4895  -21.4026  -51.1538 H         1 UNK         0.0600 
    210 H210       -3.3907  -24.6845  -50.1708 H         1 UNK         0.3000 
    211 H211       -5.6133  -24.7813  -51.8930 H         1 UNK         0.0600 
    212 H212       -4.9049  -26.6758  -49.5954 H         1 UNK         0.0600 
    213 H213       -6.5047  -26.4305  -50.2821 H         1 UNK         0.0600 
    214 H214       -5.7155  -25.1183  -49.4185 H         1 UNK         0.0600 
    215 H215       -6.2502  -26.1007  -53.4636 H         1 UNK         0.3000 
    216 H216       -6.3113  -27.4870  -55.1436 H         1 UNK         0.0600 
    217 H217       -5.5646  -29.8241  -54.9584 H         1 UNK         0.0600 
    218 H218       -6.3668  -29.3332  -53.4747 H         1 UNK         0.0600 
    219 H219       -4.6088  -29.4575  -53.5324 H         1 UNK         0.0600 
    220 H220       -3.0081  -27.1052  -53.9198 H         1 UNK         0.3000 
    221 H221       -1.5915  -27.6892  -56.3121 H         1 UNK         0.0600 
    222 H222       -0.8191  -25.9491  -53.9058 H         1 UNK         0.0600 
    223 H223       -0.5343  -27.6798  -54.0736 H         1 UNK         0.0600 
    224 H224        0.3006  -26.5469  -55.1256 H         1 UNK         0.0600 
    225 H225       -2.7696  -24.5657  -54.9841 H         1 UNK         0.3000 
    226 H226       -2.5762  -23.3220  -57.6811 H         1 UNK         0.0600 
    227 H227       -0.5531  -22.6437  -56.3793 H         1 UNK         0.0600 
    228 H228       -1.6285  -21.2780  -56.6223 H         1 UNK         0.0600 
    229 H229       -1.5780  -22.0866  -55.0598 H         1 UNK         0.0600 
    230 H230       -4.6933  -24.4970  -55.8340 H         1 UNK         0.3000 
    231 H231       -6.8156  -24.2220  -55.2727 H         1 UNK         0.0600 
    232 H232       -8.2477  -22.7895  -56.6616 H         1 UNK         0.0600 
    233 H233       -7.0351  -23.5533  -57.6750 H         1 UNK         0.0600 
    234 H234       -6.8650  -21.8587  -57.2177 H         1 UNK         0.0600 
    235 H235       -4.8978  -23.0104  -53.5568 H         1 UNK         0.3000 
    236 H236       -4.7248  -21.8498  -51.6808 H         1 UNK         0.0600 
    237 H237       -7.7912  -21.7106  -51.7427 H         1 UNK         0.0600 
    238 H238       -6.8023  -22.9370  -50.9635 H         1 UNK         0.0600 
    239 H239       -6.7777  -21.2962  -50.3619 H         1 UNK         0.0600 
    240 H240       -7.3854  -19.7283  -51.9567 H         1 UNK         0.3000 
    241 H241       -5.8360  -17.6240  -53.3629 H         1 UNK         0.0600 
    242 H242       -9.2553  -18.5750  -54.9086 H         1 UNK         0.3800 
    243 H243       -8.0989  -19.6724  -54.1984 H         1 UNK         0.3800 
    244 H244       -6.8173  -15.8932  -51.8621 H         1 UNK         0.0800 
    245 H245       -7.5850  -17.1312  -50.9057 H         1 UNK         0.0800 
    246 H246       -3.9123  -16.6995  -52.4627 H         1 UNK         0.0800 
    247 H247       -4.4037  -15.1740  -51.7661 H         1 UNK         0.0800 
@<TRIPOS>BOND
     1    1    2 1    
     2    1  127 1    
     3    1  128 1    
     4    1  129 1    
     5    2    3 2    
     6    2    4 am   BACKBONE|DICT|INTERRES
     7    4    5 1    
     8    4  130 1    
     9    5    6 1    
    10    5   65 1    
    11    5  131 1    
    12    6    7 1    
    13    6  132 1    
    14    6  133 1    
    15    7    8 1    
    16    8    9 1    
    17    8  134 1    
    18    8  135 1    
    19    9   10 ar   
    20    9   14 ar   
    21   10   11 ar   
    22   10  136 1    
    23   11   12 ar   
    24   11  126 1    
    25   12   13 ar   
    26   12  137 1    
    27   13   14 ar   
    28   13   15 1    
    29   14  138 1    
    30   15   16 1    
    31   15  139 1    
    32   15  140 1    
    33   16   17 1    
    34   17   18 1    
    35   17  141 1    
    36   17  142 1    
    37   18   19 1    
    38   18   67 1    
    39   18  143 1    
    40   19   20 am   BACKBONE|DICT|INTERRES
    41   19  144 1    
    42   20   21 2    
    43   20   22 1    
    44   22   23 1    
    45   22   24 1    
    46   22  145 1    
    47   23  146 1    
    48   23  147 1    
    49   23  148 1    
    50   24   25 am   BACKBONE|DICT|INTERRES
    51   24  149 1    
    52   25   26 2    
    53   25   27 1    
    54   27   28 1    
    55   27   29 1    
    56   27  150 1    
    57   28  151 1    
    58   28  152 1    
    59   28  153 1    
    60   29   30 am   BACKBONE|DICT|INTERRES
    61   29  154 1    
    62   30   31 2    
    63   30   32 1    
    64   32   33 1    
    65   32   34 1    
    66   32  155 1    
    67   33  156 1    
    68   33  157 1    
    69   33  158 1    
    70   34   35 am   BACKBONE|DICT|INTERRES
    71   34  159 1    
    72   35   36 2    
    73   35   37 1    
    74   37   38 1    
    75   37   39 1    
    76   37  160 1    
    77   38  161 1    
    78   38  162 1    
    79   38  163 1    
    80   39   40 am   BACKBONE|DICT|INTERRES
    81   39  164 1    
    82   40   41 2    
    83   40   42 1    
    84   42   43 1    
    85   42   44 1    
    86   42  165 1    
    87   43  166 1    
    88   43  167 1    
    89   43  168 1    
    90   44   45 am   BACKBONE|DICT|INTERRES
    91   44  169 1    
    92   45   46 2    
    93   45   47 1    
    94   47   48 1    
    95   47   49 1    
    96   47  170 1    
    97   48  171 1    
    98   48  172 1    
    99   48  173 1    
   100   49   50 am   BACKBONE|DICT|INTERRES
   101   49  174 1    
   102   50   51 2    
   103   50   52 1    
   104   52   53 1    
   105   52   54 1    
   106   52  175 1    
   107   53  176 1    
   108   53  177 1    
   109   53  178 1    
   110   54   55 am   BACKBONE|DICT|INTERRES
   111   54  179 1    
   112   55   56 2    
   113   55   57 1    
   114   57   58 1    
   115   57   59 1    
   116   57  180 1    
   117   58  181 1    
   118   58  182 1    
   119   58  183 1    
   120   59   60 am   BACKBONE|DICT|INTERRES
   121   59  184 1    
   122   60   61 2    
   123   60   62 1    
   124   62   63 1    
   125   62   64 1    
   126   62  185 1    
   127   63  186 1    
   128   63  187 1    
   129   63  188 1    
   130   64   65 am   BACKBONE|DICT|INTERRES
   131   64  189 1    
   132   65   66 2    
   133   67   68 2    
   134   67   69 am   BACKBONE|DICT|INTERRES
   135   69   70 1    
   136   69  190 1    
   137   70   71 1    
   138   70   72 1    
   139   70  191 1    
   140   71  192 1    
   141   71  193 1    
   142   71  194 1    
   143   72   73 2    
   144   72   74 am   BACKBONE|DICT|INTERRES
   145   74   75 1    
   146   74  195 1    
   147   75   76 1    
   148   75   77 1    
   149   75  196 1    
   150   76  197 1    
   151   76  198 1    
   152   76  199 1    
   153   77   78 2    
   154   77   79 am   BACKBONE|DICT|INTERRES
   155   79   80 1    
   156   79  200 1    
   157   80   81 1    
   158   80   82 1    
   159   80  201 1    
   160   81  202 1    
   161   81  203 1    
   162   81  204 1    
   163   82   83 2    
   164   82   84 am   BACKBONE|DICT|INTERRES
   165   84   85 1    
   166   84  205 1    
   167   85   86 1    
   168   85   87 1    
   169   85  206 1    
   170   86  207 1    
   171   86  208 1    
   172   86  209 1    
   173   87   88 2    
   174   87   89 am   BACKBONE|DICT|INTERRES
   175   89   90 1    
   176   89  210 1    
   177   90   91 1    
   178   90   92 1    
   179   90  211 1    
   180   91  212 1    
   181   91  213 1    
   182   91  214 1    
   183   92   93 2    
   184   92   94 am   BACKBONE|DICT|INTERRES
   185   94   95 1    
   186   94  215 1    
   187   95   96 1    
   188   95   97 1    
   189   95  216 1    
   190   96  217 1    
   191   96  218 1    
   192   96  219 1    
   193   97   98 2    
   194   97   99 am   BACKBONE|DICT|INTERRES
   195   99  100 1    
   196   99  220 1    
   197  100  101 1    
   198  100  102 1    
   199  100  221 1    
   200  101  222 1    
   201  101  223 1    
   202  101  224 1    
   203  102  103 2    
   204  102  104 am   BACKBONE|DICT|INTERRES
   205  104  105 1    
   206  104  225 1    
   207  105  106 1    
   208  105  107 1    
   209  105  226 1    
   210  106  227 1    
   211  106  228 1    
   212  106  229 1    
   213  107  108 2    
   214  107  109 am   BACKBONE|DICT|INTERRES
   215  109  110 1    
   216  109  230 1    
   217  110  111 1    
   218  110  112 1    
   219  110  231 1    
   220  111  232 1    
   221  111  233 1    
   222  111  234 1    
   223  112  113 2    
   224  112  114 am   BACKBONE|DICT|INTERRES
   225  114  115 1    
   226  114  235 1    
   227  115  116 1    
   228  115  117 1    
   229  115  236 1    
   230  116  237 1    
   231  116  238 1    
   232  116  239 1    
   233  117  118 2    
   234  117  119 am   BACKBONE|DICT|INTERRES
   235  119  120 1    
   236  119  240 1    
   237  120  121 1    
   238  120  124 1    
   239  120  241 1    
   240  121  122 am   BACKBONE|DICT|INTERRES
   241  121  123 2    
   242  122  242 1    
   243  122  243 1    
   244  124  125 1    
   245  124  244 1    
   246  124  245 1    
   247  125  126 1    
   248  126  246 1    
   249  126  247 1    
@<TRIPOS>SUBSTRUCTURE
     1 UNK         1 GROUP             0       ****    0 ROOT    
