@<TRIPOS>MOLECULE
3R540
247   249    1
SMALL
USER_CHARGES


@<TRIPOS>ATOM
      1 CA          5.5337  -18.9737  -43.6718 C.3       0 UNK        -0.1800 
      2 C           5.6422  -18.1001  -44.9131 C.2       0 UNK         0.5000 
      3 O           6.7519  -17.7884  -45.3452 O.2       0 UNK        -0.5000 
      4 N           4.4948  -17.6900  -45.4708 N.am      1 UNK        -0.5000 
      5 CA          4.2989  -16.8683  -46.6764 C.3       1 UNK         0.1400 
      6 C6          4.9332  -17.4597  -47.9655 C.3       23 UNK        -0.0398 
      7 S7          4.2800  -19.1054  -48.4176 S.3       23 UNK        -0.2404 
      8 C8          3.8896  -18.8759  -50.1907 C.3       23 UNK        -0.0205 
      9 C9          2.4510  -18.4379  -50.4558 C.ar      23 UNK        -0.0193 
     10 C10         1.7270  -19.0314  -51.4948 C.ar      23 UNK        -0.1150 
     11 C11         0.3943  -18.6797  -51.7320 C.ar      23 UNK        -0.0193 
     12 C12        -0.2190  -17.7242  -50.9170 C.ar      23 UNK        -0.1150 
     13 C13         0.4993  -17.1051  -49.8912 C.ar      23 UNK        -0.0193 
     14 C14         1.8346  -17.4509  -49.6814 C.ar      23 UNK        -0.1150 
     15 C15        -0.1664  -16.0888  -48.9779 C.3       23 UNK        -0.0205 
     16 S16        -0.4653  -16.7854  -47.3223 S.3       23 UNK        -0.2404 
     17 C17        -1.6872  -18.0898  -47.6927 C.3       23 UNK        -0.0398 
     18 CA         -1.0825  -19.5169  -47.7264 C.3       11 UNK         0.1400 
     19 N          -0.3697  -19.8709  -46.4908 N.am      11 UNK        -0.5000 
     20 C           0.2867  -21.0229  -46.2794 C.2       10 UNK         0.5000 
     21 O           0.3846  -21.9211  -47.1134 O.2       10 UNK        -0.5000 
     22 CA          0.8810  -21.2369  -44.8795 C.3       10 UNK         0.1400 
     23 CB          2.2353  -20.5245  -44.7424 C.3       10 UNK        -0.1800 
     24 N          -0.0430  -20.7717  -43.8458 N.am      10 UNK        -0.5000 
     25 C          -1.1179  -21.4635  -43.4367 C.2       9 UNK         0.5000 
     26 O          -1.3810  -22.6029  -43.8199 O.2       9 UNK        -0.5000 
     27 CA         -2.0783  -20.7642  -42.4530 C.3       9 UNK         0.1400 
     28 CB         -1.6857  -21.0794  -41.0020 C.3       9 UNK        -0.1800 
     29 N          -2.1345  -19.3124  -42.6289 N.am      9 UNK        -0.5000 
     30 C          -2.5898  -18.6935  -43.7268 C.2       8 UNK         0.5000 
     31 O          -3.0815  -19.2859  -44.6862 O.2       8 UNK        -0.5000 
     32 CA         -2.4206  -17.1631  -43.7916 C.3       8 UNK         0.1400 
     33 CB         -3.7124  -16.4631  -43.3475 C.3       8 UNK        -0.1800 
     34 N          -1.2865  -16.6380  -43.0221 N.am      8 UNK        -0.5000 
     35 C          -0.0033  -16.9994  -43.1847 C.2       7 UNK         0.5000 
     36 O           0.3516  -17.8867  -43.9623 O.2       7 UNK        -0.5000 
     37 CA          1.0481  -16.2698  -42.3261 C.3       7 UNK         0.1400 
     38 CB          2.4237  -16.2214  -43.0157 C.3       7 UNK        -0.1800 
     39 N           0.6081  -14.9090  -42.0209 N.am      7 UNK        -0.5000 
     40 C           0.3798  -14.4105  -40.7977 C.2       6 UNK         0.5000 
     41 O           0.5902  -15.0384  -39.7597 O.2       6 UNK        -0.5000 
     42 CA         -0.2053  -12.9839  -40.7035 C.3       6 UNK         0.1400 
     43 CB          0.7875  -12.0053  -40.0602 C.3       6 UNK        -0.1800 
     44 N          -0.6344  -12.4528  -41.9997 N.am      6 UNK        -0.5000 
     45 C          -1.8017  -12.7608  -42.5825 C.2       5 UNK         0.5000 
     46 O          -2.6582  -13.4630  -42.0457 O.2       5 UNK        -0.5000 
     47 CA         -2.0477  -12.2360  -44.0120 C.3       5 UNK         0.1400 
     48 CB         -2.8913  -10.9531  -43.9747 C.3       5 UNK        -0.1800 
     49 N          -0.8267  -11.9807  -44.7814 N.am      5 UNK        -0.5000 
     50 C           0.0946  -12.8992  -45.1028 C.2       4 UNK         0.5000 
     51 O           0.0212  -14.0786  -44.7619 O.2       4 UNK        -0.5000 
     52 CA          1.3291  -12.4287  -45.8961 C.3       4 UNK         0.1400 
     53 CB          1.2118  -10.9964  -46.4635 C.3       4 UNK        -0.1800 
     54 N           2.5584  -12.5654  -45.1105 N.am      4 UNK        -0.5000 
     55 C           2.8264  -12.0195  -43.9124 C.2       3 UNK         0.5000 
     56 O           2.0193  -11.3310  -43.2853 O.2       3 UNK        -0.5000 
     57 CA          4.2207  -12.2795  -43.2998 C.3       3 UNK         0.1400 
     58 CB          4.1194  -12.8459  -41.8741 C.3       3 UNK        -0.1800 
     59 N           5.0440  -13.1784  -44.1127 N.am      3 UNK        -0.5000 
     60 C           5.8561  -12.7746  -45.0983 C.2       2 UNK         0.5000 
     61 O           6.0138  -11.5949  -45.4148 O.2       2 UNK        -0.5000 
     62 CA          6.6106  -13.8695  -45.8752 C.3       2 UNK         0.1400 
     63 CB          8.0066  -14.0871  -45.2720 C.3       2 UNK        -0.1800 
     64 N           5.9236  -15.1622  -45.9515 N.am      2 UNK        -0.5000 
     65 C           4.7280  -15.3942  -46.5077 C.2       1 UNK         0.5000 
     66 O           3.9757  -14.5002  -46.8952 O.2       1 UNK        -0.5000 
     67 C          -2.1843  -20.5442  -48.0590 C.2       11 UNK         0.5000 
     68 O          -2.2550  -21.0289  -49.1870 O.2       11 UNK        -0.5000 
     69 N          -2.9802  -20.9054  -47.0434 N.am      12 UNK        -0.5000 
     70 CA         -4.0593  -21.8902  -47.1183 C.3       12 UNK         0.1400 
     71 CB         -4.9589  -21.7291  -45.8826 C.3       12 UNK        -0.1800 
     72 C          -3.5895  -23.3537  -47.2664 C.2       12 UNK         0.5000 
     73 O          -4.4356  -24.2341  -47.4200 O.2       12 UNK        -0.5000 
     74 N          -2.2757  -23.6021  -47.2067 N.am      13 UNK        -0.5000 
     75 CA         -1.6553  -24.9172  -47.3672 C.3       13 UNK         0.1400 
     76 CB         -0.8965  -25.2513  -46.0715 C.3       13 UNK        -0.1800 
     77 C          -0.7125  -24.9654  -48.5861 C.2       13 UNK         0.5000 
     78 O          -0.0452  -25.9814  -48.7865 O.2       13 UNK        -0.5000 
     79 N          -0.6418  -23.8771  -49.3665 N.am      14 UNK        -0.5000 
     80 CA          0.3401  -23.6907  -50.4357 C.3       14 UNK         0.1400 
     81 CB          0.4029  -22.2010  -50.7938 C.3       14 UNK        -0.1800 
     82 C           0.0817  -24.5332  -51.6989 C.2       14 UNK         0.5000 
     83 O           1.0220  -24.7728  -52.4582 O.2       14 UNK        -0.5000 
     84 N          -1.1668  -24.9617  -51.9148 N.am      15 UNK        -0.5000 
     85 CA         -1.5900  -25.7679  -53.0557 C.3       15 UNK         0.1400 
     86 CB         -1.8037  -24.8645  -54.2865 C.3       15 UNK        -0.1800 
     87 C          -2.8761  -26.5252  -52.7007 C.2       15 UNK         0.5000 
     88 O          -3.5154  -26.2193  -51.6902 O.2       15 UNK        -0.5000 
     89 N          -3.2619  -27.4674  -53.5726 N.am      16 UNK        -0.5000 
     90 CA         -4.4732  -28.2929  -53.4698 C.3       16 UNK         0.1400 
     91 CB         -4.4467  -29.3520  -54.5827 C.3       16 UNK        -0.1800 
     92 C          -5.7961  -27.4975  -53.5134 C.2       16 UNK         0.5000 
     93 O          -6.8283  -28.0134  -53.0839 O.2       16 UNK        -0.5000 
     94 N          -5.7360  -26.2479  -53.9953 N.am      17 UNK        -0.5000 
     95 CA         -6.8113  -25.2553  -53.9349 C.3       17 UNK         0.1400 
     96 CB         -6.4277  -24.0714  -54.8362 C.3       17 UNK        -0.1800 
     97 C          -7.1250  -24.7673  -52.5024 C.2       17 UNK         0.5000 
     98 O          -8.1648  -24.1390  -52.2980 O.2       17 UNK        -0.5000 
     99 N          -6.2329  -25.0565  -51.5420 N.am      18 UNK        -0.5000 
    100 CA        -6.3238  -24.7343  -50.1189 C.3       18 UNK         0.1400 
    101 CB        -7.4354  -25.5677  -49.4433 C.3       18 UNK        -0.1800 
    102 C         -6.4423  -23.2145  -49.9006 C.2       18 UNK         0.5000 
    103 O         -5.5565  -22.4799  -50.3337 O.2       18 UNK        -0.5000 
    104 N         -7.5341  -22.7535  -49.2774 N.am      19 UNK        -0.5000 
    105 CA        -7.8214  -21.3397  -49.0208 C.3       19 UNK         0.1400 
    106 CB        -9.0876  -21.2417  -48.1567 C.3       19 UNK        -0.1800 
    107 C         -7.9622  -20.4727  -50.2913 C.2       19 UNK         0.5000 
    108 O         -7.8058  -19.2547  -50.2016 O.2       19 UNK        -0.5000 
    109 N         -8.2437  -21.0994  -51.4431 N.am      20 UNK        -0.5000 
    110 CA        -8.3363  -20.4356  -52.7437 C.3       20 UNK         0.1400 
    111 CB        -9.3745  -21.1707  -53.6073 C.3       20 UNK        -0.1800 
    112 C         -6.9809  -20.3324  -53.4743 C.2       20 UNK         0.5000 
    113 O         -6.9289  -19.7003  -54.5323 O.2       20 UNK        -0.5000 
    114 N         -5.9114  -20.9413  -52.9334 N.am      21 UNK        -0.5000 
    115 CA        -4.5603  -20.8884  -53.4983 C.3       21 UNK         0.1400 
    116 CB        -3.6112  -21.7824  -52.6844 C.3       21 UNK        -0.1800 
    117 C         -4.0262  -19.4462  -53.5591 C.2       21 UNK         0.5000 
    118 O         -4.1091  -18.7209  -52.5656 O.2       21 UNK        -0.5000 
    119 N         -3.4986  -19.0671  -54.7293 N.am      22 UNK        -0.5000 
    120 CA        -3.0015  -17.7183  -55.0608 C.3       22 UNK         0.1400 
    121 C         -4.1048  -16.6135  -55.1140 C.2       22 UNK         0.5000 
    122 N         -5.3907  -16.9487  -55.1165 N.am      22 UNK        -0.7600 
    123 O         -3.7938  -15.4280  -55.1936 O.2       22 UNK        -0.5000 
    124 C124       -1.7667  -17.2909  -54.2141 C.3       23 UNK        -0.0398 
    125 S125       -0.3527  -18.4338  -54.4017 S.3       23 UNK        -0.2404 
    126 C126       -0.3892  -19.3677  -52.8393 C.3       23 UNK        -0.0205 
    127 H127        5.8721  -19.9851  -43.8958 H         1 UNK         0.0600 
    128 H128        4.5105  -19.0297  -43.3014 H         1 UNK         0.0600 
    129 H129        6.1587  -18.5721  -42.8743 H         1 UNK         0.0600 
    130 H130        3.6318  -17.9840  -45.0383 H         1 UNK         0.3000 
    131 H131        3.2174  -16.8462  -46.8167 H         1 UNK         0.0600 
    132 H132        4.7727  -16.7780  -48.8025 H         1 UNK         0.0800 
    133 H133        6.0159  -17.5439  -47.8639 H         1 UNK         0.0800 
    134 H134        4.5773  -18.1627  -50.6463 H         1 UNK         0.0800 
    135 H135        4.0776  -19.8296  -50.6860 H         1 UNK         0.0800 
    136 H136        2.1963  -19.7832  -52.1136 H         1 UNK         0.1150 
    137 H137       -1.2580  -17.4719  -51.0704 H         1 UNK         0.1150 
    138 H138        2.3757  -16.9665  -48.8860 H         1 UNK         0.1150 
    139 H139        0.4771  -15.2131  -48.8815 H         1 UNK         0.0800 
    140 H140       -1.1065  -15.7343  -49.4033 H         1 UNK         0.0800 
    141 H141       -2.4758  -18.0243  -46.9431 H         1 UNK         0.0800 
    142 H142       -2.1716  -17.8625  -48.6438 H         1 UNK         0.0800 
    143 H143       -0.3500  -19.5568  -48.5350 H         1 UNK         0.0600 
    144 H144       -0.3730  -19.1750  -45.7559 H         1 UNK         0.3000 
    145 H145        1.0521  -22.3071  -44.7433 H         1 UNK         0.0600 
    146 H146        2.6517  -20.6595  -43.7444 H         1 UNK         0.0600 
    147 H147        2.1534  -19.4556  -44.9342 H         1 UNK         0.0600 
    148 H148        2.9574  -20.9253  -45.4551 H         1 UNK         0.0600 
    149 H149        0.0716  -19.8099  -43.5450 H         1 UNK         0.3000 
    150 H150       -3.0793  -21.1624  -42.6318 H         1 UNK         0.0600 
    151 H151       -1.6588  -22.1564  -40.8303 H         1 UNK         0.0600 
    152 H152       -2.4033  -20.6574  -40.2981 H         1 UNK         0.0600 
    153 H153       -0.6997  -20.6830  -40.7565 H         1 UNK         0.0600 
    154 H154       -1.7458  -18.7475  -41.8887 H         1 UNK         0.3000 
    155 H155       -2.2427  -16.9044  -44.8360 H         1 UNK         0.0600 
    156 H156       -4.5797  -16.8692  -43.8700 H         1 UNK         0.0600 
    157 H157       -3.6770  -15.3974  -43.5706 H         1 UNK         0.0600 
    158 H158       -3.8874  -16.5799  -42.2774 H         1 UNK         0.0600 
    159 H159       -1.4938  -15.8962  -42.3691 H         1 UNK         0.3000 
    160 H160        1.1512  -16.8555  -41.4109 H         1 UNK         0.0600 
    161 H161        2.3944  -15.6330  -43.9339 H         1 UNK         0.0600 
    162 H162        2.7653  -17.2237  -43.2709 H         1 UNK         0.0600 
    163 H163        3.1797  -15.7957  -42.3587 H         1 UNK         0.0600 
    164 H164        0.3684  -14.3519  -42.8360 H         1 UNK         0.3000 
    165 H165       -1.0726  -13.0452  -40.0427 H         1 UNK         0.0600 
    166 H166        0.3185  -11.0392  -39.8733 H         1 UNK         0.0600 
    167 H167        1.1503  -12.3804  -39.1024 H         1 UNK         0.0600 
    168 H168        1.6520  -11.8348  -40.6968 H         1 UNK         0.0600 
    169 H169        0.0419  -11.8942  -42.5089 H         1 UNK         0.3000 
    170 H170       -2.6150  -13.0033  -44.5430 H         1 UNK         0.0600 
    171 H171       -2.3611  -10.1380  -43.4805 H         1 UNK         0.0600 
    172 H172       -3.1544  -10.6235  -44.9800 H         1 UNK         0.0600 
    173 H173       -3.8244  -11.1141  -43.4329 H         1 UNK         0.0600 
    174 H174       -0.6685  -11.0262  -45.0698 H         1 UNK         0.3000 
    175 H175        1.4243  -13.1128  -46.7408 H         1 UNK         0.0600 
    176 H176        1.1490  -10.2421  -45.6784 H         1 UNK         0.0600 
    177 H177        2.0779  -10.7544  -47.0797 H         1 UNK         0.0600 
    178 H178        0.3310  -10.8945  -47.0988 H         1 UNK         0.0600 
    179 H179        3.2673  -13.1495  -45.5406 H         1 UNK         0.3000 
    180 H180        4.7214  -11.3118  -43.2273 H         1 UNK         0.0600 
    181 H181        5.0707  -13.2551  -41.5336 H         1 UNK         0.0600 
    182 H182        3.3659  -13.6277  -41.7960 H         1 UNK         0.0600 
    183 H183        3.8475  -12.0585  -41.1719 H         1 UNK         0.0600 
    184 H184        4.9684  -14.1674  -43.9256 H         1 UNK         0.3000 
    185 H185        6.7349  -13.5089  -46.8982 H         1 UNK         0.0600 
    186 H186        8.5926  -14.7820  -45.8740 H         1 UNK         0.0600 
    187 H187        8.5641  -13.1507  -45.2237 H         1 UNK         0.0600 
    188 H188        7.9476  -14.4882  -44.2594 H         1 UNK         0.0600 
    189 H189        6.4561  -15.9788  -45.6602 H         1 UNK         0.3000 
    190 H190       -2.8706  -20.4340  -46.1479 H         1 UNK         0.3000 
    191 H191       -4.6548  -21.6546  -48.0003 H         1 UNK         0.0600 
    192 H192       -5.3532  -20.7152  -45.8112 H         1 UNK         0.0600 
    193 H193       -5.8138  -22.4052  -45.9257 H         1 UNK         0.0600 
    194 H194       -4.4138  -21.9424  -44.9621 H         1 UNK         0.0600 
    195 H195       -1.6355  -22.8299  -47.0670 H         1 UNK         0.3000 
    196 H196       -2.4122  -25.6872  -47.5282 H         1 UNK         0.0600 
    197 H197       -1.5653  -25.2396  -45.2106 H         1 UNK         0.0600 
    198 H198       -0.0964  -24.5349  -45.8803 H         1 UNK         0.0600 
    199 H199       -0.4474  -26.2439  -46.1194 H         1 UNK         0.0600 
    200 H200       -1.2263  -23.0792  -49.1515 H         1 UNK         0.3000 
    201 H201        1.3185  -23.9814  -50.0474 H         1 UNK         0.0600 
    202 H202        0.6715  -21.5947  -49.9283 H         1 UNK         0.0600 
    203 H203       -0.5555  -21.8424  -51.1703 H         1 UNK         0.0600 
    204 H204        1.1532  -22.0177  -51.5633 H         1 UNK         0.0600 
    205 H205       -1.8865  -24.7852  -51.2255 H         1 UNK         0.3000 
    206 H206       -0.8181  -26.5086  -53.2752 H         1 UNK         0.0600 
    207 H207       -2.6121  -24.1516  -54.1270 H         1 UNK         0.0600 
    208 H208       -0.9038  -24.2986  -54.5276 H         1 UNK         0.0600 
    209 H209       -2.0558  -25.4518  -55.1699 H         1 UNK         0.0600 
    210 H210       -2.6799  -27.6438  -54.3792 H         1 UNK         0.3000 
    211 H211       -4.4411  -28.8069  -52.5070 H         1 UNK         0.0600 
    212 H212       -4.4521  -28.8947  -55.5729 H         1 UNK         0.0600 
    213 H213       -5.3155  -30.0087  -54.5198 H         1 UNK         0.0600 
    214 H214       -3.5604  -29.9824  -54.5074 H         1 UNK         0.0600 
    215 H215       -4.8472  -25.9244  -54.3454 H         1 UNK         0.3000 
    216 H216       -7.7215  -25.7106  -54.3301 H         1 UNK         0.0600 
    217 H217       -7.2032  -23.3054  -54.8359 H         1 UNK         0.0600 
    218 H218       -6.2912  -24.3906  -55.8695 H         1 UNK         0.0600 
    219 H219       -5.5016  -23.6017  -54.5056 H         1 UNK         0.0600 
    220 H220       -5.3764  -25.5313  -51.8080 H         1 UNK         0.3000 
    221 H221       -5.3707  -25.0379  -49.6862 H         1 UNK         0.0600 
    222 H222       -8.4263  -25.3336  -49.8339 H         1 UNK         0.0600 
    223 H223       -7.2662  -26.6334  -49.5984 H         1 UNK         0.0600 
    224 H224       -7.4495  -25.4016  -48.3653 H         1 UNK         0.0600 
    225 H225       -8.2318  -23.4182  -48.9766 H         1 UNK         0.3000 
    226 H226       -6.9870  -20.9322  -48.4468 H         1 UNK         0.0600 
    227 H227       -8.9630  -21.7714  -47.2119 H         1 UNK         0.0600 
    228 H228       -9.3184  -20.2030  -47.9163 H         1 UNK         0.0600 
    229 H229       -9.9554  -21.6613  -48.6672 H         1 UNK         0.0600 
    230 H230       -8.3346  -22.1091  -51.4467 H         1 UNK         0.3000 
    231 H231       -8.6962  -19.4146  -52.6010 H         1 UNK         0.0600 
    232 H232       -9.5178  -20.6650  -54.5630 H         1 UNK         0.0600 
    233 H233      -10.3449  -21.2053  -53.1120 H         1 UNK         0.0600 
    234 H234       -9.0730  -22.1947  -53.8229 H         1 UNK         0.0600 
    235 H235       -6.0014  -21.4016  -52.0341 H         1 UNK         0.3000 
    236 H236       -4.6163  -21.2888  -54.5125 H         1 UNK         0.0600 
    237 H237       -3.4791  -21.4057  -51.6692 H         1 UNK         0.0600 
    238 H238       -3.9859  -22.8034  -52.6135 H         1 UNK         0.0600 
    239 H239       -2.6235  -21.8260  -53.1445 H         1 UNK         0.0600 
    240 H240       -3.4812  -19.7284  -55.4922 H         1 UNK         0.3000 
    241 H241       -2.6610  -17.7928  -56.0941 H         1 UNK         0.0600 
    242 H242       -5.6823  -17.9146  -55.0403 H         1 UNK         0.3800 
    243 H243       -6.0878  -16.2227  -55.1667 H         1 UNK         0.3800 
    244 H244       -2.0373  -17.1858  -53.1649 H         1 UNK         0.0800 
    245 H245       -1.4141  -16.3071  -54.5274 H         1 UNK         0.0800 
    246 H246       -1.4139  -19.5396  -52.5136 H         1 UNK         0.0800 
    247 H247        0.0315  -20.3547  -53.0326 H         1 UNK         0.0800 
@<TRIPOS>BOND
     1    1    2 1    
     2    1  127 1    
     3    1  128 1    
     4    1  129 1    
     5    2    3 2    
     6    2    4 am   BACKBONE|DICT|INTERRES
     7    4    5 1    
     8    4  130 1    
     9    5    6 1    
    10    5   65 1    
    11    5  131 1    
    12    6    7 1    
    13    6  132 1    
    14    6  133 1    
    15    7    8 1    
    16    8    9 1    
    17    8  134 1    
    18    8  135 1    
    19    9   10 ar   
    20    9   14 ar   
    21   10   11 ar   
    22   10  136 1    
    23   11   12 ar   
    24   11  126 1    
    25   12   13 ar   
    26   12  137 1    
    27   13   14 ar   
    28   13   15 1    
    29   14  138 1    
    30   15   16 1    
    31   15  139 1    
    32   15  140 1    
    33   16   17 1    
    34   17   18 1    
    35   17  141 1    
    36   17  142 1    
    37   18   19 1    
    38   18   67 1    
    39   18  143 1    
    40   19   20 am   BACKBONE|DICT|INTERRES
    41   19  144 1    
    42   20   21 2    
    43   20   22 1    
    44   22   23 1    
    45   22   24 1    
    46   22  145 1    
    47   23  146 1    
    48   23  147 1    
    49   23  148 1    
    50   24   25 am   BACKBONE|DICT|INTERRES
    51   24  149 1    
    52   25   26 2    
    53   25   27 1    
    54   27   28 1    
    55   27   29 1    
    56   27  150 1    
    57   28  151 1    
    58   28  152 1    
    59   28  153 1    
    60   29   30 am   BACKBONE|DICT|INTERRES
    61   29  154 1    
    62   30   31 2    
    63   30   32 1    
    64   32   33 1    
    65   32   34 1    
    66   32  155 1    
    67   33  156 1    
    68   33  157 1    
    69   33  158 1    
    70   34   35 am   BACKBONE|DICT|INTERRES
    71   34  159 1    
    72   35   36 2    
    73   35   37 1    
    74   37   38 1    
    75   37   39 1    
    76   37  160 1    
    77   38  161 1    
    78   38  162 1    
    79   38  163 1    
    80   39   40 am   BACKBONE|DICT|INTERRES
    81   39  164 1    
    82   40   41 2    
    83   40   42 1    
    84   42   43 1    
    85   42   44 1    
    86   42  165 1    
    87   43  166 1    
    88   43  167 1    
    89   43  168 1    
    90   44   45 am   BACKBONE|DICT|INTERRES
    91   44  169 1    
    92   45   46 2    
    93   45   47 1    
    94   47   48 1    
    95   47   49 1    
    96   47  170 1    
    97   48  171 1    
    98   48  172 1    
    99   48  173 1    
   100   49   50 am   BACKBONE|DICT|INTERRES
   101   49  174 1    
   102   50   51 2    
   103   50   52 1    
   104   52   53 1    
   105   52   54 1    
   106   52  175 1    
   107   53  176 1    
   108   53  177 1    
   109   53  178 1    
   110   54   55 am   BACKBONE|DICT|INTERRES
   111   54  179 1    
   112   55   56 2    
   113   55   57 1    
   114   57   58 1    
   115   57   59 1    
   116   57  180 1    
   117   58  181 1    
   118   58  182 1    
   119   58  183 1    
   120   59   60 am   BACKBONE|DICT|INTERRES
   121   59  184 1    
   122   60   61 2    
   123   60   62 1    
   124   62   63 1    
   125   62   64 1    
   126   62  185 1    
   127   63  186 1    
   128   63  187 1    
   129   63  188 1    
   130   64   65 am   BACKBONE|DICT|INTERRES
   131   64  189 1    
   132   65   66 2    
   133   67   68 2    
   134   67   69 am   BACKBONE|DICT|INTERRES
   135   69   70 1    
   136   69  190 1    
   137   70   71 1    
   138   70   72 1    
   139   70  191 1    
   140   71  192 1    
   141   71  193 1    
   142   71  194 1    
   143   72   73 2    
   144   72   74 am   BACKBONE|DICT|INTERRES
   145   74   75 1    
   146   74  195 1    
   147   75   76 1    
   148   75   77 1    
   149   75  196 1    
   150   76  197 1    
   151   76  198 1    
   152   76  199 1    
   153   77   78 2    
   154   77   79 am   BACKBONE|DICT|INTERRES
   155   79   80 1    
   156   79  200 1    
   157   80   81 1    
   158   80   82 1    
   159   80  201 1    
   160   81  202 1    
   161   81  203 1    
   162   81  204 1    
   163   82   83 2    
   164   82   84 am   BACKBONE|DICT|INTERRES
   165   84   85 1    
   166   84  205 1    
   167   85   86 1    
   168   85   87 1    
   169   85  206 1    
   170   86  207 1    
   171   86  208 1    
   172   86  209 1    
   173   87   88 2    
   174   87   89 am   BACKBONE|DICT|INTERRES
   175   89   90 1    
   176   89  210 1    
   177   90   91 1    
   178   90   92 1    
   179   90  211 1    
   180   91  212 1    
   181   91  213 1    
   182   91  214 1    
   183   92   93 2    
   184   92   94 am   BACKBONE|DICT|INTERRES
   185   94   95 1    
   186   94  215 1    
   187   95   96 1    
   188   95   97 1    
   189   95  216 1    
   190   96  217 1    
   191   96  218 1    
   192   96  219 1    
   193   97   98 2    
   194   97   99 am   BACKBONE|DICT|INTERRES
   195   99  100 1    
   196   99  220 1    
   197  100  101 1    
   198  100  102 1    
   199  100  221 1    
   200  101  222 1    
   201  101  223 1    
   202  101  224 1    
   203  102  103 2    
   204  102  104 am   BACKBONE|DICT|INTERRES
   205  104  105 1    
   206  104  225 1    
   207  105  106 1    
   208  105  107 1    
   209  105  226 1    
   210  106  227 1    
   211  106  228 1    
   212  106  229 1    
   213  107  108 2    
   214  107  109 am   BACKBONE|DICT|INTERRES
   215  109  110 1    
   216  109  230 1    
   217  110  111 1    
   218  110  112 1    
   219  110  231 1    
   220  111  232 1    
   221  111  233 1    
   222  111  234 1    
   223  112  113 2    
   224  112  114 am   BACKBONE|DICT|INTERRES
   225  114  115 1    
   226  114  235 1    
   227  115  116 1    
   228  115  117 1    
   229  115  236 1    
   230  116  237 1    
   231  116  238 1    
   232  116  239 1    
   233  117  118 2    
   234  117  119 am   BACKBONE|DICT|INTERRES
   235  119  120 1    
   236  119  240 1    
   237  120  121 1    
   238  120  124 1    
   239  120  241 1    
   240  121  122 am   BACKBONE|DICT|INTERRES
   241  121  123 2    
   242  122  242 1    
   243  122  243 1    
   244  124  125 1    
   245  124  244 1    
   246  124  245 1    
   247  125  126 1    
   248  126  246 1    
   249  126  247 1    
@<TRIPOS>SUBSTRUCTURE
     1 UNK         1 GROUP             0       ****    0 ROOT    
