@<TRIPOS>MOLECULE
3R540
247   249    1
SMALL
USER_CHARGES


@<TRIPOS>ATOM
      1 CA          5.8635  -12.3987  -49.3709 C.3       0 UNK        -0.1800 
      2 C           4.9539  -12.9949  -48.3068 C.2       0 UNK         0.5000 
      3 O           4.8448  -12.4417  -47.2137 O.2       0 UNK        -0.5000 
      4 N           4.2853  -14.1104  -48.6274 N.am      1 UNK        -0.5000 
      5 CA          3.3685  -14.8472  -47.7437 C.3       1 UNK         0.1400 
      6 C6          2.9586  -16.2112  -48.3596 C.3       23 UNK        -0.0398 
      7 S7          2.1267  -16.0556  -49.9848 S.3       23 UNK        -0.2404 
      8 C8          3.1111  -17.1467  -51.0601 C.3       23 UNK        -0.0205 
      9 C9          2.5104  -18.5420  -51.1303 C.ar      23 UNK        -0.0193 
     10 C10         1.3813  -18.7697  -51.9215 C.ar      23 UNK        -0.1150 
     11 C11         0.8092  -20.0419  -51.9968 C.ar      23 UNK        -0.0193 
     12 C12         1.3803  -21.0954  -51.2793 C.ar      23 UNK        -0.1150 
     13 C13         2.5206  -20.8875  -50.4972 C.ar      23 UNK        -0.0193 
     14 C14         3.0825  -19.6064  -50.4280 C.ar      23 UNK        -0.1150 
     15 C15         3.1467  -22.0647  -49.7580 C.3       23 UNK        -0.0205 
     16 S16         3.5515  -21.7192  -48.0143 S.3       23 UNK        -0.2404 
     17 C17         1.9549  -21.1606  -47.3332 C.3       23 UNK        -0.0398 
     18 CA          1.1286  -22.3075  -46.7009 C.3       11 UNK         0.1400 
     19 N           0.3720  -21.8625  -45.5286 N.am      11 UNK        -0.5000 
     20 C          -0.2882  -22.6729  -44.6897 C.2       10 UNK         0.5000 
     21 O          -0.2891  -23.9009  -44.7844 O.2       10 UNK        -0.5000 
     22 CA         -1.1239  -21.9933  -43.5890 C.3       10 UNK         0.1400 
     23 CB         -0.2370  -21.5658  -42.4103 C.3       10 UNK        -0.1800 
     24 N          -1.8711  -20.8375  -44.0891 N.am      10 UNK        -0.5000 
     25 C          -2.8610  -20.9135  -44.9901 C.2       9 UNK         0.5000 
     26 O          -3.2870  -21.9760  -45.4436 O.2       9 UNK        -0.5000 
     27 CA         -3.4401  -19.5826  -45.5084 C.3       9 UNK         0.1400 
     28 CB         -4.4718  -19.0068  -44.5282 C.3       9 UNK        -0.1800 
     29 N          -2.4086  -18.5817  -45.7854 N.am      9 UNK        -0.5000 
     30 C          -1.4610  -18.7214  -46.7224 C.2       8 UNK         0.5000 
     31 O          -1.3778  -19.6896  -47.4724 O.2       8 UNK        -0.5000 
     32 CA         -0.3905  -17.6257  -46.8095 C.3       8 UNK         0.1400 
     33 CB         -0.9056  -16.4408  -47.6410 C.3       8 UNK        -0.1800 
     34 N           0.0723  -17.1837  -45.4907 N.am      8 UNK        -0.5000 
     35 C           0.6913  -17.9797  -44.6042 C.2       7 UNK         0.5000 
     36 O           0.9818  -19.1523  -44.8303 O.2       7 UNK        -0.5000 
     37 CA          0.9836  -17.3970  -43.2114 C.3       7 UNK         0.1400 
     38 CB          2.2177  -16.4837  -43.2482 C.3       7 UNK        -0.1800 
     39 N          -0.1606  -16.6665  -42.6708 N.am      7 UNK        -0.5000 
     40 C          -1.3429  -17.2201  -42.3558 C.2       6 UNK         0.5000 
     41 O          -1.5612  -18.4306  -42.4007 O.2       6 UNK        -0.5000 
     42 CA         -2.4941  -16.2562  -41.9916 C.3       6 UNK         0.1400 
     43 CB         -2.5202  -15.9937  -40.4790 C.3       6 UNK        -0.1800 
     44 N          -2.4018  -14.9780  -42.7011 N.am      6 UNK        -0.5000 
     45 C          -2.3958  -14.8557  -44.0348 C.2       5 UNK         0.5000 
     46 O          -2.7009  -15.7805  -44.7881 O.2       5 UNK        -0.5000 
     47 CA         -1.9062  -13.5226  -44.6428 C.3       5 UNK         0.1400 
     48 CB         -3.0449  -12.8252  -45.4022 C.3       5 UNK        -0.1800 
     49 N          -1.2888  -12.5543  -43.7242 N.am      5 UNK        -0.5000 
     50 C          -0.2386  -12.7487  -42.9119 C.2       4 UNK         0.5000 
     51 O           0.2904  -13.8432  -42.7188 O.2       4 UNK        -0.5000 
     52 CA          0.3180  -11.4810  -42.2354 C.3       4 UNK         0.1400 
     53 CB          1.1707  -11.7776  -40.9831 C.3       4 UNK        -0.1800 
     54 N           1.0435  -10.6731  -43.2210 N.am      4 UNK        -0.5000 
     55 C           2.1661  -11.0087  -43.8744 C.2       3 UNK         0.5000 
     56 O           2.8850  -11.9686  -43.5922 O.2       3 UNK        -0.5000 
     57 CA          2.4974  -10.1595  -45.1138 C.3       3 UNK         0.1400 
     58 CB          3.9875   -9.7857  -45.1777 C.3       3 UNK        -0.1800 
     59 N           2.1294  -10.9144  -46.3104 N.am      3 UNK        -0.5000 
     60 C           0.8652  -11.1296  -46.7067 C.2       2 UNK         0.5000 
     61 O          -0.1085  -10.5835  -46.1861 O.2       2 UNK        -0.5000 
     62 CA          0.6319  -12.1169  -47.8674 C.3       2 UNK         0.1400 
     63 CB          0.3189  -11.3596  -49.1664 C.3       2 UNK        -0.1800 
     64 N           1.7557  -13.0208  -48.1093 N.am      2 UNK        -0.5000 
     65 C           2.1292  -14.0280  -47.3067 C.2       1 UNK         0.5000 
     66 O           1.5405  -14.3221  -46.2664 O.2       1 UNK        -0.5000 
     67 C           0.2146  -22.9887  -47.7392 C.2       11 UNK         0.5000 
     68 O           0.5638  -24.0539  -48.2448 O.2       11 UNK        -0.5000 
     69 N          -0.9613  -22.3970  -47.9940 N.am      12 UNK        -0.5000 
     70 CA         -2.0041  -22.9369  -48.8634 C.3       12 UNK         0.1400 
     71 CB         -3.1676  -21.9430  -48.9689 C.3       12 UNK        -0.1800 
     72 C          -2.5191  -24.3003  -48.3829 C.2       12 UNK         0.5000 
     73 O          -2.6201  -25.2211  -49.1904 O.2       12 UNK        -0.5000 
     74 N          -2.7860  -24.4211  -47.0748 N.am      13 UNK        -0.5000 
     75 CA         -3.2045  -25.6658  -46.4297 C.3       13 UNK         0.1400 
     76 CB         -3.5680  -25.3899  -44.9631 C.3       13 UNK        -0.1800 
     77 C          -2.1490  -26.7832  -46.5378 C.2       13 UNK         0.5000 
     78 O          -2.5120  -27.9333  -46.7857 O.2       13 UNK        -0.5000 
     79 N          -0.8663  -26.4223  -46.3900 N.am      14 UNK        -0.5000 
     80 CA          0.2725  -27.3253  -46.5648 C.3       14 UNK         0.1400 
     81 CB          1.5407  -26.6627  -46.0048 C.3       14 UNK        -0.1800 
     82 C           0.4760  -27.7527  -48.0322 C.2       14 UNK         0.5000 
     83 O           0.7483  -28.9254  -48.2917 O.2       14 UNK        -0.5000 
     84 N           0.3291  -26.8006  -48.9631 N.am      15 UNK        -0.5000 
     85 CA          0.4642  -27.0035  -50.4080 C.3       15 UNK         0.1400 
     86 CB          0.6718  -25.6352  -51.0790 C.3       15 UNK        -0.1800 
     87 C          -0.7324  -27.7300  -51.0551 C.2       15 UNK         0.5000 
     88 O          -0.5970  -28.2164  -52.1785 O.2       15 UNK        -0.5000 
     89 N          -1.8760  -27.7610  -50.3556 N.am      16 UNK        -0.5000 
     90 CA         -3.1996  -28.1914  -50.8196 C.3       16 UNK         0.1400 
     91 CB         -3.2133  -29.6889  -51.1920 C.3       16 UNK        -0.1800 
     92 C          -3.7439  -27.2689  -51.9332 C.2       16 UNK         0.5000 
     93 O          -4.3166  -27.7414  -52.9172 O.2       16 UNK        -0.5000 
     94 N          -3.5414  -25.9609  -51.7449 N.am      17 UNK        -0.5000 
     95 CA         -4.0054  -24.8758  -52.6032 C.3       17 UNK         0.1400 
     96 CB         -2.8096  -23.9551  -52.8999 C.3       17 UNK        -0.1800 
     97 C          -5.1296  -24.0957  -51.8986 C.2       17 UNK         0.5000 
     98 O          -5.3714  -24.2894  -50.7042 O.2       17 UNK        -0.5000 
     99 N          -5.8021  -23.2167  -52.6500 N.am      18 UNK        -0.5000 
    100 CA        -6.8364  -22.3254  -52.1312 C.3       18 UNK         0.1400 
    101 CB        -7.7281  -21.8524  -53.2903 C.3       18 UNK        -0.1800 
    102 C         -6.2022  -21.1246  -51.4104 C.2       18 UNK         0.5000 
    103 O         -5.4439  -20.3750  -52.0287 O.2       18 UNK        -0.5000 
    104 N         -6.5627  -20.9231  -50.1366 N.am      19 UNK        -0.5000 
    105 CA        -6.0923  -19.8108  -49.3017 C.3       19 UNK         0.1400 
    106 CB        -6.5747  -20.0251  -47.8588 C.3       19 UNK        -0.1800 
    107 C         -6.5113  -18.4191  -49.8167 C.2       19 UNK         0.5000 
    108 O         -5.8404  -17.4356  -49.5096 O.2       19 UNK        -0.5000 
    109 N         -7.5949  -18.3662  -50.6033 N.am      20 UNK        -0.5000 
    110 CA        -8.0625  -17.1680  -51.2986 C.3       20 UNK         0.1400 
    111 CB        -9.5326  -17.3703  -51.6975 C.3       20 UNK        -0.1800 
    112 C         -7.2140  -16.8166  -52.5382 C.2       20 UNK         0.5000 
    113 O         -7.1962  -15.6511  -52.9362 O.2       20 UNK        -0.5000 
    114 N         -6.5462  -17.8145  -53.1369 N.am      21 UNK        -0.5000 
    115 CA        -5.6653  -17.6347  -54.2917 C.3       21 UNK         0.1400 
    116 CB        -5.6550  -18.9157  -55.1412 C.3       21 UNK        -0.1800 
    117 C         -4.2409  -17.2587  -53.8530 C.2       21 UNK         0.5000 
    118 O         -3.6160  -16.4077  -54.4879 O.2       21 UNK        -0.5000 
    119 N         -3.7589  -17.8948  -52.7783 N.am      22 UNK        -0.5000 
    120 CA        -2.4653  -17.6068  -52.1416 C.3       22 UNK         0.1400 
    121 C         -2.4059  -16.2060  -51.4647 C.2       22 UNK         0.5000 
    122 N         -1.2139  -15.6633  -51.2550 N.am      22 UNK        -0.7600 
    123 O         -3.4184  -15.6109  -51.1048 O.2       22 UNK        -0.5000 
    124 C124       -2.0621  -18.7221  -51.1445 C.3       23 UNK        -0.0398 
    125 S125       -1.9559  -20.3755  -51.9175 S.3       23 UNK        -0.2404 
    126 C126       -0.4101  -20.2822  -52.8736 C.3       23 UNK        -0.0205 
    127 H127        5.5460  -11.3837  -49.6095 H         1 UNK         0.0600 
    128 H128        5.8508  -12.9846  -50.2903 H         1 UNK         0.0600 
    129 H129        6.8900  -12.3592  -49.0066 H         1 UNK         0.0600 
    130 H130        4.3983  -14.5036  -49.5510 H         1 UNK         0.3000 
    131 H131        3.9227  -15.0605  -46.8271 H         1 UNK         0.0600 
    132 H132        3.8435  -16.8400  -48.4615 H         1 UNK         0.0800 
    133 H133        2.3038  -16.7528  -47.6779 H         1 UNK         0.0800 
    134 H134        3.1303  -16.7184  -52.0633 H         1 UNK         0.0800 
    135 H135        4.1505  -17.1807  -50.7308 H         1 UNK         0.0800 
    136 H136        0.9472  -17.9521  -52.4788 H         1 UNK         0.1150 
    137 H137        0.9383  -22.0804  -51.3404 H         1 UNK         0.1150 
    138 H138        3.9652  -19.4392  -49.8271 H         1 UNK         0.1150 
    139 H139        2.4925  -22.9363  -49.7960 H         1 UNK         0.0800 
    140 H140        4.0623  -22.3505  -50.2768 H         1 UNK         0.0800 
    141 H141        1.3805  -20.5932  -48.0676 H         1 UNK         0.0800 
    142 H142        2.2284  -20.4361  -46.5684 H         1 UNK         0.0800 
    143 H143        1.8212  -23.0686  -46.3347 H         1 UNK         0.0600 
    144 H144        0.3653  -20.8621  -45.3464 H         1 UNK         0.3000 
    145 H145       -1.8456  -22.7257  -43.2212 H         1 UNK         0.0600 
    146 H146        0.3148  -22.4163  -42.0082 H         1 UNK         0.0600 
    147 H147        0.4917  -20.8105  -42.7054 H         1 UNK         0.0600 
    148 H148       -0.8351  -21.1518  -41.5984 H         1 UNK         0.0600 
    149 H149       -1.6085  -19.9286  -43.7205 H         1 UNK         0.3000 
    150 H150       -3.9495  -19.7934  -46.4503 H         1 UNK         0.0600 
    151 H151       -5.2863  -19.7130  -44.3627 H         1 UNK         0.0600 
    152 H152       -4.9111  -18.0863  -44.9134 H         1 UNK         0.0600 
    153 H153       -4.0272  -18.7858  -43.5581 H         1 UNK         0.0600 
    154 H154       -2.4318  -17.7241  -45.2426 H         1 UNK         0.3000 
    155 H155        0.4624  -18.0594  -47.3343 H         1 UNK         0.0600 
    156 H156       -1.7388  -15.9292  -47.1619 H         1 UNK         0.0600 
    157 H157       -0.1242  -15.7081  -47.8247 H         1 UNK         0.0600 
    158 H158       -1.2551  -16.7812  -48.6157 H         1 UNK         0.0600 
    159 H159       -0.1289  -16.2292  -45.2317 H         1 UNK         0.3000 
    160 H160        1.1976  -18.2298  -42.5382 H         1 UNK         0.0600 
    161 H161        2.0620  -15.6190  -43.8944 H         1 UNK         0.0600 
    162 H162        3.0903  -17.0204  -43.6223 H         1 UNK         0.0600 
    163 H163        2.4634  -16.1134  -42.2528 H         1 UNK         0.0600 
    164 H164       -0.0607  -15.6542  -42.6212 H         1 UNK         0.3000 
    165 H165       -3.4337  -16.7332  -42.2765 H         1 UNK         0.0600 
    166 H166       -3.3698  -15.3696  -40.2013 H         1 UNK         0.0600 
    167 H167       -2.6081  -16.9280  -39.9229 H         1 UNK         0.0600 
    168 H168       -1.6108  -15.4944  -40.1417 H         1 UNK         0.0600 
    169 H169       -2.1225  -14.1772  -42.1547 H         1 UNK         0.3000 
    170 H170       -1.1371  -13.7900  -45.3700 H         1 UNK         0.0600 
    171 H171       -3.5012  -13.4957  -46.1320 H         1 UNK         0.0600 
    172 H172       -3.8319  -12.4913  -44.7251 H         1 UNK         0.0600 
    173 H173       -2.6798  -11.9562  -45.9503 H         1 UNK         0.0600 
    174 H174       -1.6337  -11.6095  -43.8152 H         1 UNK         0.3000 
    175 H175       -0.5361  -10.8852  -41.9097 H         1 UNK         0.0600 
    176 H176        2.0202  -12.4252  -41.1998 H         1 UNK         0.0600 
    177 H177        1.5546  -10.8581  -40.5417 H         1 UNK         0.0600 
    178 H178        0.5722  -12.2793  -40.2221 H         1 UNK         0.0600 
    179 H179        0.5274   -9.8803  -43.5778 H         1 UNK         0.3000 
    180 H180        1.9206   -9.2325  -45.0852 H         1 UNK         0.0600 
    181 H181        4.6285  -10.6674  -45.1991 H         1 UNK         0.0600 
    182 H182        4.2755   -9.1936  -44.3084 H         1 UNK         0.0600 
    183 H183        4.2073   -9.1918  -46.0650 H         1 UNK         0.0600 
    184 H184        2.8738  -11.4421  -46.7498 H         1 UNK         0.3000 
    185 H185       -0.2390  -12.7226  -47.6078 H         1 UNK         0.0600 
    186 H186       -0.5396  -10.6991  -49.0369 H         1 UNK         0.0600 
    187 H187        1.1611  -10.7447  -49.4862 H         1 UNK         0.0600 
    188 H188        0.0777  -12.0481  -49.9766 H         1 UNK         0.0600 
    189 H189        2.2943  -12.8611  -48.9479 H         1 UNK         0.3000 
    190 H190       -1.1497  -21.4823  -47.5885 H         1 UNK         0.3000 
    191 H191       -1.5644  -23.0623  -49.8538 H         1 UNK         0.0600 
    192 H192       -3.7195  -21.8536  -48.0343 H         1 UNK         0.0600 
    193 H193       -3.8733  -22.2564  -49.7369 H         1 UNK         0.0600 
    194 H194       -2.8174  -20.9500  -49.2394 H         1 UNK         0.0600 
    195 H195       -2.7144  -23.5991  -46.4828 H         1 UNK         0.3000 
    196 H196       -4.1046  -26.0127  -46.9415 H         1 UNK         0.0600 
    197 H197       -3.9169  -26.2980  -44.4700 H         1 UNK         0.0600 
    198 H198       -4.3658  -24.6508  -44.8877 H         1 UNK         0.0600 
    199 H199       -2.7137  -25.0169  -44.3982 H         1 UNK         0.0600 
    200 H200       -0.6561  -25.4601  -46.1470 H         1 UNK         0.3000 
    201 H201        0.0794  -28.2274  -45.9805 H         1 UNK         0.0600 
    202 H202        1.4220  -26.4144  -44.9499 H         1 UNK         0.0600 
    203 H203        1.7870  -25.7438  -46.5370 H         1 UNK         0.0600 
    204 H204        2.3991  -27.3303  -46.0884 H         1 UNK         0.0600 
    205 H205        0.1745  -25.8424  -48.6574 H         1 UNK         0.3000 
    206 H206        1.3532  -27.6109  -50.5888 H         1 UNK         0.0600 
    207 H207        1.5601  -25.1368  -50.6912 H         1 UNK         0.0600 
    208 H208        0.8032  -25.7399  -52.1567 H         1 UNK         0.0600 
    209 H209       -0.1813  -24.9754  -50.9152 H         1 UNK         0.0600 
    210 H210       -1.8771  -27.2597  -49.4757 H         1 UNK         0.3000 
    211 H211       -3.8691  -28.0620  -49.9680 H         1 UNK         0.0600 
    212 H212       -2.6278  -29.8938  -52.0884 H         1 UNK         0.0600 
    213 H213       -4.2307  -30.0308  -51.3846 H         1 UNK         0.0600 
    214 H214       -2.8137  -30.2994  -50.3822 H         1 UNK         0.0600 
    215 H215       -3.1515  -25.6688  -50.8496 H         1 UNK         0.3000 
    216 H216       -4.3948  -25.2692  -53.5442 H         1 UNK         0.0600 
    217 H217       -1.9995  -24.5042  -53.3803 H         1 UNK         0.0600 
    218 H218       -2.4125  -23.5071  -51.9894 H         1 UNK         0.0600 
    219 H219       -3.0901  -23.1402  -53.5683 H         1 UNK         0.0600 
    220 H220       -5.5264  -23.0727  -53.6103 H         1 UNK         0.3000 
    221 H221       -7.4646  -22.8769  -51.4282 H         1 UNK         0.0600 
    222 H222       -7.1553  -21.3268  -54.0546 H         1 UNK         0.0600 
    223 H223       -8.2283  -22.6942  -53.7693 H         1 UNK         0.0600 
    224 H224       -8.5043  -21.1728  -52.9362 H         1 UNK         0.0600 
    225 H225       -7.1877  -21.5820  -49.6946 H         1 UNK         0.3000 
    226 H226       -5.0015  -19.8284  -49.3027 H         1 UNK         0.0600 
    227 H227       -6.1733  -20.9491  -47.4416 H         1 UNK         0.0600 
    228 H228       -6.2503  -19.2093  -47.2115 H         1 UNK         0.0600 
    229 H229       -7.6627  -20.0737  -47.8020 H         1 UNK         0.0600 
    230 H230       -8.1005  -19.2212  -50.7800 H         1 UNK         0.3000 
    231 H231       -8.0092  -16.3218  -50.6102 H         1 UNK         0.0600 
    232 H232       -9.9277  -16.4838  -52.1954 H         1 UNK         0.0600 
    233 H233      -10.1570  -17.5554  -50.8232 H         1 UNK         0.0600 
    234 H234       -9.6525  -18.2116  -52.3814 H         1 UNK         0.0600 
    235 H235       -6.5487  -18.7346  -52.7157 H         1 UNK         0.3000 
    236 H236       -6.0500  -16.8266  -54.9177 H         1 UNK         0.0600 
    237 H237       -6.6617  -19.1859  -55.4599 H         1 UNK         0.0600 
    238 H238       -5.0551  -18.7773  -56.0414 H         1 UNK         0.0600 
    239 H239       -5.2341  -19.7622  -54.5983 H         1 UNK         0.0600 
    240 H240       -4.3197  -18.6207  -52.3480 H         1 UNK         0.3000 
    241 H241       -1.7229  -17.5883  -52.9408 H         1 UNK         0.0600 
    242 H242       -0.3569  -16.1205  -51.5208 H         1 UNK         0.3800 
    243 H243       -1.1704  -14.7589  -50.8142 H         1 UNK         0.3800 
    244 H244       -1.1107  -18.4990  -50.6603 H         1 UNK         0.0800 
    245 H245       -2.7942  -18.7767  -50.3372 H         1 UNK         0.0800 
    246 H246       -0.2826  -21.2201  -53.4158 H         1 UNK         0.0800 
    247 H247       -0.4980  -19.5069  -53.6355 H         1 UNK         0.0800 
@<TRIPOS>BOND
     1    1    2 1    
     2    1  127 1    
     3    1  128 1    
     4    1  129 1    
     5    2    3 2    
     6    2    4 am   BACKBONE|DICT|INTERRES
     7    4    5 1    
     8    4  130 1    
     9    5    6 1    
    10    5   65 1    
    11    5  131 1    
    12    6    7 1    
    13    6  132 1    
    14    6  133 1    
    15    7    8 1    
    16    8    9 1    
    17    8  134 1    
    18    8  135 1    
    19    9   10 ar   
    20    9   14 ar   
    21   10   11 ar   
    22   10  136 1    
    23   11   12 ar   
    24   11  126 1    
    25   12   13 ar   
    26   12  137 1    
    27   13   14 ar   
    28   13   15 1    
    29   14  138 1    
    30   15   16 1    
    31   15  139 1    
    32   15  140 1    
    33   16   17 1    
    34   17   18 1    
    35   17  141 1    
    36   17  142 1    
    37   18   19 1    
    38   18   67 1    
    39   18  143 1    
    40   19   20 am   BACKBONE|DICT|INTERRES
    41   19  144 1    
    42   20   21 2    
    43   20   22 1    
    44   22   23 1    
    45   22   24 1    
    46   22  145 1    
    47   23  146 1    
    48   23  147 1    
    49   23  148 1    
    50   24   25 am   BACKBONE|DICT|INTERRES
    51   24  149 1    
    52   25   26 2    
    53   25   27 1    
    54   27   28 1    
    55   27   29 1    
    56   27  150 1    
    57   28  151 1    
    58   28  152 1    
    59   28  153 1    
    60   29   30 am   BACKBONE|DICT|INTERRES
    61   29  154 1    
    62   30   31 2    
    63   30   32 1    
    64   32   33 1    
    65   32   34 1    
    66   32  155 1    
    67   33  156 1    
    68   33  157 1    
    69   33  158 1    
    70   34   35 am   BACKBONE|DICT|INTERRES
    71   34  159 1    
    72   35   36 2    
    73   35   37 1    
    74   37   38 1    
    75   37   39 1    
    76   37  160 1    
    77   38  161 1    
    78   38  162 1    
    79   38  163 1    
    80   39   40 am   BACKBONE|DICT|INTERRES
    81   39  164 1    
    82   40   41 2    
    83   40   42 1    
    84   42   43 1    
    85   42   44 1    
    86   42  165 1    
    87   43  166 1    
    88   43  167 1    
    89   43  168 1    
    90   44   45 am   BACKBONE|DICT|INTERRES
    91   44  169 1    
    92   45   46 2    
    93   45   47 1    
    94   47   48 1    
    95   47   49 1    
    96   47  170 1    
    97   48  171 1    
    98   48  172 1    
    99   48  173 1    
   100   49   50 am   BACKBONE|DICT|INTERRES
   101   49  174 1    
   102   50   51 2    
   103   50   52 1    
   104   52   53 1    
   105   52   54 1    
   106   52  175 1    
   107   53  176 1    
   108   53  177 1    
   109   53  178 1    
   110   54   55 am   BACKBONE|DICT|INTERRES
   111   54  179 1    
   112   55   56 2    
   113   55   57 1    
   114   57   58 1    
   115   57   59 1    
   116   57  180 1    
   117   58  181 1    
   118   58  182 1    
   119   58  183 1    
   120   59   60 am   BACKBONE|DICT|INTERRES
   121   59  184 1    
   122   60   61 2    
   123   60   62 1    
   124   62   63 1    
   125   62   64 1    
   126   62  185 1    
   127   63  186 1    
   128   63  187 1    
   129   63  188 1    
   130   64   65 am   BACKBONE|DICT|INTERRES
   131   64  189 1    
   132   65   66 2    
   133   67   68 2    
   134   67   69 am   BACKBONE|DICT|INTERRES
   135   69   70 1    
   136   69  190 1    
   137   70   71 1    
   138   70   72 1    
   139   70  191 1    
   140   71  192 1    
   141   71  193 1    
   142   71  194 1    
   143   72   73 2    
   144   72   74 am   BACKBONE|DICT|INTERRES
   145   74   75 1    
   146   74  195 1    
   147   75   76 1    
   148   75   77 1    
   149   75  196 1    
   150   76  197 1    
   151   76  198 1    
   152   76  199 1    
   153   77   78 2    
   154   77   79 am   BACKBONE|DICT|INTERRES
   155   79   80 1    
   156   79  200 1    
   157   80   81 1    
   158   80   82 1    
   159   80  201 1    
   160   81  202 1    
   161   81  203 1    
   162   81  204 1    
   163   82   83 2    
   164   82   84 am   BACKBONE|DICT|INTERRES
   165   84   85 1    
   166   84  205 1    
   167   85   86 1    
   168   85   87 1    
   169   85  206 1    
   170   86  207 1    
   171   86  208 1    
   172   86  209 1    
   173   87   88 2    
   174   87   89 am   BACKBONE|DICT|INTERRES
   175   89   90 1    
   176   89  210 1    
   177   90   91 1    
   178   90   92 1    
   179   90  211 1    
   180   91  212 1    
   181   91  213 1    
   182   91  214 1    
   183   92   93 2    
   184   92   94 am   BACKBONE|DICT|INTERRES
   185   94   95 1    
   186   94  215 1    
   187   95   96 1    
   188   95   97 1    
   189   95  216 1    
   190   96  217 1    
   191   96  218 1    
   192   96  219 1    
   193   97   98 2    
   194   97   99 am   BACKBONE|DICT|INTERRES
   195   99  100 1    
   196   99  220 1    
   197  100  101 1    
   198  100  102 1    
   199  100  221 1    
   200  101  222 1    
   201  101  223 1    
   202  101  224 1    
   203  102  103 2    
   204  102  104 am   BACKBONE|DICT|INTERRES
   205  104  105 1    
   206  104  225 1    
   207  105  106 1    
   208  105  107 1    
   209  105  226 1    
   210  106  227 1    
   211  106  228 1    
   212  106  229 1    
   213  107  108 2    
   214  107  109 am   BACKBONE|DICT|INTERRES
   215  109  110 1    
   216  109  230 1    
   217  110  111 1    
   218  110  112 1    
   219  110  231 1    
   220  111  232 1    
   221  111  233 1    
   222  111  234 1    
   223  112  113 2    
   224  112  114 am   BACKBONE|DICT|INTERRES
   225  114  115 1    
   226  114  235 1    
   227  115  116 1    
   228  115  117 1    
   229  115  236 1    
   230  116  237 1    
   231  116  238 1    
   232  116  239 1    
   233  117  118 2    
   234  117  119 am   BACKBONE|DICT|INTERRES
   235  119  120 1    
   236  119  240 1    
   237  120  121 1    
   238  120  124 1    
   239  120  241 1    
   240  121  122 am   BACKBONE|DICT|INTERRES
   241  121  123 2    
   242  122  242 1    
   243  122  243 1    
   244  124  125 1    
   245  124  244 1    
   246  124  245 1    
   247  125  126 1    
   248  126  246 1    
   249  126  247 1    
@<TRIPOS>SUBSTRUCTURE
     1 UNK         1 GROUP             0       ****    0 ROOT    
