@<TRIPOS>MOLECULE
3R540
247   249    1
SMALL
USER_CHARGES


@<TRIPOS>ATOM
      1 CA         -0.8571  -16.5081  -39.8399 C.3       0 UNK        -0.1800 
      2 C          -1.7625  -16.0998  -40.9933 C.2       0 UNK         0.5000 
      3 O          -2.9771  -16.0030  -40.8181 O.2       0 UNK        -0.5000 
      4 N          -1.1709  -15.8544  -42.1647 N.am      1 UNK        -0.5000 
      5 CA         -1.8371  -15.4252  -43.3916 C.3       1 UNK         0.1400 
      6 C6         -1.4556  -16.3159  -44.6007 C.3       23 UNK        -0.0398 
      7 S7         -1.9751  -18.0487  -44.3700 S.3       23 UNK        -0.2404 
      8 C8         -3.0033  -18.3526  -45.8467 C.3       23 UNK        -0.0205 
      9 C9         -2.2596  -18.5544  -47.1715 C.ar      23 UNK        -0.0193 
     10 C10        -2.9992  -18.9886  -48.2764 C.ar      23 UNK        -0.1150 
     11 C11        -2.4019  -19.1470  -49.5303 C.ar      23 UNK        -0.0193 
     12 C12        -1.0409  -18.8660  -49.6779 C.ar      23 UNK        -0.1150 
     13 C13        -0.2774  -18.4466  -48.5851 C.ar      23 UNK        -0.0193 
     14 C14        -0.8917  -18.2943  -47.3377 C.ar      23 UNK        -0.1150 
     15 C15         1.1973  -18.1048  -48.7711 C.3       23 UNK        -0.0205 
     16 S16         2.2912  -18.9750  -47.6042 S.3       23 UNK        -0.2404 
     17 C17         2.0970  -20.7074  -48.1307 C.3       23 UNK        -0.0398 
     18 CA          3.4048  -21.5241  -47.9875 C.3       11 UNK         0.1400 
     19 N           3.8772  -21.5548  -46.5987 N.am      11 UNK        -0.5000 
     20 C           5.0951  -21.9521  -46.2063 C.2       10 UNK         0.5000 
     21 O           5.9828  -22.3116  -46.9802 O.2       10 UNK        -0.5000 
     22 CA          5.3501  -21.9788  -44.6898 C.3       10 UNK         0.1400 
     23 CB          5.7776  -20.5929  -44.1801 C.3       10 UNK        -0.1800 
     24 N           4.1631  -22.4276  -43.9603 N.am      10 UNK        -0.5000 
     25 C           3.8097  -23.7129  -43.8140 C.2       9 UNK         0.5000 
     26 O           4.4842  -24.6567  -44.2261 O.2       9 UNK        -0.5000 
     27 CA          2.4717  -23.9994  -43.1040 C.3       9 UNK         0.1400 
     28 CB          2.6923  -24.1784  -41.5944 C.3       9 UNK        -0.1800 
     29 N           1.4667  -22.9581  -43.3193 N.am      9 UNK        -0.5000 
     30 C           0.8773  -22.6973  -44.4936 C.2       8 UNK         0.5000 
     31 O           1.0938  -23.3296  -45.5262 O.2       8 UNK        -0.5000 
     32 CA         -0.0729  -21.4884  -44.5375 C.3       8 UNK         0.1400 
     33 CB         -1.5143  -21.9222  -44.2330 C.3       8 UNK        -0.1800 
     34 N           0.3119  -20.3891  -43.6480 N.am      8 UNK        -0.5000 
     35 C           1.4705  -19.7233  -43.7233 C.2       7 UNK         0.5000 
     36 O           2.4103  -20.0610  -44.4474 O.2       7 UNK        -0.5000 
     37 CA          1.6183  -18.4867  -42.8328 C.3       7 UNK         0.1400 
     38 CB          2.3101  -18.8375  -41.5060 C.3       7 UNK        -0.1800 
     39 N           2.4101  -17.5092  -43.5688 N.am      7 UNK        -0.5000 
     40 C           2.3090  -16.1824  -43.4574 C.2       6 UNK         0.5000 
     41 O           1.5802  -15.6295  -42.6308 O.2       6 UNK        -0.5000 
     42 CA          3.1452  -15.3331  -44.4313 C.3       6 UNK         0.1400 
     43 CB          3.2883  -15.9724  -45.8276 C.3       6 UNK        -0.1800 
     44 N           2.5430  -14.0105  -44.5748 N.am      6 UNK        -0.5000 
     45 C           3.2108  -12.8754  -44.8131 C.2       5 UNK         0.5000 
     46 O           4.4401  -12.8029  -44.8710 O.2       5 UNK        -0.5000 
     47 CA          2.3398  -11.6248  -45.0578 C.3       5 UNK         0.1400 
     48 CB          3.1373  -10.4022  -45.5574 C.3       5 UNK        -0.1800 
     49 N           1.2134  -11.9244  -45.9465 N.am      5 UNK        -0.5000 
     50 C           1.2556  -12.3515  -47.2184 C.2       4 UNK         0.5000 
     51 O           2.2825  -12.4129  -47.8949 O.2       4 UNK        -0.5000 
     52 CA         -0.0765  -12.8237  -47.8335 C.3       4 UNK         0.1400 
     53 CB         -0.1134  -14.3602  -47.8924 C.3       4 UNK        -0.1800 
     54 N          -1.2361  -12.3559  -47.0714 N.am      4 UNK        -0.5000 
     55 C          -1.8874  -11.2073  -47.3006 C.2       3 UNK         0.5000 
     56 O          -1.6176  -10.4394  -48.2247 O.2       3 UNK        -0.5000 
     57 CA         -3.0281  -10.8491  -46.3266 C.3       3 UNK         0.1400 
     58 CB         -4.3684  -11.3901  -46.8472 C.3       3 UNK        -0.1800 
     59 N          -2.8049  -11.3522  -44.9690 N.am      3 UNK        -0.5000 
     60 C          -1.8669  -10.8909  -44.1298 C.2       2 UNK         0.5000 
     61 O          -1.1131   -9.9548  -44.3946 O.2       2 UNK        -0.5000 
     62 CA         -1.7133  -11.6258  -42.7838 C.3       2 UNK         0.1400 
     63 CB         -2.5710  -10.9529  -41.7019 C.3       2 UNK        -0.1800 
     64 N          -2.0380  -13.0555  -42.8334 N.am      2 UNK        -0.5000 
     65 C          -1.4249  -13.9621  -43.6063 C.2       1 UNK         0.5000 
     66 O          -0.5404  -13.6812  -44.4178 O.2       1 UNK        -0.5000 
     67 C           3.1919  -22.9363  -48.5759 C.2       11 UNK         0.5000 
     68 O           3.2286  -23.0843  -49.7975 O.2       11 UNK        -0.5000 
     69 N           2.9298  -23.9239  -47.7040 N.am      12 UNK        -0.5000 
     70 CA          2.4061  -25.2626  -48.0051 C.3       12 UNK         0.1400 
     71 CB          3.4068  -26.0925  -48.8358 C.3       12 UNK        -0.1800 
     72 C           0.9977  -25.1750  -48.6337 C.2       12 UNK         0.5000 
     73 O           0.6901  -25.8761  -49.5995 O.2       12 UNK        -0.5000 
     74 N           0.1853  -24.2693  -48.0792 N.am      13 UNK        -0.5000 
     75 CA         -1.1450  -23.9097  -48.5495 C.3       13 UNK         0.1400 
     76 CB         -1.3322  -22.4008  -48.3262 C.3       13 UNK        -0.1800 
     77 C          -2.2335  -24.6804  -47.7898 C.2       13 UNK         0.5000 
     78 O          -2.0279  -25.0837  -46.6430 O.2       13 UNK        -0.5000 
     79 N          -3.4061  -24.7978  -48.4249 N.am      14 UNK        -0.5000 
     80 CA         -4.6364  -25.3124  -47.8138 C.3       14 UNK         0.1400 
     81 CB         -5.5235  -25.9063  -48.9192 C.3       14 UNK        -0.1800 
     82 C          -5.4062  -24.2304  -47.0246 C.2       14 UNK         0.5000 
     83 O          -6.4243  -24.5435  -46.4071 O.2       14 UNK        -0.5000 
     84 N          -4.9346  -22.9755  -47.0919 N.am      15 UNK        -0.5000 
     85 CA         -5.4311  -21.7466  -46.4578 C.3       15 UNK         0.1400 
     86 CB         -5.4754  -21.8737  -44.9238 C.3       15 UNK        -0.1800 
     87 C          -6.7691  -21.2287  -47.0198 C.2       15 UNK         0.5000 
     88 O          -6.9044  -20.0245  -47.2341 O.2       15 UNK        -0.5000 
     89 N          -7.7179  -22.1369  -47.2739 N.am      16 UNK        -0.5000 
     90 CA         -9.0089  -21.8570  -47.9079 C.3       16 UNK         0.1400 
     91 CB         -9.9847  -22.9887  -47.5496 C.3       16 UNK        -0.1800 
     92 C          -8.9058  -21.6991  -49.4396 C.2       16 UNK         0.5000 
     93 O          -9.8293  -21.1691  -50.0594 O.2       16 UNK        -0.5000 
     94 N          -7.7995  -22.1795  -50.0211 N.am      17 UNK        -0.5000 
     95 CA         -7.4720  -22.0914  -51.4425 C.3       17 UNK         0.1400 
     96 CB         -6.3158  -23.0643  -51.7239 C.3       17 UNK        -0.1800 
     97 C          -7.1088  -20.6597  -51.8871 C.2       17 UNK         0.5000 
     98 O          -6.7709  -19.8136  -51.0567 O.2       17 UNK        -0.5000 
     99 N          -7.1710  -20.4251  -53.2028 N.am      18 UNK        -0.5000 
    100 CA        -6.7248  -19.1915  -53.8504 C.3       18 UNK         0.1400 
    101 CB        -7.4342  -19.0710  -55.2087 C.3       18 UNK        -0.1800 
    102 C         -5.1994  -19.1941  -54.0537 C.2       18 UNK         0.5000 
    103 O         -4.5887  -20.2635  -54.1033 O.2       18 UNK        -0.5000 
    104 N         -4.6133  -18.0040  -54.2443 N.am      19 UNK        -0.5000 
    105 CA        -3.1801  -17.7985  -54.4968 C.3       19 UNK         0.1400 
    106 CB        -2.8991  -16.2951  -54.6326 C.3       19 UNK        -0.1800 
    107 C         -2.6394  -18.5636  -55.7205 C.2       19 UNK         0.5000 
    108 O         -1.5123  -19.0578  -55.6800 O.2       19 UNK        -0.5000 
    109 N         -3.4740  -18.6942  -56.7604 N.am      20 UNK        -0.5000 
    110 CA        -3.1878  -19.4670  -57.9702 C.3       20 UNK         0.1400 
    111 CB        -4.2582  -19.1499  -59.0257 C.3       20 UNK        -0.1800 
    112 C         -3.1060  -20.9883  -57.7274 C.2       20 UNK         0.5000 
    113 O         -2.4268  -21.6801  -58.4869 O.2       20 UNK        -0.5000 
    114 N         -3.7917  -21.4800  -56.6863 N.am      21 UNK        -0.5000 
    115 CA        -3.7612  -22.8774  -56.2611 C.3       21 UNK         0.1400 
    116 CB        -5.1364  -23.2715  -55.7020 C.3       21 UNK        -0.1800 
    117 C         -2.6420  -23.1273  -55.2352 C.2       21 UNK         0.5000 
    118 O         -1.9879  -24.1686  -55.3090 O.2       21 UNK        -0.5000 
    119 N         -2.4233  -22.1744  -54.3163 N.am      22 UNK        -0.5000 
    120 CA        -1.3095  -22.1978  -53.3517 C.3       22 UNK         0.1400 
    121 C          0.0892  -22.0804  -54.0215 C.2       22 UNK         0.5000 
    122 N          0.2605  -21.2355  -55.0314 N.am      22 UNK        -0.7600 
    123 O          1.0271  -22.7642  -53.6225 O.2       22 UNK        -0.5000 
    124 C124       -1.4465  -21.1240  -52.2436 C.3       23 UNK        -0.0398 
    125 S125       -2.9721  -21.2807  -51.2574 S.3       23 UNK        -0.2404 
    126 C126       -3.2480  -19.5574  -50.7297 C.3       23 UNK        -0.0205 
    127 H127        0.1917  -16.5308  -40.1383 H         1 UNK         0.0600 
    128 H128       -1.1300  -17.5007  -39.4819 H         1 UNK         0.0600 
    129 H129       -0.9602  -15.8046  -39.0138 H         1 UNK         0.0600 
    130 H130       -0.1530  -15.8601  -42.2228 H         1 UNK         0.3000 
    131 H131       -2.9231  -15.4543  -43.2807 H         1 UNK         0.0600 
    132 H132       -1.9039  -15.9247  -45.5155 H         1 UNK         0.0800 
    133 H133       -0.3773  -16.3092  -44.7639 H         1 UNK         0.0800 
    134 H134       -3.5951  -19.2439  -45.6417 H         1 UNK         0.0800 
    135 H135       -3.7163  -17.5348  -45.9592 H         1 UNK         0.0800 
    136 H136       -4.0578  -19.1788  -48.1662 H         1 UNK         0.1150 
    137 H137       -0.5782  -18.9558  -50.6493 H         1 UNK         0.1150 
    138 H138       -0.2883  -17.9584  -46.5089 H         1 UNK         0.1150 
    139 H139        1.5245  -18.3171  -49.7900 H         1 UNK         0.0800 
    140 H140        1.3256  -17.0324  -48.6273 H         1 UNK         0.0800 
    141 H141        1.2979  -21.1533  -47.5381 H         1 UNK         0.0800 
    142 H142        1.7540  -20.7188  -49.1671 H         1 UNK         0.0800 
    143 H143        4.1753  -21.0391  -48.5908 H         1 UNK         0.0600 
    144 H144        3.2389  -21.1923  -45.8977 H         1 UNK         0.3000 
    145 H145        6.1703  -22.6739  -44.4971 H         1 UNK         0.0600 
    146 H146        5.9662  -20.6085  -43.1066 H         1 UNK         0.0600 
    147 H147        5.0213  -19.8329  -44.3762 H         1 UNK         0.0600 
    148 H148        6.6978  -20.2685  -44.6674 H         1 UNK         0.0600 
    149 H149        3.5210  -21.7045  -43.6624 H         1 UNK         0.3000 
    150 H150        2.0790  -24.9360  -43.5058 H         1 UNK         0.0600 
    151 H151        3.4200  -24.9667  -41.3968 H         1 UNK         0.0600 
    152 H152        1.7669  -24.4588  -41.0908 H         1 UNK         0.0600 
    153 H153        3.0645  -23.2641  -41.1304 H         1 UNK         0.0600 
    154 H154        1.2327  -22.3779  -42.5274 H         1 UNK         0.3000 
    155 H155       -0.0467  -21.0911  -45.5531 H         1 UNK         0.0600 
    156 H156       -1.8245  -22.7403  -44.8849 H         1 UNK         0.0600 
    157 H157       -2.2146  -21.1028  -44.3913 H         1 UNK         0.0600 
    158 H158       -1.6230  -22.2642  -43.2032 H         1 UNK         0.0600 
    159 H159       -0.4096  -20.0459  -43.0305 H         1 UNK         0.3000 
    160 H160        0.6251  -18.0817  -42.6312 H         1 UNK         0.0600 
    161 H161        3.3062  -19.2508  -41.6700 H         1 UNK         0.0600 
    162 H162        1.7335  -19.5754  -40.9469 H         1 UNK         0.0600 
    163 H163        2.4135  -17.9574  -40.8712 H         1 UNK         0.0600 
    164 H164        2.9849  -17.9146  -44.2974 H         1 UNK         0.3000 
    165 H165        4.1361  -15.2342  -43.9839 H         1 UNK         0.0600 
    166 H166        3.8353  -15.3190  -46.5075 H         1 UNK         0.0600 
    167 H167        3.8377  -16.9133  -45.7864 H         1 UNK         0.0600 
    168 H168        2.3138  -16.1710  -46.2755 H         1 UNK         0.0600 
    169 H169        1.5327  -13.9768  -44.4786 H         1 UNK         0.3000 
    170 H170        1.9045  -11.3614  -44.0927 H         1 UNK         0.0600 
    171 H171        3.8904  -10.1050  -44.8269 H         1 UNK         0.0600 
    172 H172        3.6559  -10.6073  -46.4942 H         1 UNK         0.0600 
    173 H173        2.4831   -9.5450  -45.7162 H         1 UNK         0.0600 
    174 H174        0.3145  -11.9752  -45.4866 H         1 UNK         0.3000 
    175 H175       -0.1272  -12.4429  -48.8556 H         1 UNK         0.0600 
    176 H176       -0.0005  -14.8071  -46.9043 H         1 UNK         0.0600 
    177 H177       -1.0488  -14.7212  -48.3204 H         1 UNK         0.0600 
    178 H178        0.6962  -14.7394  -48.5161 H         1 UNK         0.0600 
    179 H179       -1.4925  -12.9094  -46.2654 H         1 UNK         0.3000 
    180 H180       -3.0942   -9.7599  -46.2805 H         1 UNK         0.0600 
    181 H181       -4.5783  -11.0137  -47.8493 H         1 UNK         0.0600 
    182 H182       -5.1944  -11.0814  -46.2062 H         1 UNK         0.0600 
    183 H183       -4.3710  -12.4796  -46.8988 H         1 UNK         0.0600 
    184 H184       -3.3878  -12.1175  -44.6635 H         1 UNK         0.3000 
    185 H185       -0.6654  -11.5409  -42.4883 H         1 UNK         0.0600 
    186 H186       -2.3360   -9.8908  -41.6204 H         1 UNK         0.0600 
    187 H187       -3.6359  -11.0378  -41.9222 H         1 UNK         0.0600 
    188 H188       -2.3934  -11.3989  -40.7231 H         1 UNK         0.0600 
    189 H189       -2.7309  -13.3796  -42.1731 H         1 UNK         0.3000 
    190 H190        2.8716  -23.6612  -46.7281 H         1 UNK         0.3000 
    191 H191        2.2814  -25.7633  -47.0438 H         1 UNK         0.0600 
    192 H192        3.0710  -27.1261  -48.9263 H         1 UNK         0.0600 
    193 H193        4.3896  -26.1101  -48.3647 H         1 UNK         0.0600 
    194 H194        3.5252  -25.7009  -49.8461 H         1 UNK         0.0600 
    195 H195        0.4881  -23.8300  -47.2134 H         1 UNK         0.3000 
    196 H196       -1.2360  -24.1223  -49.6171 H         1 UNK         0.0600 
    197 H197       -1.1625  -22.1216  -47.2879 H         1 UNK         0.0600 
    198 H198       -0.6477  -21.8232  -48.9468 H         1 UNK         0.0600 
    199 H199       -2.3422  -22.0806  -48.5777 H         1 UNK         0.0600 
    200 H200       -3.4878  -24.4540  -49.3714 H         1 UNK         0.3000 
    201 H201       -4.3859  -26.1116  -47.1131 H         1 UNK         0.0600 
    202 H202       -6.4275  -26.3512  -48.5013 H         1 UNK         0.0600 
    203 H203       -5.0008  -26.6915  -49.4657 H         1 UNK         0.0600 
    204 H204       -5.8338  -25.1471  -49.6360 H         1 UNK         0.0600 
    205 H205       -4.1131  -22.8458  -47.6621 H         1 UNK         0.3000 
    206 H206       -4.6847  -20.9903  -46.6974 H         1 UNK         0.0600 
    207 H207       -4.5162  -22.2049  -44.5269 H         1 UNK         0.0600 
    208 H208       -5.7044  -20.9125  -44.4621 H         1 UNK         0.0600 
    209 H209       -6.2363  -22.5815  -44.5942 H         1 UNK         0.0600 
    210 H210       -7.5193  -23.1025  -47.0262 H         1 UNK         0.3000 
    211 H211       -9.4047  -20.9222  -47.5055 H         1 UNK         0.0600 
    212 H212       -9.6350  -23.9531  -47.9205 H         1 UNK         0.0600 
    213 H213      -10.9703  -22.8078  -47.9805 H         1 UNK         0.0600 
    214 H214      -10.1133  -23.0710  -46.4702 H         1 UNK         0.0600 
    215 H215       -7.0861  -22.5583  -49.4190 H         1 UNK         0.3000 
    216 H216       -8.3440  -22.4102  -52.0173 H         1 UNK         0.0600 
    217 H217       -6.6375  -24.0980  -51.6006 H         1 UNK         0.0600 
    218 H218       -5.4721  -22.8903  -51.0562 H         1 UNK         0.0600 
    219 H219       -5.9459  -22.9656  -52.7427 H         1 UNK         0.0600 
    220 H220       -7.4187  -21.1833  -53.8208 H         1 UNK         0.3000 
    221 H221       -6.9978  -18.3356  -53.2295 H         1 UNK         0.0600 
    222 H222       -7.1634  -18.1435  -55.7147 H         1 UNK         0.0600 
    223 H223       -7.1749  -19.8957  -55.8744 H         1 UNK         0.0600 
    224 H224       -8.5176  -19.0667  -55.0878 H         1 UNK         0.0600 
    225 H225       -5.1826  -17.1705  -54.2100 H         1 UNK         0.3000 
    226 H226       -2.6315  -18.1641  -53.6294 H         1 UNK         0.0600 
    227 H227       -3.1773  -15.7582  -53.7256 H         1 UNK         0.0600 
    228 H228       -1.8379  -16.1097  -54.8048 H         1 UNK         0.0600 
    229 H229       -3.4487  -15.8559  -55.4661 H         1 UNK         0.0600 
    230 H230       -4.3824  -18.2582  -56.7040 H         1 UNK         0.3000 
    231 H231       -2.2188  -19.1438  -58.3567 H         1 UNK         0.0600 
    232 H232       -4.0631  -19.6881  -59.9543 H         1 UNK         0.0600 
    233 H233       -4.2737  -18.0866  -59.2656 H         1 UNK         0.0600 
    234 H234       -5.2551  -19.4332  -58.6853 H         1 UNK         0.0600 
    235 H235       -4.2686  -20.8378  -56.0660 H         1 UNK         0.3000 
    236 H236       -3.5642  -23.5188  -57.1228 H         1 UNK         0.0600 
    237 H237       -5.8976  -23.2399  -56.4815 H         1 UNK         0.0600 
    238 H238       -5.1232  -24.2851  -55.2994 H         1 UNK         0.0600 
    239 H239       -5.4528  -22.6017  -54.9053 H         1 UNK         0.0600 
    240 H240       -3.0579  -21.3832  -54.2636 H         1 UNK         0.3000 
    241 H241       -1.3387  -23.1720  -52.8592 H         1 UNK         0.0600 
    242 H242       -0.4813  -20.6048  -55.3242 H         1 UNK         0.3800 
    243 H243        1.1662  -21.1666  -55.4666 H         1 UNK         0.3800 
    244 H244       -1.4056  -20.1289  -52.6885 H         1 UNK         0.0800 
    245 H245       -0.6055  -21.1899  -51.5511 H         1 UNK         0.0800 
    246 H246       -4.3035  -19.4469  -50.4851 H         1 UNK         0.0800 
    247 H247       -3.0682  -18.8736  -51.5563 H         1 UNK         0.0800 
@<TRIPOS>BOND
     1    1    2 1    
     2    1  127 1    
     3    1  128 1    
     4    1  129 1    
     5    2    3 2    
     6    2    4 am   BACKBONE|DICT|INTERRES
     7    4    5 1    
     8    4  130 1    
     9    5    6 1    
    10    5   65 1    
    11    5  131 1    
    12    6    7 1    
    13    6  132 1    
    14    6  133 1    
    15    7    8 1    
    16    8    9 1    
    17    8  134 1    
    18    8  135 1    
    19    9   10 ar   
    20    9   14 ar   
    21   10   11 ar   
    22   10  136 1    
    23   11   12 ar   
    24   11  126 1    
    25   12   13 ar   
    26   12  137 1    
    27   13   14 ar   
    28   13   15 1    
    29   14  138 1    
    30   15   16 1    
    31   15  139 1    
    32   15  140 1    
    33   16   17 1    
    34   17   18 1    
    35   17  141 1    
    36   17  142 1    
    37   18   19 1    
    38   18   67 1    
    39   18  143 1    
    40   19   20 am   BACKBONE|DICT|INTERRES
    41   19  144 1    
    42   20   21 2    
    43   20   22 1    
    44   22   23 1    
    45   22   24 1    
    46   22  145 1    
    47   23  146 1    
    48   23  147 1    
    49   23  148 1    
    50   24   25 am   BACKBONE|DICT|INTERRES
    51   24  149 1    
    52   25   26 2    
    53   25   27 1    
    54   27   28 1    
    55   27   29 1    
    56   27  150 1    
    57   28  151 1    
    58   28  152 1    
    59   28  153 1    
    60   29   30 am   BACKBONE|DICT|INTERRES
    61   29  154 1    
    62   30   31 2    
    63   30   32 1    
    64   32   33 1    
    65   32   34 1    
    66   32  155 1    
    67   33  156 1    
    68   33  157 1    
    69   33  158 1    
    70   34   35 am   BACKBONE|DICT|INTERRES
    71   34  159 1    
    72   35   36 2    
    73   35   37 1    
    74   37   38 1    
    75   37   39 1    
    76   37  160 1    
    77   38  161 1    
    78   38  162 1    
    79   38  163 1    
    80   39   40 am   BACKBONE|DICT|INTERRES
    81   39  164 1    
    82   40   41 2    
    83   40   42 1    
    84   42   43 1    
    85   42   44 1    
    86   42  165 1    
    87   43  166 1    
    88   43  167 1    
    89   43  168 1    
    90   44   45 am   BACKBONE|DICT|INTERRES
    91   44  169 1    
    92   45   46 2    
    93   45   47 1    
    94   47   48 1    
    95   47   49 1    
    96   47  170 1    
    97   48  171 1    
    98   48  172 1    
    99   48  173 1    
   100   49   50 am   BACKBONE|DICT|INTERRES
   101   49  174 1    
   102   50   51 2    
   103   50   52 1    
   104   52   53 1    
   105   52   54 1    
   106   52  175 1    
   107   53  176 1    
   108   53  177 1    
   109   53  178 1    
   110   54   55 am   BACKBONE|DICT|INTERRES
   111   54  179 1    
   112   55   56 2    
   113   55   57 1    
   114   57   58 1    
   115   57   59 1    
   116   57  180 1    
   117   58  181 1    
   118   58  182 1    
   119   58  183 1    
   120   59   60 am   BACKBONE|DICT|INTERRES
   121   59  184 1    
   122   60   61 2    
   123   60   62 1    
   124   62   63 1    
   125   62   64 1    
   126   62  185 1    
   127   63  186 1    
   128   63  187 1    
   129   63  188 1    
   130   64   65 am   BACKBONE|DICT|INTERRES
   131   64  189 1    
   132   65   66 2    
   133   67   68 2    
   134   67   69 am   BACKBONE|DICT|INTERRES
   135   69   70 1    
   136   69  190 1    
   137   70   71 1    
   138   70   72 1    
   139   70  191 1    
   140   71  192 1    
   141   71  193 1    
   142   71  194 1    
   143   72   73 2    
   144   72   74 am   BACKBONE|DICT|INTERRES
   145   74   75 1    
   146   74  195 1    
   147   75   76 1    
   148   75   77 1    
   149   75  196 1    
   150   76  197 1    
   151   76  198 1    
   152   76  199 1    
   153   77   78 2    
   154   77   79 am   BACKBONE|DICT|INTERRES
   155   79   80 1    
   156   79  200 1    
   157   80   81 1    
   158   80   82 1    
   159   80  201 1    
   160   81  202 1    
   161   81  203 1    
   162   81  204 1    
   163   82   83 2    
   164   82   84 am   BACKBONE|DICT|INTERRES
   165   84   85 1    
   166   84  205 1    
   167   85   86 1    
   168   85   87 1    
   169   85  206 1    
   170   86  207 1    
   171   86  208 1    
   172   86  209 1    
   173   87   88 2    
   174   87   89 am   BACKBONE|DICT|INTERRES
   175   89   90 1    
   176   89  210 1    
   177   90   91 1    
   178   90   92 1    
   179   90  211 1    
   180   91  212 1    
   181   91  213 1    
   182   91  214 1    
   183   92   93 2    
   184   92   94 am   BACKBONE|DICT|INTERRES
   185   94   95 1    
   186   94  215 1    
   187   95   96 1    
   188   95   97 1    
   189   95  216 1    
   190   96  217 1    
   191   96  218 1    
   192   96  219 1    
   193   97   98 2    
   194   97   99 am   BACKBONE|DICT|INTERRES
   195   99  100 1    
   196   99  220 1    
   197  100  101 1    
   198  100  102 1    
   199  100  221 1    
   200  101  222 1    
   201  101  223 1    
   202  101  224 1    
   203  102  103 2    
   204  102  104 am   BACKBONE|DICT|INTERRES
   205  104  105 1    
   206  104  225 1    
   207  105  106 1    
   208  105  107 1    
   209  105  226 1    
   210  106  227 1    
   211  106  228 1    
   212  106  229 1    
   213  107  108 2    
   214  107  109 am   BACKBONE|DICT|INTERRES
   215  109  110 1    
   216  109  230 1    
   217  110  111 1    
   218  110  112 1    
   219  110  231 1    
   220  111  232 1    
   221  111  233 1    
   222  111  234 1    
   223  112  113 2    
   224  112  114 am   BACKBONE|DICT|INTERRES
   225  114  115 1    
   226  114  235 1    
   227  115  116 1    
   228  115  117 1    
   229  115  236 1    
   230  116  237 1    
   231  116  238 1    
   232  116  239 1    
   233  117  118 2    
   234  117  119 am   BACKBONE|DICT|INTERRES
   235  119  120 1    
   236  119  240 1    
   237  120  121 1    
   238  120  124 1    
   239  120  241 1    
   240  121  122 am   BACKBONE|DICT|INTERRES
   241  121  123 2    
   242  122  242 1    
   243  122  243 1    
   244  124  125 1    
   245  124  244 1    
   246  124  245 1    
   247  125  126 1    
   248  126  246 1    
   249  126  247 1    
@<TRIPOS>SUBSTRUCTURE
     1 UNK         1 GROUP             0       ****    0 ROOT    
