@<TRIPOS>MOLECULE
3R540
247   249    1
SMALL
USER_CHARGES


@<TRIPOS>ATOM
      1 CA          3.4466   -9.6506  -47.2813 C.3       0 UNK        -0.1800 
      2 C           2.5664  -10.8915  -47.2918 C.2       0 UNK         0.5000 
      3 O           1.3409  -10.7699  -47.2987 O.2       0 UNK        -0.5000 
      4 N           3.1846  -12.0818  -47.2769 N.am      1 UNK        -0.5000 
      5 CA          2.5353  -13.3979  -47.2381 C.3       1 UNK         0.1400 
      6 C6          1.8336  -13.7499  -48.5797 C.3       23 UNK        -0.0398 
      7 S7          1.3705  -15.5131  -48.6987 S.3       23 UNK        -0.2404 
      8 C8          2.6788  -16.1566  -49.7823 C.3       23 UNK        -0.0205 
      9 C9          2.5072  -17.6458  -50.0429 C.ar      23 UNK        -0.0193 
     10 C10         1.6680  -18.0863  -51.0705 C.ar      23 UNK        -0.1150 
     11 C11         1.5293  -19.4523  -51.3463 C.ar      23 UNK        -0.0193 
     12 C12         2.2640  -20.3734  -50.5916 C.ar      23 UNK        -0.1150 
     13 C13         3.1114  -19.9486  -49.5629 C.ar      23 UNK        -0.0193 
     14 C14         3.2170  -18.5820  -49.2858 C.ar      23 UNK        -0.1150 
     15 C15         3.9714  -20.9500  -48.7970 C.3       23 UNK        -0.0205 
     16 S16         3.0319  -22.3258  -48.0563 S.3       23 UNK        -0.2404 
     17 C17         2.0441  -21.4583  -46.7929 C.3       23 UNK        -0.0398 
     18 CA          0.5700  -21.9244  -46.7567 C.3       11 UNK         0.1400 
     19 N          -0.1011  -21.5068  -45.5194 N.am      11 UNK        -0.5000 
     20 C          -1.3582  -21.8206  -45.1701 C.2       10 UNK         0.5000 
     21 O          -2.0950  -22.5431  -45.8414 O.2       10 UNK        -0.5000 
     22 CA         -1.9035  -21.1771  -43.8830 C.3       10 UNK         0.1400 
     23 CB         -1.3803  -21.9031  -42.6348 C.3       10 UNK        -0.1800 
     24 N          -1.5785  -19.7539  -43.8006 N.am      10 UNK        -0.5000 
     25 C          -2.0671  -18.8148  -44.6239 C.2       9 UNK         0.5000 
     26 O          -2.9143  -19.0330  -45.4894 O.2       9 UNK        -0.5000 
     27 CA         -1.4833  -17.3973  -44.4745 C.3       9 UNK         0.1400 
     28 CB         -2.1741  -16.6574  -43.3152 C.3       9 UNK        -0.1800 
     29 N          -0.0276  -17.4039  -44.2869 N.am      9 UNK        -0.5000 
     30 C           0.8455  -17.8888  -45.1850 C.2       8 UNK         0.5000 
     31 O           0.5169  -18.3155  -46.2891 O.2       8 UNK        -0.5000 
     32 CA          2.3212  -17.9942  -44.7600 C.3       8 UNK         0.1400 
     33 CB          3.0944  -16.7047  -45.0536 C.3       8 UNK        -0.1800 
     34 N           2.4618  -18.3457  -43.3495 N.am      8 UNK        -0.5000 
     35 C           2.1786  -19.5556  -42.8479 C.2       7 UNK         0.5000 
     36 O           1.8257  -20.5136  -43.5350 O.2       7 UNK        -0.5000 
     37 CA          2.2458  -19.6951  -41.3165 C.3       7 UNK         0.1400 
     38 CB          3.6907  -19.9357  -40.8551 C.3       7 UNK        -0.1800 
     39 N           1.7056  -18.5171  -40.6351 N.am      7 UNK        -0.5000 
     40 C           0.4211  -18.1358  -40.6915 C.2       6 UNK         0.5000 
     41 O          -0.4541  -18.7884  -41.2586 O.2       6 UNK        -0.5000 
     42 CA          0.0658  -16.7800  -40.0514 C.3       6 UNK         0.1400 
     43 CB         -0.3876  -16.9741  -38.5972 C.3       6 UNK        -0.1800 
     44 N           1.1770  -15.8252  -40.0901 N.am      6 UNK        -0.5000 
     45 C           1.6562  -15.2568  -41.2047 C.2       5 UNK         0.5000 
     46 O           1.1911  -15.4517  -42.3293 O.2       5 UNK        -0.5000 
     47 CA          2.9205  -14.4075  -41.0303 C.3       5 UNK         0.1400 
     48 CB          4.1755  -15.2721  -41.2529 C.3       5 UNK        -0.1800 
     49 N           2.9328  -13.2745  -41.9534 N.am      5 UNK        -0.5000 
     50 C           3.6013  -12.1356  -41.7205 C.2       4 UNK         0.5000 
     51 O           4.2387  -11.9215  -40.6879 O.2       4 UNK        -0.5000 
     52 CA          3.5646  -11.0455  -42.8034 C.3       4 UNK         0.1400 
     53 CB          4.6285  -11.3133  -43.8803 C.3       4 UNK        -0.1800 
     54 N           2.2487  -10.9372  -43.4286 N.am      4 UNK        -0.5000 
     55 C           1.2830  -10.0998  -43.0241 C.2       3 UNK         0.5000 
     56 O           1.4059   -9.3311  -42.0695 O.2       3 UNK        -0.5000 
     57 CA         -0.0385  -10.0940  -43.8188 C.3       3 UNK         0.1400 
     58 CB         -0.1022   -8.8697  -44.7453 C.3       3 UNK        -0.1800 
     59 N          -0.2249  -11.3053  -44.6166 N.am      3 UNK        -0.5000 
     60 C          -0.6637  -12.4707  -44.1197 C.2       2 UNK         0.5000 
     61 O          -1.0414  -12.6161  -42.9571 O.2       2 UNK        -0.5000 
     62 CA         -0.6631  -13.6844  -45.0706 C.3       2 UNK         0.1400 
     63 CB         -2.0564  -13.8814  -45.6873 C.3       2 UNK        -0.1800 
     64 N           0.3223  -13.6084  -46.1483 N.am      2 UNK        -0.5000 
     65 C           1.6467  -13.5084  -45.9777 C.2       1 UNK         0.5000 
     66 O           2.1795  -13.4430  -44.8693 O.2       1 UNK        -0.5000 
     67 C          -0.2047  -21.4865  -48.0180 C.2       11 UNK         0.5000 
     68 O          -0.4069  -22.3039  -48.9142 O.2       11 UNK        -0.5000 
     69 N          -0.7038  -20.2430  -48.0116 N.am      12 UNK        -0.5000 
     70 CA         -1.5361  -19.6399  -49.0545 C.3       12 UNK         0.1400 
     71 CB         -1.5717  -18.1186  -48.8424 C.3       12 UNK        -0.1800 
     72 C          -2.9599  -20.2263  -49.1853 C.2       12 UNK         0.5000 
     73 O          -3.7447  -19.7224  -49.9906 O.2       12 UNK        -0.5000 
     74 N          -3.2725  -21.2766  -48.4198 N.am      13 UNK        -0.5000 
     75 CA         -4.3961  -22.1723  -48.6537 C.3       13 UNK         0.1400 
     76 CB         -5.3477  -22.1421  -47.4483 C.3       13 UNK        -0.1800 
     77 C          -3.8645  -23.5891  -48.9166 C.2       13 UNK         0.5000 
     78 O          -4.2190  -24.1916  -49.9294 O.2       13 UNK        -0.5000 
     79 N          -3.0117  -24.0936  -48.0148 N.am      14 UNK        -0.5000 
     80 CA         -2.5271  -25.4730  -47.9866 C.3       14 UNK         0.1400 
     81 CB         -1.6927  -25.6825  -46.7138 C.3       14 UNK        -0.1800 
     82 C          -1.7320  -25.9333  -49.2227 C.2       14 UNK         0.5000 
     83 O          -1.7922  -27.1201  -49.5464 O.2       14 UNK        -0.5000 
     84 N          -1.0057  -25.0238  -49.8902 N.am      15 UNK        -0.5000 
     85 CA         -0.1067  -25.3569  -51.0022 C.3       15 UNK         0.1400 
     86 CB          0.7940  -24.1559  -51.3257 C.3       15 UNK        -0.1800 
     87 C          -0.8104  -25.8863  -52.2701 C.2       15 UNK         0.5000 
     88 O          -0.1803  -26.6176  -53.0359 O.2       15 UNK        -0.5000 
     89 N          -2.0917  -25.5460  -52.4602 N.am      16 UNK        -0.5000 
     90 CA         -2.9344  -26.0488  -53.5519 C.3       16 UNK         0.1400 
     91 CB         -2.9322  -25.0492  -54.7200 C.3       16 UNK        -0.1800 
     92 C          -4.3596  -26.3968  -53.0790 C.2       16 UNK         0.5000 
     93 O          -5.2643  -26.5086  -53.9078 O.2       16 UNK        -0.5000 
     94 N          -4.5343  -26.5694  -51.7608 N.am      17 UNK        -0.5000 
     95 CA         -5.7532  -26.9059  -51.0111 C.3       17 UNK         0.1400 
     96 CB         -6.2928  -28.2913  -51.4137 C.3       17 UNK        -0.1800 
     97 C          -6.8695  -25.8404  -51.0491 C.2       17 UNK         0.5000 
     98 O          -7.3841  -25.4700  -49.9927 O.2       17 UNK        -0.5000 
     99 N          -7.2354  -25.3747  -52.2471 N.am      18 UNK        -0.5000 
    100 CA        -8.2180  -24.3209  -52.4754 C.3       18 UNK         0.1400 
    101 CB        -8.9336  -24.5829  -53.8099 C.3       18 UNK        -0.1800 
    102 C         -7.4964  -22.9692  -52.5091 C.2       18 UNK         0.5000 
    103 O         -6.6104  -22.7837  -53.3456 O.2       18 UNK        -0.5000 
    104 N         -7.8852  -22.0378  -51.6285 N.am      19 UNK        -0.5000 
    105 CA        -7.2585  -20.7180  -51.4673 C.3       19 UNK         0.1400 
    106 CB        -7.9217  -19.9820  -50.2946 C.3       19 UNK        -0.1800 
    107 C         -7.2638  -19.8438  -52.7381 C.2       19 UNK         0.5000 
    108 O         -6.3501  -19.0409  -52.9242 O.2       19 UNK        -0.5000 
    109 N         -8.2460  -20.0619  -53.6241 N.am      20 UNK        -0.5000 
    110 CA        -8.3317  -19.4516  -54.9544 C.3       20 UNK         0.1400 
    111 CB        -9.6889  -19.8114  -55.5779 C.3       20 UNK        -0.1800 
    112 C         -7.1805  -19.8581  -55.9009 C.2       20 UNK         0.5000 
    113 O         -6.8561  -19.1000  -56.8154 O.2       20 UNK        -0.5000 
    114 N         -6.5771  -21.0287  -55.6557 N.am      21 UNK        -0.5000 
    115 CA        -5.4102  -21.5556  -56.3639 C.3       21 UNK         0.1400 
    116 CB        -5.6713  -23.0378  -56.6873 C.3       21 UNK        -0.1800 
    117 C         -4.1148  -21.3936  -55.5401 C.2       21 UNK         0.5000 
    118 O         -3.0779  -21.9153  -55.9505 O.2       21 UNK        -0.5000 
    119 N         -4.1877  -20.6888  -54.4017 N.am      22 UNK        -0.5000 
    120 CA        -3.1376  -20.5722  -53.3765 C.3       22 UNK         0.1400 
    121 C         -3.0276  -21.8180  -52.4444 C.2       22 UNK         0.5000 
    122 N         -4.0646  -22.6313  -52.2994 N.am      22 UNK        -0.7600 
    123 O         -2.0098  -22.0440  -51.8037 O.2       22 UNK        -0.5000 
    124 C124       -1.7750  -20.0614  -53.9344 C.3       23 UNK        -0.0398 
    125 S125       -0.8777  -18.9878  -52.7593 S.3       23 UNK        -0.2404 
    126 C126        0.6418  -19.9627  -52.4814 C.3       23 UNK        -0.0205 
    127 H127        3.2356   -9.0338  -48.1548 H         1 UNK         0.0600 
    128 H128        4.5067   -9.9046  -47.2913 H         1 UNK         0.0600 
    129 H129        3.2466   -9.0589  -46.3879 H         1 UNK         0.0600 
    130 H130        4.1942  -12.1037  -47.2454 H         1 UNK         0.3000 
    131 H131        3.3447  -14.1152  -47.0949 H         1 UNK         0.0600 
    132 H132        2.4997  -13.5111  -49.4098 H         1 UNK         0.0800 
    133 H133        0.9474  -13.1347  -48.7414 H         1 UNK         0.0800 
    134 H134        3.6520  -15.9622  -49.3287 H         1 UNK         0.0800 
    135 H135        2.6651  -15.6152  -50.7295 H         1 UNK         0.0800 
    136 H136        1.1292  -17.3577  -51.6591 H         1 UNK         0.1150 
    137 H137        2.1857  -21.4290  -50.8113 H         1 UNK         0.1150 
    138 H138        3.8758  -18.2412  -48.4995 H         1 UNK         0.1150 
    139 H139        4.7075  -21.3664  -49.4857 H         1 UNK         0.0800 
    140 H140        4.5397  -20.4523  -48.0096 H         1 UNK         0.0800 
    141 H141        2.1016  -20.3810  -46.9478 H         1 UNK         0.0800 
    142 H142        2.5210  -21.6531  -45.8320 H         1 UNK         0.0800 
    143 H143        0.5685  -23.0161  -46.7436 H         1 UNK         0.0600 
    144 H144        0.4502  -20.9449  -44.8782 H         1 UNK         0.3000 
    145 H145       -2.9912  -21.2733  -43.8986 H         1 UNK         0.0600 
    146 H146       -1.8146  -21.4852  -41.7264 H         1 UNK         0.0600 
    147 H147       -0.2962  -21.8326  -42.5476 H         1 UNK         0.0600 
    148 H148       -1.6394  -22.9622  -42.6632 H         1 UNK         0.0600 
    149 H149       -0.9406  -19.4698  -43.0637 H         1 UNK         0.3000 
    150 H150       -1.6849  -16.8552  -45.3993 H         1 UNK         0.0600 
    151 H151       -3.2077  -16.4257  -43.5743 H         1 UNK         0.0600 
    152 H152       -1.6830  -15.7178  -43.0683 H         1 UNK         0.0600 
    153 H153       -2.2027  -17.2581  -42.4072 H         1 UNK         0.0600 
    154 H154        0.3305  -17.0131  -43.4234 H         1 UNK         0.3000 
    155 H155        2.7778  -18.7876  -45.3541 H         1 UNK         0.0600 
    156 H156        2.9637  -16.3998  -46.0922 H         1 UNK         0.0600 
    157 H157        4.1628  -16.8393  -44.8854 H         1 UNK         0.0600 
    158 H158        2.7589  -15.8881  -44.4179 H         1 UNK         0.0600 
    159 H159        2.7013  -17.5983  -42.7163 H         1 UNK         0.3000 
    160 H160        1.6444  -20.5614  -41.0323 H         1 UNK         0.0600 
    161 H161        4.3377  -19.0899  -41.0910 H         1 UNK         0.0600 
    162 H162        4.1125  -20.8173  -41.3397 H         1 UNK         0.0600 
    163 H163        3.7375  -20.1044  -39.7791 H         1 UNK         0.0600 
    164 H164        2.3600  -17.9376  -40.1316 H         1 UNK         0.3000 
    165 H165       -0.7670  -16.3539  -40.6141 H         1 UNK         0.0600 
    166 H166       -0.7098  -16.0310  -38.1554 H         1 UNK         0.0600 
    167 H167       -1.2317  -17.6628  -38.5409 H         1 UNK         0.0600 
    168 H168        0.4108  -17.3817  -37.9759 H         1 UNK         0.0600 
    169 H169        1.6197  -15.6197  -39.2057 H         1 UNK         0.3000 
    170 H170        2.9268  -14.0314  -40.0048 H         1 UNK         0.0600 
    171 H171        4.2347  -15.6349  -42.2796 H         1 UNK         0.0600 
    172 H172        5.0856  -14.7085  -41.0474 H         1 UNK         0.0600 
    173 H173        4.1806  -16.1410  -40.5938 H         1 UNK         0.0600 
    174 H174        2.4338  -13.4073  -42.8289 H         1 UNK         0.3000 
    175 H175        3.8196  -10.0967  -42.3261 H         1 UNK         0.0600 
    176 H176        4.4631  -12.2602  -44.3938 H         1 UNK         0.0600 
    177 H177        4.6387  -10.5213  -44.6286 H         1 UNK         0.0600 
    178 H178        5.6249  -11.3536  -43.4386 H         1 UNK         0.0600 
    179 H179        2.0499  -11.6061  -44.1640 H         1 UNK         0.3000 
    180 H180       -0.8563  -10.0133  -43.0994 H         1 UNK         0.0600 
    181 H181       -1.0400   -8.8421  -45.3002 H         1 UNK         0.0600 
    182 H182        0.7153   -8.8654  -45.4665 H         1 UNK         0.0600 
    183 H183       -0.0366   -7.9438  -44.1725 H         1 UNK         0.0600 
    184 H184        0.0828  -11.2653  -45.5821 H         1 UNK         0.3000 
    185 H185       -0.4061  -14.5609  -44.4772 H         1 UNK         0.0600 
    186 H186       -2.3610  -13.0122  -46.2716 H         1 UNK         0.0600 
    187 H187       -2.0833  -14.7491  -46.3459 H         1 UNK         0.0600 
    188 H188       -2.8083  -14.0354  -44.9124 H         1 UNK         0.0600 
    189 H189       -0.0413  -13.6420  -47.0892 H         1 UNK         0.3000 
    190 H190       -0.4482  -19.6258  -47.2446 H         1 UNK         0.3000 
    191 H191       -1.0409  -19.8366  -50.0048 H         1 UNK         0.0600 
    192 H192       -2.0492  -17.8556  -47.8984 H         1 UNK         0.0600 
    193 H193       -2.1169  -17.6189  -49.6437 H         1 UNK         0.0600 
    194 H194       -0.5634  -17.7071  -48.8355 H         1 UNK         0.0600 
    195 H195       -2.5700  -21.6080  -47.7721 H         1 UNK         0.3000 
    196 H196       -4.9574  -21.8692  -49.5380 H         1 UNK         0.0600 
    197 H197       -5.7672  -21.1457  -47.3085 H         1 UNK         0.0600 
    198 H198       -4.8433  -22.4234  -46.5231 H         1 UNK         0.0600 
    199 H199       -6.1815  -22.8301  -47.5940 H         1 UNK         0.0600 
    200 H200       -2.7460  -23.5231  -47.2150 H         1 UNK         0.3000 
    201 H201       -3.4075  -26.1153  -47.9188 H         1 UNK         0.0600 
    202 H202       -2.2753  -25.4646  -45.8185 H         1 UNK         0.0600 
    203 H203       -0.8114  -25.0407  -46.7041 H         1 UNK         0.0600 
    204 H204       -1.3491  -26.7147  -46.6340 H         1 UNK         0.0600 
    205 H205       -1.0003  -24.0554  -49.5769 H         1 UNK         0.3000 
    206 H206        0.5451  -26.1607  -50.6537 H         1 UNK         0.0600 
    207 H207        0.2120  -23.2929  -51.6425 H         1 UNK         0.0600 
    208 H208        1.3829  -23.8604  -50.4572 H         1 UNK         0.0600 
    209 H209        1.4936  -24.3926  -52.1280 H         1 UNK         0.0600 
    210 H210       -2.5165  -24.8994  -51.8093 H         1 UNK         0.3000 
    211 H211       -2.5216  -26.9898  -53.9205 H         1 UNK         0.0600 
    212 H212       -3.4423  -24.1269  -54.4510 H         1 UNK         0.0600 
    213 H213       -3.4429  -25.4593  -55.5918 H         1 UNK         0.0600 
    214 H214       -1.9181  -24.7945  -55.0277 H         1 UNK         0.0600 
    215 H215       -3.7186  -26.4415  -51.1787 H         1 UNK         0.3000 
    216 H216       -5.4340  -26.9750  -49.9698 H         1 UNK         0.0600 
    217 H217       -7.1387  -28.5756  -50.7867 H         1 UNK         0.0600 
    218 H218       -5.5291  -29.0601  -51.2971 H         1 UNK         0.0600 
    219 H219       -6.6347  -28.3123  -52.4488 H         1 UNK         0.0600 
    220 H220       -6.7060  -25.6940  -53.0548 H         1 UNK         0.3000 
    221 H221       -8.9643  -24.3207  -51.6782 H         1 UNK         0.0600 
    222 H222       -8.2338  -24.6069  -54.6468 H         1 UNK         0.0600 
    223 H223       -9.4625  -25.5359  -53.7909 H         1 UNK         0.0600 
    224 H224       -9.6695  -23.8055  -54.0187 H         1 UNK         0.0600 
    225 H225       -8.6238  -22.2627  -50.9774 H         1 UNK         0.3000 
    226 H226       -6.2109  -20.8840  -51.2112 H         1 UNK         0.0600 
    227 H227       -7.8178  -20.5452  -49.3668 H         1 UNK         0.0600 
    228 H228       -7.4577  -19.0079  -50.1332 H         1 UNK         0.0600 
    229 H229       -8.9847  -19.8159  -50.4728 H         1 UNK         0.0600 
    230 H230       -8.9532  -20.7437  -53.3924 H         1 UNK         0.3000 
    231 H231       -8.2867  -18.3677  -54.8300 H         1 UNK         0.0600 
    232 H232       -9.8022  -19.3511  -56.5604 H         1 UNK         0.0600 
    233 H233      -10.5141  -19.4591  -54.9588 H         1 UNK         0.0600 
    234 H234       -9.7993  -20.8891  -55.7056 H         1 UNK         0.0600 
    235 H235       -6.8787  -21.5823  -54.8597 H         1 UNK         0.3000 
    236 H236       -5.2641  -21.0223  -57.3051 H         1 UNK         0.0600 
    237 H237       -5.7665  -23.6381  -55.7814 H         1 UNK         0.0600 
    238 H238       -6.5863  -23.1597  -57.2670 H         1 UNK         0.0600 
    239 H239       -4.8568  -23.4621  -57.2755 H         1 UNK         0.0600 
    240 H240       -5.0724  -20.2642  -54.1543 H         1 UNK         0.3000 
    241 H241       -3.5218  -19.7912  -52.7200 H         1 UNK         0.0600 
    242 H242       -4.0263  -23.3472  -51.5842 H         1 UNK         0.3800 
    243 H243       -4.9225  -22.5171  -52.8327 H         1 UNK         0.3800 
    244 H244       -1.1480  -20.8952  -54.2544 H         1 UNK         0.0800 
    245 H245       -1.9408  -19.4590  -54.8282 H         1 UNK         0.0800 
    246 H246        1.2262  -19.9798  -53.4019 H         1 UNK         0.0800 
    247 H247        0.3530  -20.9935  -52.2756 H         1 UNK         0.0800 
@<TRIPOS>BOND
     1    1    2 1    
     2    1  127 1    
     3    1  128 1    
     4    1  129 1    
     5    2    3 2    
     6    2    4 am   BACKBONE|DICT|INTERRES
     7    4    5 1    
     8    4  130 1    
     9    5    6 1    
    10    5   65 1    
    11    5  131 1    
    12    6    7 1    
    13    6  132 1    
    14    6  133 1    
    15    7    8 1    
    16    8    9 1    
    17    8  134 1    
    18    8  135 1    
    19    9   10 ar   
    20    9   14 ar   
    21   10   11 ar   
    22   10  136 1    
    23   11   12 ar   
    24   11  126 1    
    25   12   13 ar   
    26   12  137 1    
    27   13   14 ar   
    28   13   15 1    
    29   14  138 1    
    30   15   16 1    
    31   15  139 1    
    32   15  140 1    
    33   16   17 1    
    34   17   18 1    
    35   17  141 1    
    36   17  142 1    
    37   18   19 1    
    38   18   67 1    
    39   18  143 1    
    40   19   20 am   BACKBONE|DICT|INTERRES
    41   19  144 1    
    42   20   21 2    
    43   20   22 1    
    44   22   23 1    
    45   22   24 1    
    46   22  145 1    
    47   23  146 1    
    48   23  147 1    
    49   23  148 1    
    50   24   25 am   BACKBONE|DICT|INTERRES
    51   24  149 1    
    52   25   26 2    
    53   25   27 1    
    54   27   28 1    
    55   27   29 1    
    56   27  150 1    
    57   28  151 1    
    58   28  152 1    
    59   28  153 1    
    60   29   30 am   BACKBONE|DICT|INTERRES
    61   29  154 1    
    62   30   31 2    
    63   30   32 1    
    64   32   33 1    
    65   32   34 1    
    66   32  155 1    
    67   33  156 1    
    68   33  157 1    
    69   33  158 1    
    70   34   35 am   BACKBONE|DICT|INTERRES
    71   34  159 1    
    72   35   36 2    
    73   35   37 1    
    74   37   38 1    
    75   37   39 1    
    76   37  160 1    
    77   38  161 1    
    78   38  162 1    
    79   38  163 1    
    80   39   40 am   BACKBONE|DICT|INTERRES
    81   39  164 1    
    82   40   41 2    
    83   40   42 1    
    84   42   43 1    
    85   42   44 1    
    86   42  165 1    
    87   43  166 1    
    88   43  167 1    
    89   43  168 1    
    90   44   45 am   BACKBONE|DICT|INTERRES
    91   44  169 1    
    92   45   46 2    
    93   45   47 1    
    94   47   48 1    
    95   47   49 1    
    96   47  170 1    
    97   48  171 1    
    98   48  172 1    
    99   48  173 1    
   100   49   50 am   BACKBONE|DICT|INTERRES
   101   49  174 1    
   102   50   51 2    
   103   50   52 1    
   104   52   53 1    
   105   52   54 1    
   106   52  175 1    
   107   53  176 1    
   108   53  177 1    
   109   53  178 1    
   110   54   55 am   BACKBONE|DICT|INTERRES
   111   54  179 1    
   112   55   56 2    
   113   55   57 1    
   114   57   58 1    
   115   57   59 1    
   116   57  180 1    
   117   58  181 1    
   118   58  182 1    
   119   58  183 1    
   120   59   60 am   BACKBONE|DICT|INTERRES
   121   59  184 1    
   122   60   61 2    
   123   60   62 1    
   124   62   63 1    
   125   62   64 1    
   126   62  185 1    
   127   63  186 1    
   128   63  187 1    
   129   63  188 1    
   130   64   65 am   BACKBONE|DICT|INTERRES
   131   64  189 1    
   132   65   66 2    
   133   67   68 2    
   134   67   69 am   BACKBONE|DICT|INTERRES
   135   69   70 1    
   136   69  190 1    
   137   70   71 1    
   138   70   72 1    
   139   70  191 1    
   140   71  192 1    
   141   71  193 1    
   142   71  194 1    
   143   72   73 2    
   144   72   74 am   BACKBONE|DICT|INTERRES
   145   74   75 1    
   146   74  195 1    
   147   75   76 1    
   148   75   77 1    
   149   75  196 1    
   150   76  197 1    
   151   76  198 1    
   152   76  199 1    
   153   77   78 2    
   154   77   79 am   BACKBONE|DICT|INTERRES
   155   79   80 1    
   156   79  200 1    
   157   80   81 1    
   158   80   82 1    
   159   80  201 1    
   160   81  202 1    
   161   81  203 1    
   162   81  204 1    
   163   82   83 2    
   164   82   84 am   BACKBONE|DICT|INTERRES
   165   84   85 1    
   166   84  205 1    
   167   85   86 1    
   168   85   87 1    
   169   85  206 1    
   170   86  207 1    
   171   86  208 1    
   172   86  209 1    
   173   87   88 2    
   174   87   89 am   BACKBONE|DICT|INTERRES
   175   89   90 1    
   176   89  210 1    
   177   90   91 1    
   178   90   92 1    
   179   90  211 1    
   180   91  212 1    
   181   91  213 1    
   182   91  214 1    
   183   92   93 2    
   184   92   94 am   BACKBONE|DICT|INTERRES
   185   94   95 1    
   186   94  215 1    
   187   95   96 1    
   188   95   97 1    
   189   95  216 1    
   190   96  217 1    
   191   96  218 1    
   192   96  219 1    
   193   97   98 2    
   194   97   99 am   BACKBONE|DICT|INTERRES
   195   99  100 1    
   196   99  220 1    
   197  100  101 1    
   198  100  102 1    
   199  100  221 1    
   200  101  222 1    
   201  101  223 1    
   202  101  224 1    
   203  102  103 2    
   204  102  104 am   BACKBONE|DICT|INTERRES
   205  104  105 1    
   206  104  225 1    
   207  105  106 1    
   208  105  107 1    
   209  105  226 1    
   210  106  227 1    
   211  106  228 1    
   212  106  229 1    
   213  107  108 2    
   214  107  109 am   BACKBONE|DICT|INTERRES
   215  109  110 1    
   216  109  230 1    
   217  110  111 1    
   218  110  112 1    
   219  110  231 1    
   220  111  232 1    
   221  111  233 1    
   222  111  234 1    
   223  112  113 2    
   224  112  114 am   BACKBONE|DICT|INTERRES
   225  114  115 1    
   226  114  235 1    
   227  115  116 1    
   228  115  117 1    
   229  115  236 1    
   230  116  237 1    
   231  116  238 1    
   232  116  239 1    
   233  117  118 2    
   234  117  119 am   BACKBONE|DICT|INTERRES
   235  119  120 1    
   236  119  240 1    
   237  120  121 1    
   238  120  124 1    
   239  120  241 1    
   240  121  122 am   BACKBONE|DICT|INTERRES
   241  121  123 2    
   242  122  242 1    
   243  122  243 1    
   244  124  125 1    
   245  124  244 1    
   246  124  245 1    
   247  125  126 1    
   248  126  246 1    
   249  126  247 1    
@<TRIPOS>SUBSTRUCTURE
     1 UNK         1 GROUP             0       ****    0 ROOT    
