@<TRIPOS>MOLECULE
3R540
247   249    1
SMALL
USER_CHARGES


@<TRIPOS>ATOM
      1 CA          3.4542   -9.9591  -51.3905 C.3       0 UNK        -0.1800 
      2 C           3.3462  -10.7991  -50.1259 C.2       0 UNK         0.5000 
      3 O           3.6876  -10.3235  -49.0432 O.2       0 UNK        -0.5000 
      4 N           2.8678  -12.0441  -50.2569 N.am      1 UNK        -0.5000 
      5 CA          2.6859  -12.9925  -49.1491 C.3       1 UNK         0.1400 
      6 C6          2.5860  -14.4516  -49.6639 C.3       23 UNK        -0.0398 
      7 S7          3.2124  -15.6764  -48.4612 S.3       23 UNK        -0.2404 
      8 C8          1.6779  -16.4015  -47.7997 C.3       23 UNK        -0.0205 
      9 C9          0.9721  -17.2827  -48.8182 C.ar      23 UNK        -0.0193 
     10 C10        -0.1575  -16.8176  -49.4970 C.ar      23 UNK        -0.1150 
     11 C11        -0.7841  -17.6127  -50.4610 C.ar      23 UNK        -0.0193 
     12 C12        -0.2822  -18.8893  -50.7331 C.ar      23 UNK        -0.1150 
     13 C13         0.8353  -19.3728  -50.0449 C.ar      23 UNK        -0.0193 
     14 C14         1.4545  -18.5660  -49.0858 C.ar      23 UNK        -0.1150 
     15 C15         1.3922  -20.7568  -50.3481 C.3       23 UNK        -0.0205 
     16 S16         0.3315  -22.0894  -49.7073 S.3       23 UNK        -0.2404 
     17 C17         0.2226  -21.6507  -47.9395 C.3       23 UNK        -0.0398 
     18 CA         -0.1474  -22.8532  -47.0425 C.3       11 UNK         0.1400 
     19 N           0.2256  -22.6170  -45.6466 N.am      11 UNK        -0.5000 
     20 C           0.2264  -23.5509  -44.6864 C.2       10 UNK         0.5000 
     21 O          -0.0759  -24.7271  -44.8796 O.2       10 UNK        -0.5000 
     22 CA          0.5627  -23.0806  -43.2606 C.3       10 UNK         0.1400 
     23 CB          2.0742  -22.8711  -43.0883 C.3       10 UNK        -0.1800 
     24 N          -0.1573  -21.8585  -42.9018 N.am      10 UNK        -0.5000 
     25 C          -1.4922  -21.7783  -42.8020 C.2       9 UNK         0.5000 
     26 O          -2.2446  -22.7444  -42.9352 O.2       9 UNK        -0.5000 
     27 CA         -2.0902  -20.3815  -42.5541 C.3       9 UNK         0.1400 
     28 CB         -2.0344  -20.0254  -41.0613 C.3       9 UNK        -0.1800 
     29 N          -1.4339  -19.3326  -43.3374 N.am      9 UNK        -0.5000 
     30 C          -1.4379  -19.2643  -44.6770 C.2       8 UNK         0.5000 
     31 O          -2.0274  -20.0647  -45.3993 O.2       8 UNK        -0.5000 
     32 CA         -0.5925  -18.1550  -45.3259 C.3       8 UNK         0.1400 
     33 CB         -1.3144  -16.8009  -45.2720 C.3       8 UNK        -0.1800 
     34 N           0.7276  -18.0394  -44.7103 N.am      8 UNK        -0.5000 
     35 C           1.6576  -19.0045  -44.7244 C.2       7 UNK         0.5000 
     36 O           1.5173  -20.0834  -45.2986 O.2       7 UNK        -0.5000 
     37 CA          2.9407  -18.7361  -43.9233 C.3       7 UNK         0.1400 
     38 CB          3.9346  -17.9007  -44.7441 C.3       7 UNK        -0.1800 
     39 N           2.6542  -18.0679  -42.6538 N.am      7 UNK        -0.5000 
     40 C           2.0369  -18.6542  -41.6181 C.2       6 UNK         0.5000 
     41 O           1.6800  -19.8326  -41.6125 O.2       6 UNK        -0.5000 
     42 CA          1.7321  -17.7607  -40.4016 C.3       6 UNK         0.1400 
     43 CB          2.9723  -17.6180  -39.5069 C.3       6 UNK        -0.1800 
     44 N           1.2523  -16.4316  -40.7853 N.am      6 UNK        -0.5000 
     45 C           0.0795  -16.2008  -41.3918 C.2       5 UNK         0.5000 
     46 O          -0.7312  -17.0840  -41.6666 O.2       5 UNK        -0.5000 
     47 CA         -0.2232  -14.7470  -41.7996 C.3       5 UNK         0.1400 
     48 CB         -0.8762  -13.9854  -40.6370 C.3       5 UNK        -0.1800 
     49 N           0.9428  -13.9966  -42.2740 N.am      5 UNK        -0.5000 
     50 C           1.7350  -14.3511  -43.2940 C.2       4 UNK         0.5000 
     51 O           1.6105  -15.4049  -43.9202 O.2       4 UNK        -0.5000 
     52 CA          2.8180  -13.3322  -43.6912 C.3       4 UNK         0.1400 
     53 CB          3.8992  -13.9470  -44.5979 C.3       4 UNK        -0.1800 
     54 N           2.2046  -12.2084  -44.3927 N.am      4 UNK        -0.5000 
     55 C           1.5967  -11.1617  -43.8118 C.2       3 UNK         0.5000 
     56 O           1.5363  -11.0066  -42.5913 O.2       3 UNK        -0.5000 
     57 CA          0.9187  -10.1381  -44.7399 C.3       3 UNK         0.1400 
     58 CB          1.9032   -9.0096  -45.1014 C.3       3 UNK        -0.1800 
     59 N           0.4274  -10.8089  -45.9399 N.am      3 UNK        -0.5000 
     60 C          -0.3453  -10.3238  -46.9120 C.2       2 UNK         0.5000 
     61 O          -0.7940   -9.1762  -46.9259 O.2       2 UNK        -0.5000 
     62 CA         -0.6505  -11.3110  -48.0646 C.3       2 UNK         0.1400 
     63 CB         -1.5960  -10.7133  -49.1219 C.3       2 UNK        -0.1800 
     64 N           0.5556  -11.8015  -48.7435 N.am      2 UNK        -0.5000 
     65 C           1.4878  -12.6278  -48.2421 C.2       1 UNK         0.5000 
     66 O           1.4376  -13.0842  -47.0992 O.2       1 UNK        -0.5000 
     67 C          -1.6314  -23.2536  -47.1930 C.2       11 UNK         0.5000 
     68 O          -1.9403  -24.1241  -48.0076 O.2       11 UNK        -0.5000 
     69 N          -2.5254  -22.6492  -46.3965 N.am      12 UNK        -0.5000 
     70 CA         -3.9481  -22.9930  -46.3201 C.3       12 UNK         0.1400 
     71 CB         -4.6877  -22.0010  -45.4114 C.3       12 UNK        -0.1800 
     72 C          -4.1895  -24.4433  -45.8684 C.2       12 UNK         0.5000 
     73 O          -5.0638  -25.1102  -46.4210 O.2       12 UNK        -0.5000 
     74 N          -3.3899  -24.9150  -44.9045 N.am      13 UNK        -0.5000 
     75 CA         -3.4073  -26.2982  -44.4373 C.3       13 UNK         0.1400 
     76 CB         -2.7156  -26.3808  -43.0673 C.3       13 UNK        -0.1800 
     77 C          -2.7558  -27.2664  -45.4433 C.2       13 UNK         0.5000 
     78 O          -3.3229  -28.3234  -45.7222 O.2       13 UNK        -0.5000 
     79 N          -1.5692  -26.9034  -45.9474 N.am      14 UNK        -0.5000 
     80 CA         -0.7162  -27.7797  -46.7495 C.3       14 UNK         0.1400 
     81 CB          0.7341  -27.2770  -46.6732 C.3       14 UNK        -0.1800 
     82 C          -1.1440  -27.9196  -48.2202 C.2       14 UNK         0.5000 
     83 O          -1.0186  -29.0133  -48.7734 O.2       14 UNK        -0.5000 
     84 N          -1.5880  -26.8203  -48.8424 N.am      15 UNK        -0.5000 
     85 CA         -1.7571  -26.7165  -50.2950 C.3       15 UNK         0.1400 
     86 CB         -0.4795  -26.0985  -50.8957 C.3       15 UNK        -0.1800 
     87 C          -3.0125  -25.9249  -50.6983 C.2       15 UNK         0.5000 
     88 O          -3.0968  -25.4752  -51.8426 O.2       15 UNK        -0.5000 
     89 N          -3.9544  -25.7339  -49.7615 N.am      16 UNK        -0.5000 
     90 CA         -5.2016  -24.9730  -49.9240 C.3       16 UNK         0.1400 
     91 CB         -6.1736  -25.7261  -50.8566 C.3       16 UNK        -0.1800 
     92 C          -4.9641  -23.5085  -50.3576 C.2       16 UNK         0.5000 
     93 O          -5.7349  -22.9660  -51.1502 O.2       16 UNK        -0.5000 
     94 N          -3.8719  -22.9156  -49.8496 N.am      17 UNK        -0.5000 
     95 CA         -3.3612  -21.5772  -50.1604 C.3       17 UNK         0.1400 
     96 CB         -4.3160  -20.4821  -49.6457 C.3       17 UNK        -0.1800 
     97 C          -2.9778  -21.4486  -51.6486 C.2       17 UNK         0.5000 
     98 O          -3.3679  -20.4933  -52.3202 O.2       17 UNK        -0.5000 
     99 N          -2.2369  -22.4570  -52.1328 N.am      18 UNK        -0.5000 
    100 CA        -1.8038  -22.6624  -53.5189 C.3       18 UNK         0.1400 
    101 CB        -0.8472  -21.5389  -53.9708 C.3       18 UNK        -0.1800 
    102 C         -2.9888  -22.8757  -54.4848 C.2       18 UNK         0.5000 
    103 O         -2.9262  -22.4551  -55.6414 O.2       18 UNK        -0.5000 
    104 N         -4.0567  -23.5089  -53.9761 N.am      19 UNK        -0.5000 
    105 CA        -5.3505  -23.8346  -54.5930 C.3       19 UNK         0.1400 
    106 CB        -5.1693  -24.8179  -55.7637 C.3       19 UNK        -0.1800 
    107 C         -6.2084  -22.6234  -55.0175 C.2       19 UNK         0.5000 
    108 O         -7.4209  -22.6357  -54.8037 O.2       19 UNK        -0.5000 
    109 N         -5.5782  -21.6060  -55.6126 N.am      20 UNK        -0.5000 
    110 CA        -6.2010  -20.3819  -56.1153 C.3       20 UNK         0.1400 
    111 CB        -5.2814  -19.7825  -57.1917 C.3       20 UNK        -0.1800 
    112 C         -6.4896  -19.3378  -55.0193 C.2       20 UNK         0.5000 
    113 O         -7.1259  -18.3243  -55.3146 O.2       20 UNK        -0.5000 
    114 N         -5.9798  -19.5616  -53.7976 N.am      21 UNK        -0.5000 
    115 CA        -6.0713  -18.6797  -52.6257 C.3       21 UNK         0.1400 
    116 CB        -7.5273  -18.5840  -52.1254 C.3       21 UNK        -0.1800 
    117 C         -5.4172  -17.2991  -52.8471 C.2       21 UNK         0.5000 
    118 O         -5.8212  -16.3192  -52.2190 O.2       21 UNK        -0.5000 
    119 N         -4.4346  -17.2493  -53.7586 N.am      22 UNK        -0.5000 
    120 CA        -3.7927  -16.0338  -54.2874 C.3       22 UNK         0.1400 
    121 C         -4.7582  -15.0855  -55.0702 C.2       22 UNK         0.5000 
    122 N         -5.9224  -15.5413  -55.5218 N.am      22 UNK        -0.7600 
    123 O         -4.4373  -13.9245  -55.3099 O.2       22 UNK        -0.5000 
    124 C124       -2.9323  -15.2950  -53.2226 C.3       23 UNK        -0.0398 
    125 S125       -1.4454  -16.2417  -52.7478 S.3       23 UNK        -0.2404 
    126 C126       -1.9840  -17.0749  -51.2240 C.3       23 UNK        -0.0205 
    127 H127        2.8462   -9.0593  -51.2961 H         1 UNK         0.0600 
    128 H128        3.1178  -10.5062  -52.2715 H         1 UNK         0.0600 
    129 H129        4.4889   -9.6570  -51.5526 H         1 UNK         0.0600 
    130 H130        2.6073  -12.3786  -51.1743 H         1 UNK         0.3000 
    131 H131        3.5798  -12.9178  -48.5254 H         1 UNK         0.0600 
    132 H132        1.5737  -14.6965  -49.9861 H         1 UNK         0.0800 
    133 H133        3.2065  -14.5717  -50.5531 H         1 UNK         0.0800 
    134 H134        1.9357  -16.9992  -46.9276 H         1 UNK         0.0800 
    135 H135        1.0144  -15.6156  -47.4398 H         1 UNK         0.0800 
    136 H136       -0.5370  -15.8264  -49.2922 H         1 UNK         0.1150 
    137 H137       -0.7542  -19.5022  -51.4878 H         1 UNK         0.1150 
    138 H138        2.3244  -18.9279  -48.5556 H         1 UNK         0.1150 
    139 H139        1.4981  -20.8747  -51.4269 H         1 UNK         0.0800 
    140 H140        2.3942  -20.8695  -49.9313 H         1 UNK         0.0800 
    141 H141       -0.4769  -20.8231  -47.8059 H         1 UNK         0.0800 
    142 H142        1.2009  -21.2686  -47.6454 H         1 UNK         0.0800 
    143 H143        0.4454  -23.7086  -47.3741 H         1 UNK         0.0600 
    144 H144        0.5232  -21.6728  -45.4115 H         1 UNK         0.3000 
    145 H145        0.2507  -23.8671  -42.5702 H         1 UNK         0.0600 
    146 H146        2.3194  -22.6042  -42.0602 H         1 UNK         0.0600 
    147 H147        2.6235  -23.7824  -43.3280 H         1 UNK         0.0600 
    148 H148        2.4514  -22.0807  -43.7368 H         1 UNK         0.0600 
    149 H149        0.4018  -21.0301  -42.7286 H         1 UNK         0.3000 
    150 H150       -3.1390  -20.4126  -42.8552 H         1 UNK         0.0600 
    151 H151       -2.5205  -20.7924  -40.4571 H         1 UNK         0.0600 
    152 H152       -2.5455  -19.0832  -40.8626 H         1 UNK         0.0600 
    153 H153       -1.0072  -19.9290  -40.7083 H         1 UNK         0.0600 
    154 H154       -0.9647  -18.6014  -42.8096 H         1 UNK         0.3000 
    155 H155       -0.4463  -18.4190  -46.3755 H         1 UNK         0.0600 
    156 H156       -2.2674  -16.8485  -45.7998 H         1 UNK         0.0600 
    157 H157       -0.7209  -16.0156  -45.7399 H         1 UNK         0.0600 
    158 H158       -1.5222  -16.4955  -44.2470 H         1 UNK         0.0600 
    159 H159        0.9496  -17.1570  -44.2564 H         1 UNK         0.3000 
    160 H160        3.4075  -19.6989  -43.7052 H         1 UNK         0.0600 
    161 H161        3.5248  -16.9265  -45.0092 H         1 UNK         0.0600 
    162 H162        4.1920  -18.4079  -45.6749 H         1 UNK         0.0600 
    163 H163        4.8619  -17.7370  -44.1951 H         1 UNK         0.0600 
    164 H164        2.8490  -17.0786  -42.6080 H         1 UNK         0.3000 
    165 H165        0.9475  -18.2494  -39.8198 H         1 UNK         0.0600 
    166 H166        2.7429  -17.0542  -38.6026 H         1 UNK         0.0600 
    167 H167        3.3416  -18.5957  -39.1941 H         1 UNK         0.0600 
    168 H168        3.7872  -17.1088  -40.0228 H         1 UNK         0.0600 
    169 H169        1.8617  -15.6489  -40.5989 H         1 UNK         0.3000 
    170 H170       -0.9387  -14.7829  -42.6230 H         1 UNK         0.0600 
    171 H171       -1.7637  -14.5076  -40.2768 H         1 UNK         0.0600 
    172 H172       -0.1936  -13.8761  -39.7934 H         1 UNK         0.0600 
    173 H173       -1.1906  -12.9882  -40.9459 H         1 UNK         0.0600 
    174 H174        1.0940  -13.0860  -41.8578 H         1 UNK         0.3000 
    175 H175        3.3045  -12.9762  -42.7806 H         1 UNK         0.0600 
    176 H176        3.4794  -14.3252  -45.5314 H         1 UNK         0.0600 
    177 H177        4.6646  -13.2133  -44.8509 H         1 UNK         0.0600 
    178 H178        4.3990  -14.7781  -44.0996 H         1 UNK         0.0600 
    179 H179        2.1825  -12.3027  -45.4007 H         1 UNK         0.3000 
    180 H180        0.0653   -9.7144  -44.2070 H         1 UNK         0.0600 
    181 H181        2.7353   -9.3817  -45.7005 H         1 UNK         0.0600 
    182 H182        2.3214   -8.5532  -44.2033 H         1 UNK         0.0600 
    183 H183        1.4142   -8.2156  -45.6654 H         1 UNK         0.0600 
    184 H184        0.7249  -11.7737  -46.0588 H         1 UNK         0.3000 
    185 H185       -1.1568  -12.1699  -47.6191 H         1 UNK         0.0600 
    186 H186       -2.5288  -10.3760  -48.6681 H         1 UNK         0.0600 
    187 H187       -1.1461   -9.8570  -49.6260 H         1 UNK         0.0600 
    188 H188       -1.8561  -11.4514  -49.8810 H         1 UNK         0.0600 
    189 H189        0.7074  -11.4469  -49.6761 H         1 UNK         0.3000 
    190 H190       -2.2187  -21.8739  -45.8137 H         1 UNK         0.3000 
    191 H191       -4.3749  -22.8891  -47.3152 H         1 UNK         0.0600 
    192 H192       -4.5885  -20.9799  -45.7797 H         1 UNK         0.0600 
    193 H193       -5.7536  -22.2287  -45.3731 H         1 UNK         0.0600 
    194 H194       -4.3117  -22.0278  -44.3898 H         1 UNK         0.0600 
    195 H195       -2.7133  -24.2916  -44.4799 H         1 UNK         0.3000 
    196 H196       -4.4470  -26.6052  -44.3039 H         1 UNK         0.0600 
    197 H197       -2.7314  -27.4012  -42.6827 H         1 UNK         0.0600 
    198 H198       -3.2181  -25.7483  -42.3352 H         1 UNK         0.0600 
    199 H199       -1.6733  -26.0648  -43.1186 H         1 UNK         0.0600 
    200 H200       -1.1493  -26.0312  -45.6328 H         1 UNK         0.3000 
    201 H201       -0.7417  -28.7775  -46.3057 H         1 UNK         0.0600 
    202 H202        1.0895  -27.2535  -45.6429 H         1 UNK         0.0600 
    203 H203        0.8328  -26.2715  -47.0842 H         1 UNK         0.0600 
    204 H204        1.4056  -27.9286  -47.2337 H         1 UNK         0.0600 
    205 H205       -1.6688  -25.9465  -48.3269 H         1 UNK         0.3000 
    206 H206       -1.8919  -27.7088  -50.7294 H         1 UNK         0.0600 
    207 H207        0.3998  -26.6938  -50.6497 H         1 UNK         0.0600 
    208 H208       -0.5349  -26.0441  -51.9836 H         1 UNK         0.0600 
    209 H209       -0.3132  -25.0876  -50.5216 H         1 UNK         0.0600 
    210 H210       -3.7922  -26.1230  -48.8430 H         1 UNK         0.3000 
    211 H211       -5.6702  -24.9218  -48.9419 H         1 UNK         0.0600 
    212 H212       -5.7868  -25.8014  -51.8727 H         1 UNK         0.0600 
    213 H213       -7.1391  -25.2216  -50.9095 H         1 UNK         0.0600 
    214 H214       -6.3584  -26.7375  -50.4950 H         1 UNK         0.0600 
    215 H215       -3.2804  -23.4721  -49.2384 H         1 UNK         0.3000 
    216 H216       -2.4346  -21.4608  -49.6018 H         1 UNK         0.0600 
    217 H217       -3.9341  -19.4870  -49.8758 H         1 UNK         0.0600 
    218 H218       -4.4236  -20.5411  -48.5626 H         1 UNK         0.0600 
    219 H219       -5.3111  -20.5686  -50.0800 H         1 UNK         0.0600 
    220 H220       -2.0075  -23.2109  -51.5008 H         1 UNK         0.3000 
    221 H221       -1.2404  -23.5965  -53.5238 H         1 UNK         0.0600 
    222 H222       -1.3567  -20.5787  -54.0569 H         1 UNK         0.0600 
    223 H223       -0.0228  -21.4191  -53.2689 H         1 UNK         0.0600 
    224 H224       -0.4119  -21.7648  -54.9448 H         1 UNK         0.0600 
    225 H225       -3.9655  -23.8252  -53.0177 H         1 UNK         0.3000 
    226 H226       -5.9170  -24.3516  -53.8176 H         1 UNK         0.0600 
    227 H227       -4.6413  -25.7163  -55.4437 H         1 UNK         0.0600 
    228 H228       -6.1352  -25.1324  -56.1607 H         1 UNK         0.0600 
    229 H229       -4.6083  -24.3736  -56.5863 H         1 UNK         0.0600 
    230 H230       -4.5752  -21.7065  -55.7554 H         1 UNK         0.3000 
    231 H231       -7.1546  -20.6378  -56.5815 H         1 UNK         0.0600 
    232 H232       -4.3074  -19.5114  -56.7822 H         1 UNK         0.0600 
    233 H233       -5.7175  -18.8824  -57.6272 H         1 UNK         0.0600 
    234 H234       -5.1170  -20.4880  -58.0064 H         1 UNK         0.0600 
    235 H235       -5.4257  -20.3971  -53.6625 H         1 UNK         0.3000 
    236 H236       -5.4923  -19.1525  -51.8377 H         1 UNK         0.0600 
    237 H237       -7.9545  -19.5747  -51.9694 H         1 UNK         0.0600 
    238 H238       -7.5800  -18.0565  -51.1724 H         1 UNK         0.0600 
    239 H239       -8.1648  -18.0497  -52.8302 H         1 UNK         0.0600 
    240 H240       -4.1603  -18.1164  -54.1966 H         1 UNK         0.3000 
    241 H241       -3.1082  -16.3872  -55.0592 H         1 UNK         0.0600 
    242 H242       -6.5259  -14.9191  -56.0355 H         1 UNK         0.3800 
    243 H243       -6.2226  -16.4946  -55.3500 H         1 UNK         0.3800 
    244 H244       -2.5659  -14.3456  -53.6156 H         1 UNK         0.0800 
    245 H245       -3.5203  -15.0391  -52.3411 H         1 UNK         0.0800 
    246 H246       -2.5438  -16.3804  -50.5960 H         1 UNK         0.0800 
    247 H247       -2.6658  -17.8881  -51.4763 H         1 UNK         0.0800 
@<TRIPOS>BOND
     1    1    2 1    
     2    1  127 1    
     3    1  128 1    
     4    1  129 1    
     5    2    3 2    
     6    2    4 am   BACKBONE|DICT|INTERRES
     7    4    5 1    
     8    4  130 1    
     9    5    6 1    
    10    5   65 1    
    11    5  131 1    
    12    6    7 1    
    13    6  132 1    
    14    6  133 1    
    15    7    8 1    
    16    8    9 1    
    17    8  134 1    
    18    8  135 1    
    19    9   10 ar   
    20    9   14 ar   
    21   10   11 ar   
    22   10  136 1    
    23   11   12 ar   
    24   11  126 1    
    25   12   13 ar   
    26   12  137 1    
    27   13   14 ar   
    28   13   15 1    
    29   14  138 1    
    30   15   16 1    
    31   15  139 1    
    32   15  140 1    
    33   16   17 1    
    34   17   18 1    
    35   17  141 1    
    36   17  142 1    
    37   18   19 1    
    38   18   67 1    
    39   18  143 1    
    40   19   20 am   BACKBONE|DICT|INTERRES
    41   19  144 1    
    42   20   21 2    
    43   20   22 1    
    44   22   23 1    
    45   22   24 1    
    46   22  145 1    
    47   23  146 1    
    48   23  147 1    
    49   23  148 1    
    50   24   25 am   BACKBONE|DICT|INTERRES
    51   24  149 1    
    52   25   26 2    
    53   25   27 1    
    54   27   28 1    
    55   27   29 1    
    56   27  150 1    
    57   28  151 1    
    58   28  152 1    
    59   28  153 1    
    60   29   30 am   BACKBONE|DICT|INTERRES
    61   29  154 1    
    62   30   31 2    
    63   30   32 1    
    64   32   33 1    
    65   32   34 1    
    66   32  155 1    
    67   33  156 1    
    68   33  157 1    
    69   33  158 1    
    70   34   35 am   BACKBONE|DICT|INTERRES
    71   34  159 1    
    72   35   36 2    
    73   35   37 1    
    74   37   38 1    
    75   37   39 1    
    76   37  160 1    
    77   38  161 1    
    78   38  162 1    
    79   38  163 1    
    80   39   40 am   BACKBONE|DICT|INTERRES
    81   39  164 1    
    82   40   41 2    
    83   40   42 1    
    84   42   43 1    
    85   42   44 1    
    86   42  165 1    
    87   43  166 1    
    88   43  167 1    
    89   43  168 1    
    90   44   45 am   BACKBONE|DICT|INTERRES
    91   44  169 1    
    92   45   46 2    
    93   45   47 1    
    94   47   48 1    
    95   47   49 1    
    96   47  170 1    
    97   48  171 1    
    98   48  172 1    
    99   48  173 1    
   100   49   50 am   BACKBONE|DICT|INTERRES
   101   49  174 1    
   102   50   51 2    
   103   50   52 1    
   104   52   53 1    
   105   52   54 1    
   106   52  175 1    
   107   53  176 1    
   108   53  177 1    
   109   53  178 1    
   110   54   55 am   BACKBONE|DICT|INTERRES
   111   54  179 1    
   112   55   56 2    
   113   55   57 1    
   114   57   58 1    
   115   57   59 1    
   116   57  180 1    
   117   58  181 1    
   118   58  182 1    
   119   58  183 1    
   120   59   60 am   BACKBONE|DICT|INTERRES
   121   59  184 1    
   122   60   61 2    
   123   60   62 1    
   124   62   63 1    
   125   62   64 1    
   126   62  185 1    
   127   63  186 1    
   128   63  187 1    
   129   63  188 1    
   130   64   65 am   BACKBONE|DICT|INTERRES
   131   64  189 1    
   132   65   66 2    
   133   67   68 2    
   134   67   69 am   BACKBONE|DICT|INTERRES
   135   69   70 1    
   136   69  190 1    
   137   70   71 1    
   138   70   72 1    
   139   70  191 1    
   140   71  192 1    
   141   71  193 1    
   142   71  194 1    
   143   72   73 2    
   144   72   74 am   BACKBONE|DICT|INTERRES
   145   74   75 1    
   146   74  195 1    
   147   75   76 1    
   148   75   77 1    
   149   75  196 1    
   150   76  197 1    
   151   76  198 1    
   152   76  199 1    
   153   77   78 2    
   154   77   79 am   BACKBONE|DICT|INTERRES
   155   79   80 1    
   156   79  200 1    
   157   80   81 1    
   158   80   82 1    
   159   80  201 1    
   160   81  202 1    
   161   81  203 1    
   162   81  204 1    
   163   82   83 2    
   164   82   84 am   BACKBONE|DICT|INTERRES
   165   84   85 1    
   166   84  205 1    
   167   85   86 1    
   168   85   87 1    
   169   85  206 1    
   170   86  207 1    
   171   86  208 1    
   172   86  209 1    
   173   87   88 2    
   174   87   89 am   BACKBONE|DICT|INTERRES
   175   89   90 1    
   176   89  210 1    
   177   90   91 1    
   178   90   92 1    
   179   90  211 1    
   180   91  212 1    
   181   91  213 1    
   182   91  214 1    
   183   92   93 2    
   184   92   94 am   BACKBONE|DICT|INTERRES
   185   94   95 1    
   186   94  215 1    
   187   95   96 1    
   188   95   97 1    
   189   95  216 1    
   190   96  217 1    
   191   96  218 1    
   192   96  219 1    
   193   97   98 2    
   194   97   99 am   BACKBONE|DICT|INTERRES
   195   99  100 1    
   196   99  220 1    
   197  100  101 1    
   198  100  102 1    
   199  100  221 1    
   200  101  222 1    
   201  101  223 1    
   202  101  224 1    
   203  102  103 2    
   204  102  104 am   BACKBONE|DICT|INTERRES
   205  104  105 1    
   206  104  225 1    
   207  105  106 1    
   208  105  107 1    
   209  105  226 1    
   210  106  227 1    
   211  106  228 1    
   212  106  229 1    
   213  107  108 2    
   214  107  109 am   BACKBONE|DICT|INTERRES
   215  109  110 1    
   216  109  230 1    
   217  110  111 1    
   218  110  112 1    
   219  110  231 1    
   220  111  232 1    
   221  111  233 1    
   222  111  234 1    
   223  112  113 2    
   224  112  114 am   BACKBONE|DICT|INTERRES
   225  114  115 1    
   226  114  235 1    
   227  115  116 1    
   228  115  117 1    
   229  115  236 1    
   230  116  237 1    
   231  116  238 1    
   232  116  239 1    
   233  117  118 2    
   234  117  119 am   BACKBONE|DICT|INTERRES
   235  119  120 1    
   236  119  240 1    
   237  120  121 1    
   238  120  124 1    
   239  120  241 1    
   240  121  122 am   BACKBONE|DICT|INTERRES
   241  121  123 2    
   242  122  242 1    
   243  122  243 1    
   244  124  125 1    
   245  124  244 1    
   246  124  245 1    
   247  125  126 1    
   248  126  246 1    
   249  126  247 1    
@<TRIPOS>SUBSTRUCTURE
     1 UNK         1 GROUP             0       ****    0 ROOT    
