@<TRIPOS>MOLECULE
3R540
247   249    1
SMALL
USER_CHARGES


@<TRIPOS>ATOM
      1 CA         -2.0279  -14.2822  -45.4419 C.3       0 UNK        -0.1800 
      2 C          -1.3097  -13.1100  -46.0965 C.2       0 UNK         0.5000 
      3 O          -1.3693  -11.9921  -45.5848 O.2       0 UNK        -0.5000 
      4 N          -0.6074  -13.3663  -47.2090 N.am      1 UNK        -0.5000 
      5 CA          0.1093  -12.3760  -48.0305 C.3       1 UNK         0.1400 
      6 C6          0.6639  -13.0138  -49.3284 C.3       23 UNK        -0.0398 
      7 S7         -0.6647  -13.6157  -50.4248 S.3       23 UNK        -0.2404 
      8 C8          0.2601  -14.6998  -51.5582 C.3       23 UNK        -0.0205 
      9 C9          0.1587  -16.1613  -51.1487 C.ar      23 UNK        -0.0193 
     10 C10        -0.9004  -16.9448  -51.6214 C.ar      23 UNK        -0.1150 
     11 C11        -1.0016  -18.2919  -51.2631 C.ar      23 UNK        -0.0193 
     12 C12        -0.0350  -18.8517  -50.4270 C.ar      23 UNK        -0.1150 
     13 C13         1.0168  -18.0777  -49.9326 C.ar      23 UNK        -0.0193 
     14 C14         1.1168  -16.7335  -50.3046 C.ar      23 UNK        -0.1150 
     15 C15         2.0174  -18.6997  -48.9700 C.3       23 UNK        -0.0205 
     16 S16         1.7560  -18.1881  -47.2374 S.3       23 UNK        -0.2404 
     17 C17        -0.0531  -18.3239  -47.0065 C.3       23 UNK        -0.0398 
     18 CA         -0.5523  -19.7692  -46.7938 C.3       11 UNK         0.1400 
     19 N          -0.0378  -20.3697  -45.5569 N.am      11 UNK        -0.5000 
     20 C          -0.2348  -21.6442  -45.1877 C.2       10 UNK         0.5000 
     21 O          -0.8585  -22.4550  -45.8767 O.2       10 UNK        -0.5000 
     22 CA          0.2962  -22.0548  -43.7991 C.3       10 UNK         0.1400 
     23 CB          0.3977  -23.5831  -43.6130 C.3       10 UNK        -0.1800 
     24 N           1.5490  -21.3872  -43.4383 N.am      10 UNK        -0.5000 
     25 C           2.7521  -21.5305  -44.0143 C.2       9 UNK         0.5000 
     26 O           2.9746  -22.2962  -44.9529 O.2       9 UNK        -0.5000 
     27 CA          3.9124  -20.6761  -43.4575 C.3       9 UNK         0.1400 
     28 CB          4.4192  -19.6958  -44.5270 C.3       9 UNK        -0.1800 
     29 N           3.5663  -19.9229  -42.2478 N.am      9 UNK        -0.5000 
     30 C           3.4578  -20.4447  -41.0179 C.2       8 UNK         0.5000 
     31 O           3.7001  -21.6226  -40.7535 O.2       8 UNK        -0.5000 
     32 CA          2.9574  -19.5041  -39.9027 C.3       8 UNK         0.1400 
     33 CB          4.1316  -18.7504  -39.2604 C.3       8 UNK        -0.1800 
     34 N           1.9538  -18.5406  -40.3645 N.am      8 UNK        -0.5000 
     35 C           0.7340  -18.8645  -40.8200 C.2       7 UNK         0.5000 
     36 O           0.3052  -20.0174  -40.8668 O.2       7 UNK        -0.5000 
     37 CA         -0.1222  -17.7169  -41.3900 C.3       7 UNK         0.1400 
     38 CB         -0.7844  -16.9040  -40.2684 C.3       7 UNK        -0.1800 
     39 N           0.6559  -16.8304  -42.2562 N.am      7 UNK        -0.5000 
     40 C           1.2416  -17.2216  -43.3959 C.2       6 UNK         0.5000 
     41 O           1.1045  -18.3467  -43.8751 O.2       6 UNK        -0.5000 
     42 CA          2.1734  -16.2127  -44.0869 C.3       6 UNK         0.1400 
     43 CB          1.4039  -15.2815  -45.0290 C.3       6 UNK        -0.1800 
     44 N           2.9341  -15.4152  -43.1276 N.am      6 UNK        -0.5000 
     45 C           3.9583  -15.8850  -42.4043 C.2       5 UNK         0.5000 
     46 O           4.4015  -17.0275  -42.5092 O.2       5 UNK        -0.5000 
     47 CA          4.5513  -14.9307  -41.3534 C.3       5 UNK         0.1400 
     48 CB          5.6262  -14.0292  -41.9776 C.3       5 UNK        -0.1800 
     49 N           3.5217  -14.1069  -40.7161 N.am      5 UNK        -0.5000 
     50 C           2.6034  -14.5937  -39.8686 C.2       4 UNK         0.5000 
     51 O           2.5570  -15.7748  -39.5244 O.2       4 UNK        -0.5000 
     52 CA          1.5326  -13.6165  -39.3476 C.3       4 UNK         0.1400 
     53 CB          2.0093  -12.9375  -38.0554 C.3       4 UNK        -0.1800 
     54 N           1.1416  -12.5894  -40.3154 N.am      4 UNK        -0.5000 
     55 C           0.5922  -12.8233  -41.5150 C.2       3 UNK         0.5000 
     56 O           0.3773  -13.9546  -41.9528 O.2       3 UNK        -0.5000 
     57 CA          0.2427  -11.6012  -42.3912 C.3       3 UNK         0.1400 
     58 CB          0.4463  -10.2386  -41.6912 C.3       3 UNK        -0.1800 
     59 N           0.9546  -11.6214  -43.6726 N.am      3 UNK        -0.5000 
     60 C           2.2828  -11.6866  -43.8606 C.2       2 UNK         0.5000 
     61 O           3.0951  -11.7708  -42.9379 O.2       2 UNK        -0.5000 
     62 CA          2.7829  -11.6795  -45.3196 C.3       2 UNK         0.1400 
     63 CB          4.0997  -12.4598  -45.4907 C.3       2 UNK        -0.1800 
     64 N           1.7732  -12.2382  -46.2202 N.am      2 UNK        -0.5000 
     65 C           1.2341  -11.6237  -47.2794 C.2       1 UNK         0.5000 
     66 O           1.5745  -10.5053  -47.6671 O.2       1 UNK        -0.5000 
     67 C          -2.0939  -19.7914  -46.8598 C.2       11 UNK         0.5000 
     68 O          -2.6466  -19.9233  -47.9494 O.2       11 UNK        -0.5000 
     69 N          -2.7608  -19.6955  -45.6998 N.am      12 UNK        -0.5000 
     70 CA         -4.2162  -19.7851  -45.5710 C.3       12 UNK         0.1400 
     71 CB         -4.6209  -19.4196  -44.1353 C.3       12 UNK        -0.1800 
     72 C          -4.7655  -21.1718  -45.9574 C.2       12 UNK         0.5000 
     73 O          -5.8067  -21.2522  -46.6087 O.2       12 UNK        -0.5000 
     74 N          -4.0370  -22.2355  -45.5883 N.am      13 UNK        -0.5000 
     75 CA         -4.3553  -23.6147  -45.9607 C.3       13 UNK         0.1400 
     76 CB         -3.5455  -24.5904  -45.0939 C.3       13 UNK        -0.1800 
     77 C          -4.1054  -23.8672  -47.4566 C.2       13 UNK         0.5000 
     78 O          -4.9242  -24.5149  -48.1094 O.2       13 UNK        -0.5000 
     79 N          -3.0088  -23.3039  -47.9841 N.am      14 UNK        -0.5000 
     80 CA         -2.6827  -23.3185  -49.4103 C.3       14 UNK         0.1400 
     81 CB         -1.2775  -22.7423  -49.6291 C.3       14 UNK        -0.1800 
     82 C          -3.7259  -22.5716  -50.2619 C.2       14 UNK         0.5000 
     83 O          -4.0950  -23.0648  -51.3243 O.2       14 UNK        -0.5000 
     84 N          -4.2183  -21.4280  -49.7661 N.am      15 UNK        -0.5000 
     85 CA         -5.2729  -20.6330  -50.3969 C.3       15 UNK         0.1400 
     86 CB         -5.3741  -19.2656  -49.7034 C.3       15 UNK        -0.1800 
     87 C          -6.6362  -21.3457  -50.3893 C.2       15 UNK         0.5000 
     88 O          -7.3682  -21.2552  -51.3747 O.2       15 UNK        -0.5000 
     89 N          -6.9424  -22.0575  -49.2944 N.am      16 UNK        -0.5000 
     90 CA         -8.1431  -22.8826  -49.1523 C.3       16 UNK         0.1400 
     91 CB         -8.3002  -23.3226  -47.6889 C.3       16 UNK        -0.1800 
     92 C          -8.1364  -24.0990  -50.0969 C.2       16 UNK         0.5000 
     93 O          -9.1703  -24.4117  -50.6888 O.2       16 UNK        -0.5000 
     94 N          -6.9701  -24.7447  -50.2419 N.am      17 UNK        -0.5000 
     95 CA         -6.7375  -25.8257  -51.2021 C.3       17 UNK         0.1400 
     96 CB         -5.4170  -26.5317  -50.8579 C.3       17 UNK        -0.1800 
     97 C          -6.7165  -25.3278  -52.6607 C.2       17 UNK         0.5000 
     98 O          -7.1616  -26.0463  -53.5569 O.2       17 UNK        -0.5000 
     99 N          -6.1852  -24.1145  -52.8640 N.am      18 UNK        -0.5000 
    100 CA        -5.9863  -23.3583  -54.1040 C.3       18 UNK         0.1400 
    101 CB        -7.3146  -23.1114  -54.8431 C.3       18 UNK        -0.1800 
    102 C         -4.9233  -23.9641  -55.0368 C.2       18 UNK         0.5000 
    103 O         -4.0475  -23.2359  -55.5121 O.2       18 UNK        -0.5000 
    104 N         -5.0347  -25.2759  -55.2954 N.am      19 UNK        -0.5000 
    105 CA        -4.1226  -26.1520  -56.0454 C.3       19 UNK         0.1400 
    106 CB        -2.8085  -26.3198  -55.2554 C.3       19 UNK        -0.1800 
    107 C         -3.8574  -25.7293  -57.5085 C.2       19 UNK         0.5000 
    108 O         -2.9007  -26.2140  -58.1146 O.2       19 UNK        -0.5000 
    109 N         -4.6787  -24.8051  -58.0322 N.am      20 UNK        -0.5000 
    110 CA        -4.4849  -24.0339  -59.2676 C.3       20 UNK         0.1400 
    111 CB        -4.5770  -24.9457  -60.5089 C.3       20 UNK        -0.1800 
    112 C         -3.1991  -23.1700  -59.2521 C.2       20 UNK         0.5000 
    113 O         -2.7013  -22.7968  -60.3159 O.2       20 UNK        -0.5000 
    114 N         -2.6842  -22.8733  -58.0506 N.am      21 UNK        -0.5000 
    115 CA        -1.4326  -22.1600  -57.8148 C.3       21 UNK         0.1400 
    116 CB        -0.5703  -22.9781  -56.8395 C.3       21 UNK        -0.1800 
    117 C         -1.6916  -20.7568  -57.2505 C.2       21 UNK         0.5000 
    118 O         -1.0541  -19.8024  -57.6983 O.2       21 UNK        -0.5000 
    119 N         -2.6170  -20.6471  -56.2891 N.am      22 UNK        -0.5000 
    120 CA        -2.9391  -19.3890  -55.5950 C.3       22 UNK         0.1400 
    121 C         -4.4083  -19.3013  -55.0903 C.2       22 UNK         0.5000 
    122 N         -5.3182  -20.1447  -55.5621 N.am      22 UNK        -0.7600 
    123 O         -4.7426  -18.4376  -54.2842 O.2       22 UNK        -0.5000 
    124 C124       -1.8728  -19.0054  -54.5305 C.3       23 UNK        -0.0398 
    125 S125       -1.7358  -20.1963  -53.1514 S.3       23 UNK        -0.2404 
    126 C126       -2.1703  -19.1438  -51.7321 C.3       23 UNK        -0.0205 
    127 H127       -1.6721  -14.4175  -44.4201 H         1 UNK         0.0600 
    128 H128       -3.1004  -14.0913  -45.4070 H         1 UNK         0.0600 
    129 H129       -1.8659  -15.2135  -45.9852 H         1 UNK         0.0600 
    130 H130       -0.6189  -14.3016  -47.5898 H         1 UNK         0.3000 
    131 H131       -0.6216  -11.6162  -48.3157 H         1 UNK         0.0600 
    132 H132        1.2496  -12.2890  -49.8974 H         1 UNK         0.0800 
    133 H133        1.3390  -13.8372  -49.0893 H         1 UNK         0.0800 
    134 H134        1.3046  -14.3894  -51.6147 H         1 UNK         0.0800 
    135 H135       -0.1431  -14.5750  -52.5643 H         1 UNK         0.0800 
    136 H136       -1.6505  -16.5011  -52.2607 H         1 UNK         0.1150 
    137 H137       -0.1165  -19.8901  -50.1430 H         1 UNK         0.1150 
    138 H138        1.9305  -16.1326  -49.9238 H         1 UNK         0.1150 
    139 H139        1.9727  -19.7886  -49.0235 H         1 UNK         0.0800 
    140 H140        3.0292  -18.4243  -49.2703 H         1 UNK         0.0800 
    141 H141       -0.5565  -17.8472  -47.8483 H         1 UNK         0.0800 
    142 H142       -0.3296  -17.7247  -46.1399 H         1 UNK         0.0800 
    143 H143       -0.1889  -20.3788  -47.6223 H         1 UNK         0.0600 
    144 H144        0.4839  -19.7490  -44.9408 H         1 UNK         0.3000 
    145 H145       -0.4435  -21.6935  -43.0836 H         1 UNK         0.0600 
    146 H146        0.7863  -23.8352  -42.6263 H         1 UNK         0.0600 
    147 H147       -0.5820  -24.0528  -43.7034 H         1 UNK         0.0600 
    148 H148        1.0476  -24.0419  -44.3585 H         1 UNK         0.0600 
    149 H149        1.4718  -20.7113  -42.6889 H         1 UNK         0.3000 
    150 H150        4.7282  -21.3598  -43.2145 H         1 UNK         0.0600 
    151 H151        4.7552  -20.2259  -45.4189 H         1 UNK         0.0600 
    152 H152        5.2628  -19.1103  -44.1613 H         1 UNK         0.0600 
    153 H153        3.6368  -19.0039  -44.8362 H         1 UNK         0.0600 
    154 H154        3.4140  -18.9284  -42.3671 H         1 UNK         0.3000 
    155 H155        2.4922  -20.1242  -39.1338 H         1 UNK         0.0600 
    156 H156        4.6247  -18.0897  -39.9738 H         1 UNK         0.0600 
    157 H157        4.8825  -19.4452  -38.8822 H         1 UNK         0.0600 
    158 H158        3.7970  -18.1432  -38.4191 H         1 UNK         0.0600 
    159 H159        2.2108  -17.5594  -40.3120 H         1 UNK         0.3000 
    160 H160       -0.9141  -18.1605  -41.9972 H         1 UNK         0.0600 
    161 H161       -1.3896  -16.0923  -40.6729 H         1 UNK         0.0600 
    162 H162       -0.0476  -16.4692  -39.5943 H         1 UNK         0.0600 
    163 H163       -1.4420  -17.5347  -39.6692 H         1 UNK         0.0600 
    164 H164        0.7484  -15.8613  -41.9667 H         1 UNK         0.3000 
    165 H165        2.8761  -16.7865  -44.6934 H         1 UNK         0.0600 
    166 H166        2.0874  -14.8294  -45.7447 H         1 UNK         0.0600 
    167 H167        0.6578  -15.8188  -45.6092 H         1 UNK         0.0600 
    168 H168        0.8859  -14.4938  -44.4847 H         1 UNK         0.0600 
    169 H169        2.5915  -14.4870  -42.9249 H         1 UNK         0.3000 
    170 H170        5.0284  -15.5397  -40.5824 H         1 UNK         0.0600 
    171 H171        6.4248  -14.6259  -42.4202 H         1 UNK         0.0600 
    172 H172        5.2174  -13.3961  -42.7646 H         1 UNK         0.0600 
    173 H173        6.0814  -13.3812  -41.2285 H         1 UNK         0.0600 
    174 H174        3.4708  -13.1354  -40.9954 H         1 UNK         0.3000 
    175 H175        0.6413  -14.2013  -39.1137 H         1 UNK         0.0600 
    176 H176        1.2249  -12.3160  -37.6230 H         1 UNK         0.0600 
    177 H177        2.2858  -13.6784  -37.3040 H         1 UNK         0.0600 
    178 H178        2.8813  -12.3060  -38.2305 H         1 UNK         0.0600 
    179 H179        1.3080  -11.6308  -40.0459 H         1 UNK         0.3000 
    180 H180       -0.8180  -11.6957  -42.6281 H         1 UNK         0.0600 
    181 H181        1.4907  -10.0573  -41.4344 H         1 UNK         0.0600 
    182 H182       -0.1426  -10.1715  -40.7755 H         1 UNK         0.0600 
    183 H183        0.1223   -9.4216  -42.3360 H         1 UNK         0.0600 
    184 H184        0.3542  -11.5888  -44.4897 H         1 UNK         0.3000 
    185 H185        2.9752  -10.6343  -45.5687 H         1 UNK         0.0600 
    186 H186        4.0045  -13.4955  -45.1646 H         1 UNK         0.0600 
    187 H187        4.4214  -12.4647  -46.5322 H         1 UNK         0.0600 
    188 H188        4.9024  -12.0054  -44.9089 H         1 UNK         0.0600 
    189 H189        1.4145  -13.1493  -45.9747 H         1 UNK         0.3000 
    190 H190       -2.2320  -19.5835  -44.8477 H         1 UNK         0.3000 
    191 H191       -4.6602  -19.0524  -46.2482 H         1 UNK         0.0600 
    192 H192       -4.1829  -20.1015  -43.4054 H         1 UNK         0.0600 
    193 H193       -5.7042  -19.4600  -44.0137 H         1 UNK         0.0600 
    194 H194       -4.3043  -18.4076  -43.8819 H         1 UNK         0.0600 
    195 H195       -3.1637  -22.0863  -45.1049 H         1 UNK         0.3000 
    196 H196       -5.4154  -23.7872  -45.7629 H         1 UNK         0.0600 
    197 H197       -3.8215  -25.6225  -45.3130 H         1 UNK         0.0600 
    198 H198       -3.7290  -24.4230  -44.0326 H         1 UNK         0.0600 
    199 H199       -2.4739  -24.4965  -45.2693 H         1 UNK         0.0600 
    200 H200       -2.3679  -22.8176  -47.3678 H         1 UNK         0.3000 
    201 H201       -2.6745  -24.3603  -49.7377 H         1 UNK         0.0600 
    202 H202       -0.5266  -23.3089  -49.0782 H         1 UNK         0.0600 
    203 H203       -1.2189  -21.7057  -49.3050 H         1 UNK         0.0600 
    204 H204       -1.0032  -22.7711  -50.6845 H         1 UNK         0.0600 
    205 H205       -3.8023  -21.0425  -48.9224 H         1 UNK         0.3000 
    206 H206       -4.9911  -20.4663  -51.4391 H         1 UNK         0.0600 
    207 H207       -4.4310  -18.7219  -49.7541 H         1 UNK         0.0600 
    208 H208       -6.1329  -18.6431  -50.1789 H         1 UNK         0.0600 
    209 H209       -5.6431  -19.3667  -48.6518 H         1 UNK         0.0600 
    210 H210       -6.3135  -22.0265  -48.4999 H         1 UNK         0.3000 
    211 H211       -9.0056  -22.2653  -49.4123 H         1 UNK         0.0600 
    212 H212       -7.4602  -23.9325  -47.3568 H         1 UNK         0.0600 
    213 H213       -9.2074  -23.9130  -47.5547 H         1 UNK         0.0600 
    214 H214       -8.3712  -22.4615  -47.0241 H         1 UNK         0.0600 
    215 H215       -6.1835  -24.4691  -49.6617 H         1 UNK         0.3000 
    216 H216       -7.5482  -26.5511  -51.1074 H         1 UNK         0.0600 
    217 H217       -5.2254  -27.3589  -51.5425 H         1 UNK         0.0600 
    218 H218       -5.4417  -26.9424  -49.8484 H         1 UNK         0.0600 
    219 H219       -4.5679  -25.8500  -50.9197 H         1 UNK         0.0600 
    220 H220       -5.7352  -23.6818  -52.0623 H         1 UNK         0.3000 
    221 H221       -5.6027  -22.3876  -53.7861 H         1 UNK         0.0600 
    222 H222       -7.7714  -24.0378  -55.1914 H         1 UNK         0.0600 
    223 H223       -8.0322  -22.6072  -54.1955 H         1 UNK         0.0600 
    224 H224       -7.1634  -22.4773  -55.7170 H         1 UNK         0.0600 
    225 H225       -5.8214  -25.7463  -54.8537 H         1 UNK         0.3000 
    226 H226       -4.6094  -27.1267  -56.0959 H         1 UNK         0.0600 
    227 H227       -2.2422  -25.3887  -55.2143 H         1 UNK         0.0600 
    228 H228       -2.1659  -27.0743  -55.7106 H         1 UNK         0.0600 
    229 H229       -3.0026  -26.6384  -54.2311 H         1 UNK         0.0600 
    230 H230       -5.4367  -24.4920  -57.4429 H         1 UNK         0.3000 
    231 H231       -5.3162  -23.3293  -59.3163 H         1 UNK         0.0600 
    232 H232       -5.4859  -25.5470  -60.4899 H         1 UNK         0.0600 
    233 H233       -3.7266  -25.6242  -60.5794 H         1 UNK         0.0600 
    234 H234       -4.5993  -24.3564  -61.4262 H         1 UNK         0.0600 
    235 H235       -3.1800  -23.1869  -57.2215 H         1 UNK         0.3000 
    236 H236       -0.8739  -22.0492  -58.7464 H         1 UNK         0.0600 
    237 H237       -0.3461  -23.9643  -57.2467 H         1 UNK         0.0600 
    238 H238        0.3808  -22.4803  -56.6463 H         1 UNK         0.0600 
    239 H239       -1.0686  -23.1199  -55.8793 H         1 UNK         0.0600 
    240 H240       -3.0766  -21.4795  -55.9354 H         1 UNK         0.3000 
    241 H241       -2.9068  -18.6013  -56.3501 H         1 UNK         0.0600 
    242 H242       -6.2705  -20.0561  -55.2463 H         1 UNK         0.3800 
    243 H243       -5.0808  -20.8228  -56.2667 H         1 UNK         0.3800 
    244 H244       -0.8919  -18.9318  -55.0010 H         1 UNK         0.0800 
    245 H245       -2.0764  -18.0064  -54.1443 H         1 UNK         0.0800 
    246 H246       -2.4735  -19.7875  -50.9088 H         1 UNK         0.0800 
    247 H247       -3.0375  -18.5262  -51.9706 H         1 UNK         0.0800 
@<TRIPOS>BOND
     1    1    2 1    
     2    1  127 1    
     3    1  128 1    
     4    1  129 1    
     5    2    3 2    
     6    2    4 am   BACKBONE|DICT|INTERRES
     7    4    5 1    
     8    4  130 1    
     9    5    6 1    
    10    5   65 1    
    11    5  131 1    
    12    6    7 1    
    13    6  132 1    
    14    6  133 1    
    15    7    8 1    
    16    8    9 1    
    17    8  134 1    
    18    8  135 1    
    19    9   10 ar   
    20    9   14 ar   
    21   10   11 ar   
    22   10  136 1    
    23   11   12 ar   
    24   11  126 1    
    25   12   13 ar   
    26   12  137 1    
    27   13   14 ar   
    28   13   15 1    
    29   14  138 1    
    30   15   16 1    
    31   15  139 1    
    32   15  140 1    
    33   16   17 1    
    34   17   18 1    
    35   17  141 1    
    36   17  142 1    
    37   18   19 1    
    38   18   67 1    
    39   18  143 1    
    40   19   20 am   BACKBONE|DICT|INTERRES
    41   19  144 1    
    42   20   21 2    
    43   20   22 1    
    44   22   23 1    
    45   22   24 1    
    46   22  145 1    
    47   23  146 1    
    48   23  147 1    
    49   23  148 1    
    50   24   25 am   BACKBONE|DICT|INTERRES
    51   24  149 1    
    52   25   26 2    
    53   25   27 1    
    54   27   28 1    
    55   27   29 1    
    56   27  150 1    
    57   28  151 1    
    58   28  152 1    
    59   28  153 1    
    60   29   30 am   BACKBONE|DICT|INTERRES
    61   29  154 1    
    62   30   31 2    
    63   30   32 1    
    64   32   33 1    
    65   32   34 1    
    66   32  155 1    
    67   33  156 1    
    68   33  157 1    
    69   33  158 1    
    70   34   35 am   BACKBONE|DICT|INTERRES
    71   34  159 1    
    72   35   36 2    
    73   35   37 1    
    74   37   38 1    
    75   37   39 1    
    76   37  160 1    
    77   38  161 1    
    78   38  162 1    
    79   38  163 1    
    80   39   40 am   BACKBONE|DICT|INTERRES
    81   39  164 1    
    82   40   41 2    
    83   40   42 1    
    84   42   43 1    
    85   42   44 1    
    86   42  165 1    
    87   43  166 1    
    88   43  167 1    
    89   43  168 1    
    90   44   45 am   BACKBONE|DICT|INTERRES
    91   44  169 1    
    92   45   46 2    
    93   45   47 1    
    94   47   48 1    
    95   47   49 1    
    96   47  170 1    
    97   48  171 1    
    98   48  172 1    
    99   48  173 1    
   100   49   50 am   BACKBONE|DICT|INTERRES
   101   49  174 1    
   102   50   51 2    
   103   50   52 1    
   104   52   53 1    
   105   52   54 1    
   106   52  175 1    
   107   53  176 1    
   108   53  177 1    
   109   53  178 1    
   110   54   55 am   BACKBONE|DICT|INTERRES
   111   54  179 1    
   112   55   56 2    
   113   55   57 1    
   114   57   58 1    
   115   57   59 1    
   116   57  180 1    
   117   58  181 1    
   118   58  182 1    
   119   58  183 1    
   120   59   60 am   BACKBONE|DICT|INTERRES
   121   59  184 1    
   122   60   61 2    
   123   60   62 1    
   124   62   63 1    
   125   62   64 1    
   126   62  185 1    
   127   63  186 1    
   128   63  187 1    
   129   63  188 1    
   130   64   65 am   BACKBONE|DICT|INTERRES
   131   64  189 1    
   132   65   66 2    
   133   67   68 2    
   134   67   69 am   BACKBONE|DICT|INTERRES
   135   69   70 1    
   136   69  190 1    
   137   70   71 1    
   138   70   72 1    
   139   70  191 1    
   140   71  192 1    
   141   71  193 1    
   142   71  194 1    
   143   72   73 2    
   144   72   74 am   BACKBONE|DICT|INTERRES
   145   74   75 1    
   146   74  195 1    
   147   75   76 1    
   148   75   77 1    
   149   75  196 1    
   150   76  197 1    
   151   76  198 1    
   152   76  199 1    
   153   77   78 2    
   154   77   79 am   BACKBONE|DICT|INTERRES
   155   79   80 1    
   156   79  200 1    
   157   80   81 1    
   158   80   82 1    
   159   80  201 1    
   160   81  202 1    
   161   81  203 1    
   162   81  204 1    
   163   82   83 2    
   164   82   84 am   BACKBONE|DICT|INTERRES
   165   84   85 1    
   166   84  205 1    
   167   85   86 1    
   168   85   87 1    
   169   85  206 1    
   170   86  207 1    
   171   86  208 1    
   172   86  209 1    
   173   87   88 2    
   174   87   89 am   BACKBONE|DICT|INTERRES
   175   89   90 1    
   176   89  210 1    
   177   90   91 1    
   178   90   92 1    
   179   90  211 1    
   180   91  212 1    
   181   91  213 1    
   182   91  214 1    
   183   92   93 2    
   184   92   94 am   BACKBONE|DICT|INTERRES
   185   94   95 1    
   186   94  215 1    
   187   95   96 1    
   188   95   97 1    
   189   95  216 1    
   190   96  217 1    
   191   96  218 1    
   192   96  219 1    
   193   97   98 2    
   194   97   99 am   BACKBONE|DICT|INTERRES
   195   99  100 1    
   196   99  220 1    
   197  100  101 1    
   198  100  102 1    
   199  100  221 1    
   200  101  222 1    
   201  101  223 1    
   202  101  224 1    
   203  102  103 2    
   204  102  104 am   BACKBONE|DICT|INTERRES
   205  104  105 1    
   206  104  225 1    
   207  105  106 1    
   208  105  107 1    
   209  105  226 1    
   210  106  227 1    
   211  106  228 1    
   212  106  229 1    
   213  107  108 2    
   214  107  109 am   BACKBONE|DICT|INTERRES
   215  109  110 1    
   216  109  230 1    
   217  110  111 1    
   218  110  112 1    
   219  110  231 1    
   220  111  232 1    
   221  111  233 1    
   222  111  234 1    
   223  112  113 2    
   224  112  114 am   BACKBONE|DICT|INTERRES
   225  114  115 1    
   226  114  235 1    
   227  115  116 1    
   228  115  117 1    
   229  115  236 1    
   230  116  237 1    
   231  116  238 1    
   232  116  239 1    
   233  117  118 2    
   234  117  119 am   BACKBONE|DICT|INTERRES
   235  119  120 1    
   236  119  240 1    
   237  120  121 1    
   238  120  124 1    
   239  120  241 1    
   240  121  122 am   BACKBONE|DICT|INTERRES
   241  121  123 2    
   242  122  242 1    
   243  122  243 1    
   244  124  125 1    
   245  124  244 1    
   246  124  245 1    
   247  125  126 1    
   248  126  246 1    
   249  126  247 1    
@<TRIPOS>SUBSTRUCTURE
     1 UNK         1 GROUP             0       ****    0 ROOT    
