@<TRIPOS>MOLECULE
3R540
247   249    1
SMALL
USER_CHARGES


@<TRIPOS>ATOM
      1 CA         -1.9817  -15.6689  -43.7958 C.3       0 UNK        -0.1800 
      2 C          -2.8256  -15.0486  -44.8983 C.2       0 UNK         0.5000 
      3 O          -3.5531  -14.0879  -44.6510 O.2       0 UNK        -0.5000 
      4 N          -2.7302  -15.6063  -46.1120 N.am      1 UNK        -0.5000 
      5 CA         -3.5493  -15.2549  -47.2826 C.3       1 UNK         0.1400 
      6 C6         -3.3630  -16.2669  -48.4389 C.3       23 UNK        -0.0398 
      7 S7         -3.7149  -17.9785  -47.9193 S.3       23 UNK        -0.2404 
      8 C8         -3.6967  -18.8700  -49.5004 C.3       23 UNK        -0.0205 
      9 C9         -2.3304  -18.8255  -50.1646 C.ar      23 UNK        -0.0193 
     10 C10        -2.0848  -17.8999  -51.1793 C.ar      23 UNK        -0.1150 
     11 C11        -0.8515  -17.8651  -51.8310 C.ar      23 UNK        -0.0193 
     12 C12         0.1473  -18.7607  -51.4406 C.ar      23 UNK        -0.1150 
     13 C13        -0.0714  -19.6887  -50.4170 C.ar      23 UNK        -0.0193 
     14 C14        -1.3204  -19.7127  -49.7802 C.ar      23 UNK        -0.1150 
     15 C15         1.0803  -20.6219  -50.0402 C.3       23 UNK        -0.0205 
     16 S16         0.6121  -22.1696  -49.1949 S.3       23 UNK        -0.2404 
     17 C17         0.6623  -21.6289  -47.4530 C.3       23 UNK        -0.0398 
     18 CA         -0.1112  -22.5816  -46.5134 C.3       11 UNK         0.1400 
     19 N           0.3023  -22.4358  -45.1155 N.am      11 UNK        -0.5000 
     20 C          -0.0801  -23.2454  -44.1169 C.2       10 UNK         0.5000 
     21 O          -0.7862  -24.2407  -44.2760 O.2       10 UNK        -0.5000 
     22 CA          0.3426  -22.8394  -42.6936 C.3       10 UNK         0.1400 
     23 CB          1.7978  -23.2409  -42.4122 C.3       10 UNK        -0.1800 
     24 N           0.1641  -21.4063  -42.4571 N.am      10 UNK        -0.5000 
     25 C          -1.0243  -20.7857  -42.4666 C.2       9 UNK         0.5000 
     26 O          -2.0977  -21.3778  -42.5827 O.2       9 UNK        -0.5000 
     27 CA         -1.0102  -19.2472  -42.3913 C.3       9 UNK         0.1400 
     28 CB         -0.8973  -18.7637  -40.9387 C.3       9 UNK        -0.1800 
     29 N           0.0634  -18.6533  -43.1914 N.am      9 UNK        -0.5000 
     30 C           0.1442  -18.7229  -44.5274 C.2       8 UNK         0.5000 
     31 O          -0.7168  -19.2389  -45.2349 O.2       8 UNK        -0.5000 
     32 CA          1.4191  -18.1698  -45.1850 C.3       8 UNK         0.1400 
     33 CB          1.3207  -16.6551  -45.4206 C.3       8 UNK        -0.1800 
     34 N           2.6133  -18.4782  -44.3999 N.am      8 UNK        -0.5000 
     35 C           3.1285  -19.7090  -44.2715 C.2       7 UNK         0.5000 
     36 O           2.6718  -20.7008  -44.8394 O.2       7 UNK        -0.5000 
     37 CA          4.3256  -19.8616  -43.3155 C.3       7 UNK         0.1400 
     38 CB          5.6379  -19.5105  -44.0319 C.3       7 UNK        -0.1800 
     39 N           4.1915  -19.0343  -42.1152 N.am      7 UNK        -0.5000 
     40 C           3.2672  -19.2262  -41.1629 C.2       6 UNK         0.5000 
     41 O           2.4602  -20.1547  -41.1735 O.2       6 UNK        -0.5000 
     42 CA          3.1979  -18.1701  -40.0425 C.3       6 UNK         0.1400 
     43 CB          4.1745  -18.5188  -38.9098 C.3       6 UNK        -0.1800 
     44 N           3.4666  -16.8085  -40.5176 N.am      6 UNK        -0.5000 
     45 C           2.7208  -16.1634  -41.4239 C.2       5 UNK         0.5000 
     46 O           1.7198  -16.6520  -41.9530 O.2       5 UNK        -0.5000 
     47 CA          3.2271  -14.7808  -41.8677 C.3       5 UNK         0.1400 
     48 CB          4.3610  -14.9381  -42.8942 C.3       5 UNK        -0.1800 
     49 N           2.1632  -13.9920  -42.4830 N.am      5 UNK        -0.5000 
     50 C           1.1939  -13.3423  -41.8267 C.2       4 UNK         0.5000 
     51 O           1.1144  -13.3095  -40.5975 O.2       4 UNK        -0.5000 
     52 CA          0.1288  -12.6175  -42.6847 C.3       4 UNK         0.1400 
     53 CB         -0.2782  -11.2548  -42.0866 C.3       4 UNK        -0.1800 
     54 N           0.4821  -12.4835  -44.1082 N.am      4 UNK        -0.5000 
     55 C           1.4899  -11.7720  -44.6390 C.2       3 UNK         0.5000 
     56 O           2.2799  -11.0963  -43.9798 O.2       3 UNK        -0.5000 
     57 CA          1.6743  -11.8610  -46.1667 C.3       3 UNK         0.1400 
     58 CB          2.7758  -12.8780  -46.5057 C.3       3 UNK        -0.1800 
     59 N           0.4564  -12.2211  -46.9013 N.am      3 UNK        -0.5000 
     60 C          -0.5865  -11.3960  -47.0799 C.2       2 UNK         0.5000 
     61 O          -0.6638  -10.2728  -46.5818 O.2       2 UNK        -0.5000 
     62 CA         -1.7339  -11.9148  -47.9567 C.3       2 UNK         0.1400 
     63 CB         -1.3654  -11.8489  -49.4508 C.3       2 UNK        -0.1800 
     64 N          -2.1103  -13.2769  -47.5793 N.am      2 UNK        -0.5000 
     65 C          -3.3158  -13.8181  -47.7982 C.2       1 UNK         0.5000 
     66 O          -4.2308  -13.2324  -48.3791 O.2       1 UNK        -0.5000 
     67 C          -1.6378  -22.4428  -46.6881 C.2       11 UNK         0.5000 
     68 O          -2.2236  -23.2296  -47.4284 O.2       11 UNK        -0.5000 
     69 N          -2.2589  -21.4890  -45.9792 N.am      12 UNK        -0.5000 
     70 CA         -3.7078  -21.2771  -45.9451 C.3       12 UNK         0.1400 
     71 CB         -4.0340  -20.0356  -45.0960 C.3       12 UNK        -0.1800 
     72 C          -4.4718  -22.4976  -45.4021 C.2       12 UNK         0.5000 
     73 O          -5.4997  -22.8736  -45.9662 O.2       12 UNK        -0.5000 
     74 N          -3.9468  -23.0937  -44.3231 N.am      13 UNK        -0.5000 
     75 CA         -4.5003  -24.2840  -43.6828 C.3       13 UNK         0.1400 
     76 CB         -3.8594  -24.4589  -42.2970 C.3       13 UNK        -0.1800 
     77 C          -4.3221  -25.5537  -44.5349 C.2       13 UNK         0.5000 
     78 O          -5.2719  -26.3242  -44.6818 O.2       13 UNK        -0.5000 
     79 N          -3.1104  -25.7552  -45.0690 N.am      14 UNK        -0.5000 
     80 CA         -2.7396  -26.9422  -45.8404 C.3       14 UNK         0.1400 
     81 CB         -1.2090  -27.0809  -45.8308 C.3       14 UNK        -0.1800 
     82 C          -3.2540  -26.9286  -47.2911 C.2       14 UNK         0.5000 
     83 O          -3.4477  -28.0009  -47.8649 O.2       14 UNK        -0.5000 
     84 N          -3.4136  -25.7273  -47.8678 N.am      15 UNK        -0.5000 
     85 CA         -3.6479  -25.4446  -49.2901 C.3       15 UNK         0.1400 
     86 CB         -5.0262  -25.9649  -49.7467 C.3       15 UNK        -0.1800 
     87 C          -2.4800  -25.9367  -50.1752 C.2       15 UNK         0.5000 
     88 O          -2.7019  -26.4140  -51.2888 O.2       15 UNK        -0.5000 
     89 N          -1.2538  -25.8381  -49.6385 N.am      16 UNK        -0.5000 
     90 CA         -0.0344  -26.4388  -50.1852 C.3       16 UNK         0.1400 
     91 CB          1.0950  -26.3099  -49.1509 C.3       16 UNK        -0.1800 
     92 C           0.4016  -25.8551  -51.5403 C.2       16 UNK         0.5000 
     93 O           0.8275  -26.6065  -52.4185 O.2       16 UNK        -0.5000 
     94 N           0.2768  -24.5327  -51.6841 N.am      17 UNK        -0.5000 
     95 CA          0.6029  -23.7813  -52.8958 C.3       17 UNK         0.1400 
     96 CB          2.0975  -23.4067  -52.8972 C.3       17 UNK        -0.1800 
     97 C          -0.3364  -22.5714  -53.0444 C.2       17 UNK         0.5000 
     98 O           0.0605  -21.5384  -53.5853 O.2       17 UNK        -0.5000 
     99 N          -1.5724  -22.7233  -52.5504 N.am      18 UNK        -0.5000 
    100 CA        -2.6344  -21.7239  -52.5978 C.3       18 UNK         0.1400 
    101 CB        -3.6570  -22.0459  -51.4932 C.3       18 UNK        -0.1800 
    102 C         -3.2697  -21.6883  -53.9993 C.2       18 UNK         0.5000 
    103 O         -4.2870  -22.3433  -54.2360 O.2       18 UNK        -0.5000 
    104 N         -2.6207  -20.9641  -54.9180 N.am      19 UNK        -0.5000 
    105 CA        -3.0619  -20.7546  -56.2966 C.3       19 UNK         0.1400 
    106 CB        -1.9453  -20.0274  -57.0617 C.3       19 UNK        -0.1800 
    107 C         -4.3700  -19.9465  -56.3728 C.2       19 UNK         0.5000 
    108 O         -4.6519  -19.1444  -55.4806 O.2       19 UNK        -0.5000 
    109 N         -5.1232  -20.1200  -57.4667 N.am      20 UNK        -0.5000 
    110 CA        -6.4111  -19.4571  -57.7185 C.3       20 UNK         0.1400 
    111 CB        -7.0056  -20.0081  -59.0238 C.3       20 UNK        -0.1800 
    112 C         -6.3464  -17.9144  -57.7651 C.2       20 UNK         0.5000 
    113 O         -7.3677  -17.2562  -57.5647 O.2       20 UNK        -0.5000 
    114 N         -5.1483  -17.3697  -58.0107 N.am      21 UNK        -0.5000 
    115 CA        -4.8477  -15.9403  -57.9950 C.3       21 UNK         0.1400 
    116 CB        -3.5305  -15.7161  -58.7553 C.3       21 UNK        -0.1800 
    117 C         -4.7562  -15.3316  -56.5790 C.2       21 UNK         0.5000 
    118 O         -4.7682  -14.1043  -56.4682 O.2       21 UNK        -0.5000 
    119 N         -4.6408  -16.1621  -55.5327 N.am      22 UNK        -0.5000 
    120 CA        -4.4016  -15.7146  -54.1492 C.3       22 UNK         0.1400 
    121 C         -5.1046  -16.5508  -53.0440 C.2       22 UNK         0.5000 
    122 N         -5.5626  -17.7679  -53.2984 N.am      22 UNK        -0.7600 
    123 O         -5.2642  -16.0681  -51.9265 O.2       22 UNK        -0.5000 
    124 C124       -2.8929  -15.4858  -53.8591 C.3       23 UNK        -0.0398 
    125 S125       -1.8199  -16.9120  -54.2745 S.3       23 UNK        -0.2404 
    126 C126       -0.5800  -16.8535  -52.9380 C.3       23 UNK        -0.0205 
    127 H127       -2.3505  -15.3748  -42.8130 H         1 UNK         0.0600 
    128 H128       -2.0223  -16.7550  -43.8556 H         1 UNK         0.0600 
    129 H129       -0.9431  -15.3543  -43.8812 H         1 UNK         0.0600 
    130 H130       -2.1434  -16.4194  -46.2353 H         1 UNK         0.3000 
    131 H131       -4.5931  -15.3042  -46.9646 H         1 UNK         0.0600 
    132 H132       -2.3422  -16.2237  -48.8227 H         1 UNK         0.0800 
    133 H133       -4.0222  -16.0214  -49.2743 H         1 UNK         0.0800 
    134 H134       -4.4597  -18.4541  -50.1606 H         1 UNK         0.0800 
    135 H135       -3.9815  -19.9069  -49.3195 H         1 UNK         0.0800 
    136 H136       -2.8603  -17.2072  -51.4647 H         1 UNK         0.1150 
    137 H137        1.1070  -18.7365  -51.9377 H         1 UNK         0.1150 
    138 H138       -1.5225  -20.4176  -48.9881 H         1 UNK         0.1150 
    139 H139        1.6133  -20.8979  -50.9501 H         1 UNK         0.0800 
    140 H140        1.7961  -20.0727  -49.4272 H         1 UNK         0.0800 
    141 H141        1.7140  -21.5982  -47.1661 H         1 UNK         0.0800 
    142 H142        0.2958  -20.6049  -47.3651 H         1 UNK         0.0800 
    143 H143        0.1485  -23.6049  -46.7940 H         1 UNK         0.0600 
    144 H144        0.9287  -21.6654  -44.9052 H         1 UNK         0.3000 
    145 H145       -0.2980  -23.3768  -41.9912 H         1 UNK         0.0600 
    146 H146        2.0772  -23.0111  -41.3839 H         1 UNK         0.0600 
    147 H147        1.9410  -24.3124  -42.5570 H         1 UNK         0.0600 
    148 H148        2.4960  -22.7247  -43.0706 H         1 UNK         0.0600 
    149 H149        1.0022  -20.8621  -42.2768 H         1 UNK         0.3000 
    150 H150       -1.9622  -18.8932  -42.7911 H         1 UNK         0.0600 
    151 H151       -1.7217  -19.1463  -40.3359 H         1 UNK         0.0600 
    152 H152       -0.9285  -17.6753  -40.8826 H         1 UNK         0.0600 
    153 H153        0.0306  -19.0961  -40.4741 H         1 UNK         0.0600 
    154 H154        0.7819  -18.1412  -42.6869 H         1 UNK         0.3000 
    155 H155        1.5200  -18.6509  -46.1603 H         1 UNK         0.0600 
    156 H156        2.1905  -16.2915  -45.9671 H         1 UNK         0.0600 
    157 H157        1.2567  -16.1001  -44.4858 H         1 UNK         0.0600 
    158 H158        0.4391  -16.4086  -46.0132 H         1 UNK         0.0600 
    159 H159        3.0080  -17.7271  -43.8553 H         1 UNK         0.3000 
    160 H160        4.3739  -20.9077  -43.0056 H         1 UNK         0.0600 
    161 H161        5.6612  -18.4660  -44.3453 H         1 UNK         0.0600 
    162 H162        5.7711  -20.1242  -44.9239 H         1 UNK         0.0600 
    163 H163        6.4985  -19.6869  -43.3864 H         1 UNK         0.0600 
    164 H164        4.8214  -18.2511  -42.0251 H         1 UNK         0.3000 
    165 H165        2.1849  -18.1868  -39.6357 H         1 UNK         0.0600 
    166 H166        5.2114  -18.4890  -39.2466 H         1 UNK         0.0600 
    167 H167        4.0723  -17.8266  -38.0738 H         1 UNK         0.0600 
    168 H168        3.9830  -19.5214  -38.5247 H         1 UNK         0.0600 
    169 H169        4.2806  -16.3501  -40.1337 H         1 UNK         0.3000 
    170 H170        3.6072  -14.2468  -40.9942 H         1 UNK         0.0600 
    171 H171        5.2024  -15.4902  -42.4737 H         1 UNK         0.0600 
    172 H172        4.0294  -15.4722  -43.7858 H         1 UNK         0.0600 
    173 H173        4.7409  -13.9664  -43.2109 H         1 UNK         0.0600 
    174 H174        2.1361  -13.9828  -43.4898 H         1 UNK         0.3000 
    175 H175       -0.7559  -13.2535  -42.6539 H         1 UNK         0.0600 
    176 H176       -1.0326  -10.7642  -42.7019 H         1 UNK         0.0600 
    177 H177       -0.7039  -11.3760  -41.0900 H         1 UNK         0.0600 
    178 H178        0.5727  -10.5794  -41.9957 H         1 UNK         0.0600 
    179 H179       -0.1065  -12.9906  -44.7511 H         1 UNK         0.3000 
    180 H180        2.0032  -10.8783  -46.5118 H         1 UNK         0.0600 
    181 H181        2.9849  -12.8916  -47.5755 H         1 UNK         0.0600 
    182 H182        3.7090  -12.6294  -45.9982 H         1 UNK         0.0600 
    183 H183        2.4987  -13.8880  -46.2043 H         1 UNK         0.0600 
    184 H184        0.4779  -13.0996  -47.3971 H         1 UNK         0.3000 
    185 H185       -2.5868  -11.2547  -47.7827 H         1 UNK         0.0600 
    186 H186       -2.2178  -12.1035  -50.0808 H         1 UNK         0.0600 
    187 H187       -1.0464  -10.8441  -49.7309 H         1 UNK         0.0600 
    188 H188       -0.5531  -12.5335  -49.6970 H         1 UNK         0.0600 
    189 H189       -1.4387  -13.8099  -47.0487 H         1 UNK         0.3000 
    190 H190       -1.6936  -20.8236  -45.4586 H         1 UNK         0.3000 
    191 H191       -4.0349  -21.0926  -46.9702 H         1 UNK         0.0600 
    192 H192       -5.0686  -19.7273  -45.2488 H         1 UNK         0.0600 
    193 H193       -3.4001  -19.1891  -45.3541 H         1 UNK         0.0600 
    194 H194       -3.9071  -20.2213  -44.0303 H         1 UNK         0.0600 
    195 H195       -3.1193  -22.6873  -43.9000 H         1 UNK         0.3000 
    196 H196       -5.5714  -24.1255  -43.5402 H         1 UNK         0.0600 
    197 H197       -4.2680  -25.3305  -41.7844 H         1 UNK         0.0600 
    198 H198       -4.0473  -23.5908  -41.6648 H         1 UNK         0.0600 
    199 H199       -2.7793  -24.5928  -42.3645 H         1 UNK         0.0600 
    200 H200       -2.3646  -25.0943  -44.8631 H         1 UNK         0.3000 
    201 H201       -3.1606  -27.8221  -45.3492 H         1 UNK         0.0600 
    202 H202       -0.8287  -27.1755  -44.8135 H         1 UNK         0.0600 
    203 H203       -0.7250  -26.2171  -46.2881 H         1 UNK         0.0600 
    204 H204       -0.8904  -27.9672  -46.3811 H         1 UNK         0.0600 
    205 H205       -3.1843  -24.9035  -47.3191 H         1 UNK         0.3000 
    206 H206       -3.6641  -24.3586  -49.3863 H         1 UNK         0.0600 
    207 H207       -5.8192  -25.6021  -49.0926 H         1 UNK         0.0600 
    208 H208       -5.2563  -25.6218  -50.7560 H         1 UNK         0.0600 
    209 H209       -5.0693  -27.0541  -49.7553 H         1 UNK         0.0600 
    210 H210       -1.1757  -25.4016  -48.7317 H         1 UNK         0.3000 
    211 H211       -0.2326  -27.5018  -50.3374 H         1 UNK         0.0600 
    212 H212        1.3021  -25.2675  -48.9059 H         1 UNK         0.0600 
    213 H213        2.0205  -26.7486  -49.5261 H         1 UNK         0.0600 
    214 H214        0.8444  -26.8292  -48.2260 H         1 UNK         0.0600 
    215 H215       -0.0527  -23.9852  -50.8994 H         1 UNK         0.3000 
    216 H216        0.4105  -24.4082  -53.7689 H         1 UNK         0.0600 
    217 H217        2.3625  -22.8308  -53.7845 H         1 UNK         0.0600 
    218 H218        2.7247  -24.2982  -52.8947 H         1 UNK         0.0600 
    219 H219        2.3635  -22.8133  -52.0233 H         1 UNK         0.0600 
    220 H220       -1.8295  -23.6298  -52.1893 H         1 UNK         0.3000 
    221 H221       -2.2116  -20.7390  -52.3914 H         1 UNK         0.0600 
    222 H222       -4.1063  -23.0305  -51.6286 H         1 UNK         0.0600 
    223 H223       -3.1903  -22.0249  -50.5080 H         1 UNK         0.0600 
    224 H224       -4.4645  -21.3130  -51.4880 H         1 UNK         0.0600 
    225 H225       -1.7683  -20.4960  -54.6392 H         1 UNK         0.3000 
    226 H226       -3.2276  -21.7325  -56.7530 H         1 UNK         0.0600 
    227 H227       -2.2108  -19.8887  -58.1104 H         1 UNK         0.0600 
    228 H228       -1.7461  -19.0412  -56.6399 H         1 UNK         0.0600 
    229 H229       -1.0153  -20.5958  -57.0363 H         1 UNK         0.0600 
    230 H230       -4.8179  -20.7781  -58.1694 H         1 UNK         0.3000 
    231 H231       -7.0817  -19.7232  -56.8988 H         1 UNK         0.0600 
    232 H232       -7.9796  -19.5620  -59.2299 H         1 UNK         0.0600 
    233 H233       -7.1509  -21.0871  -58.9677 H         1 UNK         0.0600 
    234 H234       -6.3612  -19.7984  -59.8784 H         1 UNK         0.0600 
    235 H235       -4.3693  -17.9922  -58.1638 H         1 UNK         0.3000 
    236 H236       -5.6430  -15.4134  -58.5264 H         1 UNK         0.0600 
    237 H237       -2.6957  -16.2238  -58.2700 H         1 UNK         0.0600 
    238 H238       -3.5980  -16.0822  -59.7799 H         1 UNK         0.0600 
    239 H239       -3.2832  -14.6550  -58.8075 H         1 UNK         0.0600 
    240 H240       -4.6375  -17.1648  -55.6822 H         1 UNK         0.3000 
    241 H241       -4.8811  -14.7393  -54.0439 H         1 UNK         0.0600 
    242 H242       -6.0399  -18.2706  -52.5693 H         1 UNK         0.3800 
    243 H243       -5.3352  -18.2483  -54.1679 H         1 UNK         0.3800 
    244 H244       -2.7467  -15.1931  -52.8182 H         1 UNK         0.0800 
    245 H245       -2.5418  -14.6375  -54.4477 H         1 UNK         0.0800 
    246 H246        0.3960  -17.0433  -53.3871 H         1 UNK         0.0800 
    247 H247       -0.5221  -15.8525  -52.5093 H         1 UNK         0.0800 
@<TRIPOS>BOND
     1    1    2 1    
     2    1  127 1    
     3    1  128 1    
     4    1  129 1    
     5    2    3 2    
     6    2    4 am   BACKBONE|DICT|INTERRES
     7    4    5 1    
     8    4  130 1    
     9    5    6 1    
    10    5   65 1    
    11    5  131 1    
    12    6    7 1    
    13    6  132 1    
    14    6  133 1    
    15    7    8 1    
    16    8    9 1    
    17    8  134 1    
    18    8  135 1    
    19    9   10 ar   
    20    9   14 ar   
    21   10   11 ar   
    22   10  136 1    
    23   11   12 ar   
    24   11  126 1    
    25   12   13 ar   
    26   12  137 1    
    27   13   14 ar   
    28   13   15 1    
    29   14  138 1    
    30   15   16 1    
    31   15  139 1    
    32   15  140 1    
    33   16   17 1    
    34   17   18 1    
    35   17  141 1    
    36   17  142 1    
    37   18   19 1    
    38   18   67 1    
    39   18  143 1    
    40   19   20 am   BACKBONE|DICT|INTERRES
    41   19  144 1    
    42   20   21 2    
    43   20   22 1    
    44   22   23 1    
    45   22   24 1    
    46   22  145 1    
    47   23  146 1    
    48   23  147 1    
    49   23  148 1    
    50   24   25 am   BACKBONE|DICT|INTERRES
    51   24  149 1    
    52   25   26 2    
    53   25   27 1    
    54   27   28 1    
    55   27   29 1    
    56   27  150 1    
    57   28  151 1    
    58   28  152 1    
    59   28  153 1    
    60   29   30 am   BACKBONE|DICT|INTERRES
    61   29  154 1    
    62   30   31 2    
    63   30   32 1    
    64   32   33 1    
    65   32   34 1    
    66   32  155 1    
    67   33  156 1    
    68   33  157 1    
    69   33  158 1    
    70   34   35 am   BACKBONE|DICT|INTERRES
    71   34  159 1    
    72   35   36 2    
    73   35   37 1    
    74   37   38 1    
    75   37   39 1    
    76   37  160 1    
    77   38  161 1    
    78   38  162 1    
    79   38  163 1    
    80   39   40 am   BACKBONE|DICT|INTERRES
    81   39  164 1    
    82   40   41 2    
    83   40   42 1    
    84   42   43 1    
    85   42   44 1    
    86   42  165 1    
    87   43  166 1    
    88   43  167 1    
    89   43  168 1    
    90   44   45 am   BACKBONE|DICT|INTERRES
    91   44  169 1    
    92   45   46 2    
    93   45   47 1    
    94   47   48 1    
    95   47   49 1    
    96   47  170 1    
    97   48  171 1    
    98   48  172 1    
    99   48  173 1    
   100   49   50 am   BACKBONE|DICT|INTERRES
   101   49  174 1    
   102   50   51 2    
   103   50   52 1    
   104   52   53 1    
   105   52   54 1    
   106   52  175 1    
   107   53  176 1    
   108   53  177 1    
   109   53  178 1    
   110   54   55 am   BACKBONE|DICT|INTERRES
   111   54  179 1    
   112   55   56 2    
   113   55   57 1    
   114   57   58 1    
   115   57   59 1    
   116   57  180 1    
   117   58  181 1    
   118   58  182 1    
   119   58  183 1    
   120   59   60 am   BACKBONE|DICT|INTERRES
   121   59  184 1    
   122   60   61 2    
   123   60   62 1    
   124   62   63 1    
   125   62   64 1    
   126   62  185 1    
   127   63  186 1    
   128   63  187 1    
   129   63  188 1    
   130   64   65 am   BACKBONE|DICT|INTERRES
   131   64  189 1    
   132   65   66 2    
   133   67   68 2    
   134   67   69 am   BACKBONE|DICT|INTERRES
   135   69   70 1    
   136   69  190 1    
   137   70   71 1    
   138   70   72 1    
   139   70  191 1    
   140   71  192 1    
   141   71  193 1    
   142   71  194 1    
   143   72   73 2    
   144   72   74 am   BACKBONE|DICT|INTERRES
   145   74   75 1    
   146   74  195 1    
   147   75   76 1    
   148   75   77 1    
   149   75  196 1    
   150   76  197 1    
   151   76  198 1    
   152   76  199 1    
   153   77   78 2    
   154   77   79 am   BACKBONE|DICT|INTERRES
   155   79   80 1    
   156   79  200 1    
   157   80   81 1    
   158   80   82 1    
   159   80  201 1    
   160   81  202 1    
   161   81  203 1    
   162   81  204 1    
   163   82   83 2    
   164   82   84 am   BACKBONE|DICT|INTERRES
   165   84   85 1    
   166   84  205 1    
   167   85   86 1    
   168   85   87 1    
   169   85  206 1    
   170   86  207 1    
   171   86  208 1    
   172   86  209 1    
   173   87   88 2    
   174   87   89 am   BACKBONE|DICT|INTERRES
   175   89   90 1    
   176   89  210 1    
   177   90   91 1    
   178   90   92 1    
   179   90  211 1    
   180   91  212 1    
   181   91  213 1    
   182   91  214 1    
   183   92   93 2    
   184   92   94 am   BACKBONE|DICT|INTERRES
   185   94   95 1    
   186   94  215 1    
   187   95   96 1    
   188   95   97 1    
   189   95  216 1    
   190   96  217 1    
   191   96  218 1    
   192   96  219 1    
   193   97   98 2    
   194   97   99 am   BACKBONE|DICT|INTERRES
   195   99  100 1    
   196   99  220 1    
   197  100  101 1    
   198  100  102 1    
   199  100  221 1    
   200  101  222 1    
   201  101  223 1    
   202  101  224 1    
   203  102  103 2    
   204  102  104 am   BACKBONE|DICT|INTERRES
   205  104  105 1    
   206  104  225 1    
   207  105  106 1    
   208  105  107 1    
   209  105  226 1    
   210  106  227 1    
   211  106  228 1    
   212  106  229 1    
   213  107  108 2    
   214  107  109 am   BACKBONE|DICT|INTERRES
   215  109  110 1    
   216  109  230 1    
   217  110  111 1    
   218  110  112 1    
   219  110  231 1    
   220  111  232 1    
   221  111  233 1    
   222  111  234 1    
   223  112  113 2    
   224  112  114 am   BACKBONE|DICT|INTERRES
   225  114  115 1    
   226  114  235 1    
   227  115  116 1    
   228  115  117 1    
   229  115  236 1    
   230  116  237 1    
   231  116  238 1    
   232  116  239 1    
   233  117  118 2    
   234  117  119 am   BACKBONE|DICT|INTERRES
   235  119  120 1    
   236  119  240 1    
   237  120  121 1    
   238  120  124 1    
   239  120  241 1    
   240  121  122 am   BACKBONE|DICT|INTERRES
   241  121  123 2    
   242  122  242 1    
   243  122  243 1    
   244  124  125 1    
   245  124  244 1    
   246  124  245 1    
   247  125  126 1    
   248  126  246 1    
   249  126  247 1    
@<TRIPOS>SUBSTRUCTURE
     1 UNK         1 GROUP             0       ****    0 ROOT    
