@<TRIPOS>MOLECULE
3R540
247   249    1
SMALL
USER_CHARGES


@<TRIPOS>ATOM
      1 CA          5.1037  -18.6133  -46.4084 C.3       0 UNK        -0.1800 
      2 C           5.1402  -17.1622  -46.8644 C.2       0 UNK         0.5000 
      3 O           6.1864  -16.6886  -47.3059 O.2       0 UNK        -0.5000 
      4 N           4.0130  -16.4472  -46.7408 N.am      1 UNK        -0.5000 
      5 CA          3.7755  -15.0515  -47.1522 C.3       1 UNK         0.1400 
      6 C6          4.0458  -14.8106  -48.6643 C.3       23 UNK        -0.0398 
      7 S7          2.8903  -13.6068  -49.4088 S.3       23 UNK        -0.2404 
      8 C8          2.2564  -14.5147  -50.8572 C.3       23 UNK        -0.0205 
      9 C9          1.2635  -15.5993  -50.4666 C.ar      23 UNK        -0.0193 
     10 C10        -0.0863  -15.2845  -50.2793 C.ar      23 UNK        -0.1150 
     11 C11        -1.0026  -16.2759  -49.9140 C.ar      23 UNK        -0.0193 
     12 C12        -0.5574  -17.5869  -49.7286 C.ar      23 UNK        -0.1150 
     13 C13         0.7881  -17.9124  -49.9126 C.ar      23 UNK        -0.0193 
     14 C14         1.6906  -16.9191  -50.2970 C.ar      23 UNK        -0.1150 
     15 C15         1.2763  -19.3258  -49.6539 C.3       23 UNK        -0.0205 
     16 S16         1.8825  -19.4543  -47.9482 S.3       23 UNK        -0.2404 
     17 C17         2.2571  -21.2268  -47.7954 C.3       23 UNK        -0.0398 
     18 CA          1.1671  -22.0718  -47.0913 C.3       11 UNK         0.1400 
     19 N           0.8060  -21.6125  -45.7442 N.am      11 UNK        -0.5000 
     20 C           0.2008  -22.4085  -44.8479 C.2       10 UNK         0.5000 
     21 O          -0.0800  -23.5880  -45.0699 O.2       10 UNK        -0.5000 
     22 CA         -0.1961  -21.7903  -43.4956 C.3       10 UNK         0.1400 
     23 CB          1.0300  -21.5873  -42.5929 C.3       10 UNK        -0.1800 
     24 N          -0.9342  -20.5358  -43.6361 N.am      10 UNK        -0.5000 
     25 C          -2.1364  -20.4279  -44.2208 C.2       9 UNK         0.5000 
     26 O          -2.7515  -21.3792  -44.7005 O.2       9 UNK        -0.5000 
     27 CA         -2.7452  -19.0180  -44.3161 C.3       9 UNK         0.1400 
     28 CB         -3.4598  -18.6437  -43.0092 C.3       9 UNK        -0.1800 
     29 N          -1.7516  -17.9977  -44.6420 N.am      9 UNK        -0.5000 
     30 C          -1.0581  -17.9546  -45.7876 C.2       8 UNK         0.5000 
     31 O          -1.2275  -18.7447  -46.7141 O.2       8 UNK        -0.5000 
     32 CA          0.0498  -16.8900  -45.8816 C.3       8 UNK         0.1400 
     33 CB         -0.5310  -15.4987  -46.1764 C.3       8 UNK        -0.1800 
     34 N           0.8656  -16.8347  -44.6670 N.am      8 UNK        -0.5000 
     35 C           1.6175  -17.8424  -44.2004 C.2       7 UNK         0.5000 
     36 O           1.7469  -18.9266  -44.7640 O.2       7 UNK        -0.5000 
     37 CA          2.3338  -17.6009  -42.8635 C.3       7 UNK         0.1400 
     38 CB          3.6737  -16.8929  -43.1030 C.3       7 UNK        -0.1800 
     39 N           1.5158  -16.8314  -41.9228 N.am      7 UNK        -0.5000 
     40 C           0.4050  -17.3116  -41.3466 C.2       6 UNK         0.5000 
     41 O          -0.0369  -18.4425  -41.5543 O.2       6 UNK        -0.5000 
     42 CA         -0.3629  -16.3550  -40.4161 C.3       6 UNK         0.1400 
     43 CB          0.3986  -16.1365  -39.0995 C.3       6 UNK        -0.1800 
     44 N          -0.6748  -15.0578  -41.0247 N.am      6 UNK        -0.5000 
     45 C          -1.3983  -14.8861  -42.1400 C.2       5 UNK         0.5000 
     46 O          -1.8011  -15.8138  -42.8376 O.2       5 UNK        -0.5000 
     47 CA         -1.7286  -13.4453  -42.5737 C.3       5 UNK         0.1400 
     48 CB         -3.2108  -13.1455  -42.3044 C.3       5 UNK        -0.1800 
     49 N          -0.9186  -12.4210  -41.9086 N.am      5 UNK        -0.5000 
     50 C           0.3371  -12.0502  -42.1967 C.2       4 UNK         0.5000 
     51 O           0.8868  -11.1423  -41.5716 O.2       4 UNK        -0.5000 
     52 CA          1.1074  -12.7408  -43.3500 C.3       4 UNK         0.1400 
     53 CB          0.8654  -12.0071  -44.6786 C.3       4 UNK        -0.1800 
     54 N           2.5460  -12.7841  -43.0894 N.am      4 UNK        -0.5000 
     55 C           3.1170  -13.4400  -42.0712 C.2       3 UNK         0.5000 
     56 O           2.5030  -14.2153  -41.3357 O.2       3 UNK        -0.5000 
     57 CA          4.6282  -13.2277  -41.8989 C.3       3 UNK         0.1400 
     58 CB          5.2306  -14.0194  -40.7238 C.3       3 UNK        -0.1800 
     59 N           5.2990  -13.6004  -43.1411 N.am      3 UNK        -0.5000 
     60 C           6.1581  -12.8313  -43.8175 C.2       2 UNK         0.5000 
     61 O           6.5481  -11.7300  -43.4277 O.2       2 UNK        -0.5000 
     62 CA          6.6602  -13.3752  -45.1691 C.3       2 UNK         0.1400 
     63 CB          8.0087  -14.0887  -44.9882 C.3       2 UNK        -0.1800 
     64 N           5.7367  -14.2848  -45.8563 N.am      2 UNK        -0.5000 
     65 C           4.5028  -13.9907  -46.2884 C.2       1 UNK         0.5000 
     66 O           3.9365  -12.9283  -46.0336 O.2       1 UNK        -0.5000 
     67 C          -0.0688  -22.3149  -47.9804 C.2       11 UNK         0.5000 
     68 O          -0.0535  -23.2675  -48.7595 O.2       11 UNK        -0.5000 
     69 N          -1.1317  -21.5078  -47.8243 N.am      12 UNK        -0.5000 
     70 CA         -2.4169  -21.7232  -48.4941 C.3       12 UNK         0.1400 
     71 CB         -3.3728  -20.5490  -48.2372 C.3       12 UNK        -0.1800 
     72 C          -3.0731  -23.0516  -48.0833 C.2       12 UNK         0.5000 
     73 O          -3.5243  -23.7904  -48.9564 O.2       12 UNK        -0.5000 
     74 N          -3.0762  -23.3566  -46.7779 N.am      13 UNK        -0.5000 
     75 CA         -3.5704  -24.6190  -46.2272 C.3       13 UNK         0.1400 
     76 CB         -3.5844  -24.5515  -44.6928 C.3       13 UNK        -0.1800 
     77 C          -2.7628  -25.8336  -46.7174 C.2       13 UNK         0.5000 
     78 O          -3.3609  -26.8327  -47.1177 O.2       13 UNK        -0.5000 
     79 N          -1.4272  -25.7098  -46.7269 N.am      14 UNK        -0.5000 
     80 CA         -0.5016  -26.7302  -47.2276 C.3       14 UNK         0.1400 
     81 CB          0.9416  -26.3121  -46.9102 C.3       14 UNK        -0.1800 
     82 C          -0.6665  -27.0141  -48.7341 C.2       14 UNK         0.5000 
     83 O          -0.5810  -28.1706  -49.1483 O.2       14 UNK        -0.5000 
     84 N          -0.9295  -25.9611  -49.5186 N.am      15 UNK        -0.5000 
     85 CA         -1.1892  -26.0272  -50.9576 C.3       15 UNK         0.1400 
     86 CB         -0.8689  -24.6562  -51.5760 C.3       15 UNK        -0.1800 
     87 C          -2.6325  -26.4408  -51.3109 C.2       15 UNK         0.5000 
     88 O          -2.9337  -26.5779  -52.4974 O.2       15 UNK        -0.5000 
     89 N          -3.5122  -26.5781  -50.3055 N.am      16 UNK        -0.5000 
     90 CA         -4.9578  -26.8165  -50.4203 C.3       16 UNK         0.1400 
     91 CB         -5.2363  -28.2413  -50.9409 C.3       16 UNK        -0.1800 
     92 C          -5.6610  -25.7175  -51.2482 C.2       16 UNK         0.5000 
     93 O          -6.4779  -26.0116  -52.1226 O.2       16 UNK        -0.5000 
     94 N          -5.2613  -24.4645  -50.9873 N.am      17 UNK        -0.5000 
     95 CA         -5.6217  -23.2172  -51.6677 C.3       17 UNK         0.1400 
     96 CB         -7.1397  -22.9581  -51.5812 C.3       17 UNK        -0.1800 
     97 C          -5.1026  -23.1054  -53.1168 C.2       17 UNK         0.5000 
     98 O          -5.4325  -22.1288  -53.7906 O.2       17 UNK        -0.5000 
     99 N          -4.3315  -24.0945  -53.5977 N.am      18 UNK        -0.5000 
    100 CA        -3.7721  -24.2114  -54.9532 C.3       18 UNK         0.1400 
    101 CB        -2.6831  -23.1402  -55.1696 C.3       18 UNK        -0.1800 
    102 C         -4.8330  -24.1947  -56.0804 C.2       18 UNK         0.5000 
    103 O         -4.4953  -23.9140  -57.2314 O.2       18 UNK        -0.5000 
    104 N         -6.0985  -24.4638  -55.7194 N.am      19 UNK        -0.5000 
    105 CA        -7.3139  -24.3157  -56.5275 C.3       19 UNK         0.1400 
    106 CB        -7.3410  -25.3571  -57.6658 C.3       19 UNK        -0.1800 
    107 C         -7.5545  -22.8697  -57.0273 C.2       19 UNK         0.5000 
    108 O         -8.1790  -22.6871  -58.0745 O.2       19 UNK        -0.5000 
    109 N         -7.0596  -21.8696  -56.2821 N.am      20 UNK        -0.5000 
    110 CA        -7.1186  -20.4519  -56.6486 C.3       20 UNK         0.1400 
    111 CB        -5.7739  -20.0340  -57.2667 C.3       20 UNK        -0.1800 
    112 C         -7.4751  -19.5448  -55.4589 C.2       20 UNK         0.5000 
    113 O         -8.2175  -18.5797  -55.6475 O.2       20 UNK        -0.5000 
    114 N         -6.9537  -19.8706  -54.2666 N.am      21 UNK        -0.5000 
    115 CA        -7.0613  -19.1311  -53.0039 C.3       21 UNK         0.1400 
    116 CB        -8.5305  -19.0731  -52.5290 C.3       21 UNK        -0.1800 
    117 C         -6.3846  -17.7410  -53.0428 C.2       21 UNK         0.5000 
    118 O         -5.6794  -17.4114  -54.0001 O.2       21 UNK        -0.5000 
    119 N         -6.5894  -16.9648  -51.9746 N.am      22 UNK        -0.5000 
    120 CA        -6.1169  -15.5844  -51.8060 C.3       22 UNK         0.1400 
    121 C         -7.3177  -14.6641  -51.4655 C.2       22 UNK         0.5000 
    122 N         -7.3117  -13.4247  -51.9363 N.am      22 UNK        -0.7600 
    123 O         -8.2402  -15.0510  -50.7501 O.2       22 UNK        -0.5000 
    124 C124       -5.0303  -15.4778  -50.7046 C.3       23 UNK        -0.0398 
    125 S125       -3.4577  -16.2673  -51.1810 S.3       23 UNK        -0.2404 
    126 C126       -2.4663  -15.9282  -49.6949 C.3       23 UNK        -0.0205 
    127 H127        5.2546  -19.2764  -47.2600 H         1 UNK         0.0600 
    128 H128        4.1526  -18.8704  -45.9440 H         1 UNK         0.0600 
    129 H129        5.8954  -18.8002  -45.6831 H         1 UNK         0.0600 
    130 H130        3.1974  -16.9198  -46.3777 H         1 UNK         0.3000 
    131 H131        2.7088  -14.9075  -46.9724 H         1 UNK         0.0600 
    132 H132        5.0696  -14.4757  -48.8423 H         1 UNK         0.0800 
    133 H133        3.9653  -15.7491  -49.2088 H         1 UNK         0.0800 
    134 H134        1.7713  -13.8051  -51.5289 H         1 UNK         0.0800 
    135 H135        3.0897  -14.9393  -51.4194 H         1 UNK         0.0800 
    136 H136       -0.4217  -14.2657  -50.4135 H         1 UNK         0.1150 
    137 H137       -1.2553  -18.3524  -49.4240 H         1 UNK         0.1150 
    138 H138        2.7297  -17.1764  -50.4433 H         1 UNK         0.1150 
    139 H139        0.4681  -20.0388  -49.8199 H         1 UNK         0.0800 
    140 H140        2.0749  -19.5852  -50.3503 H         1 UNK         0.0800 
    141 H141        3.1834  -21.3052  -47.2252 H         1 UNK         0.0800 
    142 H142        2.4888  -21.6380  -48.7796 H         1 UNK         0.0800 
    143 H143        1.6214  -23.0562  -46.9598 H         1 UNK         0.0600 
    144 H144        1.0154  -20.6454  -45.5100 H         1 UNK         0.3000 
    145 H145       -0.8587  -22.5000  -42.9955 H         1 UNK         0.0600 
    146 H146        0.7408  -21.2001  -41.6157 H         1 UNK         0.0600 
    147 H147        1.5502  -22.5314  -42.4277 H         1 UNK         0.0600 
    148 H148        1.7471  -20.8931  -43.0288 H         1 UNK         0.0600 
    149 H149       -0.5093  -19.7068  -43.2375 H         1 UNK         0.3000 
    150 H150       -3.4872  -19.0288  -45.1167 H         1 UNK         0.0600 
    151 H151       -4.2146  -19.3868  -42.7490 H         1 UNK         0.0600 
    152 H152       -3.9662  -17.6825  -43.0994 H         1 UNK         0.0600 
    153 H153       -2.7619  -18.5754  -42.1739 H         1 UNK         0.0600 
    154 H154       -1.5905  -17.2829  -43.9362 H         1 UNK         0.3000 
    155 H155        0.7016  -17.1571  -46.7140 H         1 UNK         0.0600 
    156 H156       -1.1182  -15.5116  -47.0941 H         1 UNK         0.0600 
    157 H157        0.2587  -14.7599  -46.3104 H         1 UNK         0.0600 
    158 H158       -1.1863  -15.1525  -45.3781 H         1 UNK         0.0600 
    159 H159        0.7805  -16.0075  -44.0985 H         1 UNK         0.3000 
    160 H160        2.5419  -18.5739  -42.4134 H         1 UNK         0.0600 
    161 H161        3.5384  -15.9335  -43.6013 H         1 UNK         0.0600 
    162 H162        4.3271  -17.4995  -43.7303 H         1 UNK         0.0600 
    163 H163        4.1986  -16.7247  -42.1643 H         1 UNK         0.0600 
    164 H164        1.8293  -15.8926  -41.6829 H         1 UNK         0.3000 
    165 H165       -1.3138  -16.8352  -40.1757 H         1 UNK         0.0600 
    166 H166       -0.1969  -15.5602  -38.3913 H         1 UNK         0.0600 
    167 H167        0.6364  -17.0885  -38.6231 H         1 UNK         0.0600 
    168 H168        1.3376  -15.6050  -39.2573 H         1 UNK         0.0600 
    169 H169       -0.3510  -14.2393  -40.5301 H         1 UNK         0.3000 
    170 H170       -1.5761  -13.3828  -43.6517 H         1 UNK         0.0600 
    171 H171       -3.8554  -13.8663  -42.8099 H         1 UNK         0.0600 
    172 H172       -3.4442  -13.1876  -41.2397 H         1 UNK         0.0600 
    173 H173       -3.4862  -12.1559  -42.6699 H         1 UNK         0.0600 
    174 H174       -1.3833  -11.9376  -41.1540 H         1 UNK         0.3000 
    175 H175        0.7791  -13.7731  -43.4600 H         1 UNK         0.0600 
    176 H176        1.2685  -10.9939  -44.6559 H         1 UNK         0.0600 
    177 H177        1.3313  -12.5336  -45.5112 H         1 UNK         0.0600 
    178 H178       -0.1982  -11.9286  -44.9049 H         1 UNK         0.0600 
    179 H179        3.1267  -12.2056  -43.6807 H         1 UNK         0.3000 
    180 H180        4.7644  -12.1645  -41.6906 H         1 UNK         0.0600 
    181 H181        5.1293  -15.0951  -40.8597 H         1 UNK         0.0600 
    182 H182        4.7395  -13.7589  -39.7855 H         1 UNK         0.0600 
    183 H183        6.2914  -13.7976  -40.6069 H         1 UNK         0.0600 
    184 H184        5.0216  -14.4770  -43.5569 H         1 UNK         0.3000 
    185 H185        6.8148  -12.5152  -45.8238 H         1 UNK         0.0600 
    186 H186        8.7377  -13.4349  -44.5074 H         1 UNK         0.0600 
    187 H187        7.9097  -14.9821  -44.3703 H         1 UNK         0.0600 
    188 H188        8.4278  -14.3899  -45.9485 H         1 UNK         0.0600 
    189 H189        6.1231  -15.1723  -46.1655 H         1 UNK         0.3000 
    190 H190       -1.0653  -20.7039  -47.2070 H         1 UNK         0.3000 
    191 H191       -2.2257  -21.7692  -49.5682 H         1 UNK         0.0600 
    192 H192       -2.9725  -19.6164  -48.6311 H         1 UNK         0.0600 
    193 H193       -4.3352  -20.7154  -48.7227 H         1 UNK         0.0600 
    194 H194       -3.5622  -20.4090  -47.1733 H         1 UNK         0.0600 
    195 H195       -2.7295  -22.6744  -46.1084 H         1 UNK         0.3000 
    196 H196       -4.5998  -24.7479  -46.5680 H         1 UNK         0.0600 
    197 H197       -3.9508  -25.4846  -44.2630 H         1 UNK         0.0600 
    198 H198       -4.2379  -23.7531  -44.3410 H         1 UNK         0.0600 
    199 H199       -2.5888  -24.3702  -44.2869 H         1 UNK         0.0600 
    200 H200       -1.0134  -24.8652  -46.3440 H         1 UNK         0.3000 
    201 H201       -0.7117  -27.6577  -46.6912 H         1 UNK         0.0600 
    202 H202        1.0812  -26.1517  -45.8409 H         1 UNK         0.0600 
    203 H203        1.2155  -25.3920  -47.4262 H         1 UNK         0.0600 
    204 H204        1.6479  -27.0836  -47.2191 H         1 UNK         0.0600 
    205 H205       -0.9185  -25.0320  -49.1080 H         1 UNK         0.3000 
    206 H206       -0.5202  -26.7659  -51.4034 H         1 UNK         0.0600 
    207 H207        0.1596  -24.3602  -51.3688 H         1 UNK         0.0600 
    208 H208       -0.9864  -24.6759  -52.6599 H         1 UNK         0.0600 
    209 H209       -1.5265  -23.8775  -51.1871 H         1 UNK         0.0600 
    210 H210       -3.1745  -26.4208  -49.3643 H         1 UNK         0.3000 
    211 H211       -5.3625  -26.7464  -49.4097 H         1 UNK         0.0600 
    212 H212       -4.8963  -28.3729  -51.9685 H         1 UNK         0.0600 
    213 H213       -6.3040  -28.4624  -50.9192 H         1 UNK         0.0600 
    214 H214       -4.7377  -28.9890  -50.3243 H         1 UNK         0.0600 
    215 H215       -4.5721  -24.3434  -50.2437 H         1 UNK         0.3000 
    216 H216       -5.1208  -22.4234  -51.1118 H         1 UNK         0.0600 
    217 H217       -7.3916  -21.9629  -51.9456 H         1 UNK         0.0600 
    218 H218       -7.4920  -23.0218  -50.5517 H         1 UNK         0.0600 
    219 H219       -7.7104  -23.6711  -52.1765 H         1 UNK         0.0600 
    220 H220       -4.1252  -24.8779  -52.9885 H         1 UNK         0.3000 
    221 H221       -3.2926  -25.1899  -55.0011 H         1 UNK         0.0600 
    222 H222       -3.1073  -22.1366  -55.2159 H         1 UNK         0.0600 
    223 H223       -1.9475  -23.1554  -54.3659 H         1 UNK         0.0600 
    224 H224       -2.1446  -23.3102  -56.1025 H         1 UNK         0.0600 
    225 H225       -6.2521  -24.7011  -54.7488 H         1 UNK         0.3000 
    226 H226       -8.1466  -24.5403  -55.8597 H         1 UNK         0.0600 
    227 H227       -7.1750  -26.3641  -57.2830 H         1 UNK         0.0600 
    228 H228       -8.3070  -25.3602  -58.1719 H         1 UNK         0.0600 
    229 H229       -6.5790  -25.1545  -58.4189 H         1 UNK         0.0600 
    230 H230       -6.5573  -22.0976  -55.4308 H         1 UNK         0.3000 
    231 H231       -7.8979  -20.2940  -57.3972 H         1 UNK         0.0600 
    232 H232       -4.9482  -20.1905  -56.5712 H         1 UNK         0.0600 
    233 H233       -5.7792  -18.9783  -57.5410 H         1 UNK         0.0600 
    234 H234       -5.5619  -20.6056  -58.1705 H         1 UNK         0.0600 
    235 H235       -6.3270  -20.6711  -54.2180 H         1 UNK         0.3000 
    236 H236       -6.4988  -19.7159  -52.2750 H         1 UNK         0.0600 
    237 H237       -9.0036  -20.0532  -52.5912 H         1 UNK         0.0600 
    238 H238       -8.6019  -18.7527  -51.4895 H         1 UNK         0.0600 
    239 H239       -9.1227  -18.3794  -53.1265 H         1 UNK         0.0600 
    240 H240       -7.2191  -17.2825  -51.2512 H         1 UNK         0.3000 
    241 H241       -5.6915  -15.2234  -52.7447 H         1 UNK         0.0600 
    242 H242       -6.5631  -13.0814  -52.5189 H         1 UNK         0.3800 
    243 H243       -8.0812  -12.8125  -51.7118 H         1 UNK         0.3800 
    244 H244       -4.8144  -14.4303  -50.4850 H         1 UNK         0.0800 
    245 H245       -5.3829  -15.9215  -49.7718 H         1 UNK         0.0800 
    246 H246       -2.5615  -14.8760  -49.4224 H         1 UNK         0.0800 
    247 H247       -2.8629  -16.5028  -48.8560 H         1 UNK         0.0800 
@<TRIPOS>BOND
     1    1    2 1    
     2    1  127 1    
     3    1  128 1    
     4    1  129 1    
     5    2    3 2    
     6    2    4 am   BACKBONE|DICT|INTERRES
     7    4    5 1    
     8    4  130 1    
     9    5    6 1    
    10    5   65 1    
    11    5  131 1    
    12    6    7 1    
    13    6  132 1    
    14    6  133 1    
    15    7    8 1    
    16    8    9 1    
    17    8  134 1    
    18    8  135 1    
    19    9   10 ar   
    20    9   14 ar   
    21   10   11 ar   
    22   10  136 1    
    23   11   12 ar   
    24   11  126 1    
    25   12   13 ar   
    26   12  137 1    
    27   13   14 ar   
    28   13   15 1    
    29   14  138 1    
    30   15   16 1    
    31   15  139 1    
    32   15  140 1    
    33   16   17 1    
    34   17   18 1    
    35   17  141 1    
    36   17  142 1    
    37   18   19 1    
    38   18   67 1    
    39   18  143 1    
    40   19   20 am   BACKBONE|DICT|INTERRES
    41   19  144 1    
    42   20   21 2    
    43   20   22 1    
    44   22   23 1    
    45   22   24 1    
    46   22  145 1    
    47   23  146 1    
    48   23  147 1    
    49   23  148 1    
    50   24   25 am   BACKBONE|DICT|INTERRES
    51   24  149 1    
    52   25   26 2    
    53   25   27 1    
    54   27   28 1    
    55   27   29 1    
    56   27  150 1    
    57   28  151 1    
    58   28  152 1    
    59   28  153 1    
    60   29   30 am   BACKBONE|DICT|INTERRES
    61   29  154 1    
    62   30   31 2    
    63   30   32 1    
    64   32   33 1    
    65   32   34 1    
    66   32  155 1    
    67   33  156 1    
    68   33  157 1    
    69   33  158 1    
    70   34   35 am   BACKBONE|DICT|INTERRES
    71   34  159 1    
    72   35   36 2    
    73   35   37 1    
    74   37   38 1    
    75   37   39 1    
    76   37  160 1    
    77   38  161 1    
    78   38  162 1    
    79   38  163 1    
    80   39   40 am   BACKBONE|DICT|INTERRES
    81   39  164 1    
    82   40   41 2    
    83   40   42 1    
    84   42   43 1    
    85   42   44 1    
    86   42  165 1    
    87   43  166 1    
    88   43  167 1    
    89   43  168 1    
    90   44   45 am   BACKBONE|DICT|INTERRES
    91   44  169 1    
    92   45   46 2    
    93   45   47 1    
    94   47   48 1    
    95   47   49 1    
    96   47  170 1    
    97   48  171 1    
    98   48  172 1    
    99   48  173 1    
   100   49   50 am   BACKBONE|DICT|INTERRES
   101   49  174 1    
   102   50   51 2    
   103   50   52 1    
   104   52   53 1    
   105   52   54 1    
   106   52  175 1    
   107   53  176 1    
   108   53  177 1    
   109   53  178 1    
   110   54   55 am   BACKBONE|DICT|INTERRES
   111   54  179 1    
   112   55   56 2    
   113   55   57 1    
   114   57   58 1    
   115   57   59 1    
   116   57  180 1    
   117   58  181 1    
   118   58  182 1    
   119   58  183 1    
   120   59   60 am   BACKBONE|DICT|INTERRES
   121   59  184 1    
   122   60   61 2    
   123   60   62 1    
   124   62   63 1    
   125   62   64 1    
   126   62  185 1    
   127   63  186 1    
   128   63  187 1    
   129   63  188 1    
   130   64   65 am   BACKBONE|DICT|INTERRES
   131   64  189 1    
   132   65   66 2    
   133   67   68 2    
   134   67   69 am   BACKBONE|DICT|INTERRES
   135   69   70 1    
   136   69  190 1    
   137   70   71 1    
   138   70   72 1    
   139   70  191 1    
   140   71  192 1    
   141   71  193 1    
   142   71  194 1    
   143   72   73 2    
   144   72   74 am   BACKBONE|DICT|INTERRES
   145   74   75 1    
   146   74  195 1    
   147   75   76 1    
   148   75   77 1    
   149   75  196 1    
   150   76  197 1    
   151   76  198 1    
   152   76  199 1    
   153   77   78 2    
   154   77   79 am   BACKBONE|DICT|INTERRES
   155   79   80 1    
   156   79  200 1    
   157   80   81 1    
   158   80   82 1    
   159   80  201 1    
   160   81  202 1    
   161   81  203 1    
   162   81  204 1    
   163   82   83 2    
   164   82   84 am   BACKBONE|DICT|INTERRES
   165   84   85 1    
   166   84  205 1    
   167   85   86 1    
   168   85   87 1    
   169   85  206 1    
   170   86  207 1    
   171   86  208 1    
   172   86  209 1    
   173   87   88 2    
   174   87   89 am   BACKBONE|DICT|INTERRES
   175   89   90 1    
   176   89  210 1    
   177   90   91 1    
   178   90   92 1    
   179   90  211 1    
   180   91  212 1    
   181   91  213 1    
   182   91  214 1    
   183   92   93 2    
   184   92   94 am   BACKBONE|DICT|INTERRES
   185   94   95 1    
   186   94  215 1    
   187   95   96 1    
   188   95   97 1    
   189   95  216 1    
   190   96  217 1    
   191   96  218 1    
   192   96  219 1    
   193   97   98 2    
   194   97   99 am   BACKBONE|DICT|INTERRES
   195   99  100 1    
   196   99  220 1    
   197  100  101 1    
   198  100  102 1    
   199  100  221 1    
   200  101  222 1    
   201  101  223 1    
   202  101  224 1    
   203  102  103 2    
   204  102  104 am   BACKBONE|DICT|INTERRES
   205  104  105 1    
   206  104  225 1    
   207  105  106 1    
   208  105  107 1    
   209  105  226 1    
   210  106  227 1    
   211  106  228 1    
   212  106  229 1    
   213  107  108 2    
   214  107  109 am   BACKBONE|DICT|INTERRES
   215  109  110 1    
   216  109  230 1    
   217  110  111 1    
   218  110  112 1    
   219  110  231 1    
   220  111  232 1    
   221  111  233 1    
   222  111  234 1    
   223  112  113 2    
   224  112  114 am   BACKBONE|DICT|INTERRES
   225  114  115 1    
   226  114  235 1    
   227  115  116 1    
   228  115  117 1    
   229  115  236 1    
   230  116  237 1    
   231  116  238 1    
   232  116  239 1    
   233  117  118 2    
   234  117  119 am   BACKBONE|DICT|INTERRES
   235  119  120 1    
   236  119  240 1    
   237  120  121 1    
   238  120  124 1    
   239  120  241 1    
   240  121  122 am   BACKBONE|DICT|INTERRES
   241  121  123 2    
   242  122  242 1    
   243  122  243 1    
   244  124  125 1    
   245  124  244 1    
   246  124  245 1    
   247  125  126 1    
   248  126  246 1    
   249  126  247 1    
@<TRIPOS>SUBSTRUCTURE
     1 UNK         1 GROUP             0       ****    0 ROOT    
