@<TRIPOS>MOLECULE
3R540
247   249    1
SMALL
USER_CHARGES


@<TRIPOS>ATOM
      1 CA          4.9577  -10.2031  -47.9180 C.3       0 UNK        -0.1800 
      2 C           4.0815  -11.0048  -46.9676 C.2       0 UNK         0.5000 
      3 O           4.5361  -11.3831  -45.8878 O.2       0 UNK        -0.5000 
      4 N           2.8216  -11.2519  -47.3516 N.am      1 UNK        -0.5000 
      5 CA          1.8396  -12.0389  -46.5923 C.3       1 UNK         0.1400 
      6 C6          0.5158  -12.2283  -47.3713 C.3       23 UNK        -0.0398 
      7 S7          0.7264  -13.2547  -48.8690 S.3       23 UNK        -0.2404 
      8 C8          0.2964  -14.8759  -48.1705 C.3       23 UNK        -0.0205 
      9 C9          0.3047  -15.9978  -49.1917 C.ar      23 UNK        -0.0193 
     10 C10        -0.7796  -16.1667  -50.0544 C.ar      23 UNK        -0.1150 
     11 C11        -0.8138  -17.2392  -50.9491 C.ar      23 UNK        -0.0193 
     12 C12         0.2487  -18.1476  -50.9781 C.ar      23 UNK        -0.1150 
     13 C13         1.3379  -17.9900  -50.1147 C.ar      23 UNK        -0.0193 
     14 C14         1.3637  -16.9084  -49.2296 C.ar      23 UNK        -0.1150 
     15 C15         2.4859  -18.9890  -50.1281 C.3       23 UNK        -0.0205 
     16 S16         1.9897  -20.6344  -49.5243 S.3       23 UNK        -0.2404 
     17 C17         1.4843  -20.2869  -47.8025 C.3       23 UNK        -0.0398 
     18 CA          0.5868  -21.4046  -47.2199 C.3       11 UNK         0.1400 
     19 N           0.5157  -21.3533  -45.7564 N.am      11 UNK        -0.5000 
     20 C          -0.0060  -22.3241  -44.9920 C.2       10 UNK         0.5000 
     21 O          -0.4504  -23.3788  -45.4420 O.2       10 UNK        -0.5000 
     22 CA         -0.0817  -22.0672  -43.4760 C.3       10 UNK         0.1400 
     23 CB          1.2782  -22.3265  -42.8124 C.3       10 UNK        -0.1800 
     24 N          -0.5490  -20.7200  -43.1474 N.am      10 UNK        -0.5000 
     25 C          -1.7603  -20.2398  -43.4662 C.2       9 UNK         0.5000 
     26 O          -2.6271  -20.8954  -44.0427 O.2       9 UNK        -0.5000 
     27 CA         -2.0301  -18.7601  -43.1408 C.3       9 UNK         0.1400 
     28 CB         -2.3705  -18.5723  -41.6550 C.3       9 UNK        -0.1800 
     29 N          -0.9067  -17.8966  -43.4997 N.am      9 UNK        -0.5000 
     30 C          -0.4174  -17.7574  -44.7401 C.2       8 UNK         0.5000 
     31 O          -0.8860  -18.3064  -45.7373 O.2       8 UNK        -0.5000 
     32 CA          0.8520  -16.9051  -44.8703 C.3       8 UNK         0.1400 
     33 CB          0.5144  -15.4098  -44.7698 C.3       8 UNK        -0.1800 
     34 N           1.8510  -17.2721  -43.8646 N.am      8 UNK        -0.5000 
     35 C           2.4894  -18.4523  -43.8354 C.2       7 UNK         0.5000 
     36 O           2.3641  -19.3131  -44.7056 O.2       7 UNK        -0.5000 
     37 CA          3.3723  -18.7479  -42.6086 C.3       7 UNK         0.1400 
     38 CB          4.8347  -18.3541  -42.8611 C.3       7 UNK        -0.1800 
     39 N           2.8826  -18.0890  -41.3979 N.am      7 UNK        -0.5000 
     40 C           1.7923  -18.4827  -40.7237 C.2       6 UNK         0.5000 
     41 O           1.1164  -19.4625  -41.0372 O.2       6 UNK        -0.5000 
     42 CA          1.3510  -17.6033  -39.5377 C.3       6 UNK         0.1400 
     43 CB          2.0878  -18.0139  -38.2547 C.3       6 UNK        -0.1800 
     44 N           1.5630  -16.1754  -39.7839 N.am      6 UNK        -0.5000 
     45 C           0.9584  -15.4769  -40.7539 C.2       5 UNK         0.5000 
     46 O           0.0972  -15.9617  -41.4878 O.2       5 UNK        -0.5000 
     47 CA          1.4063  -14.0145  -40.9657 C.3       5 UNK         0.1400 
     48 CB          1.8349  -13.3189  -39.6566 C.3       5 UNK        -0.1800 
     49 N           2.4577  -13.8596  -41.9804 N.am      5 UNK        -0.5000 
     50 C           3.6535  -14.4694  -42.0261 C.2       4 UNK         0.5000 
     51 O           3.9963  -15.3777  -41.2687 O.2       4 UNK        -0.5000 
     52 CA          4.6606  -13.9558  -43.0730 C.3       4 UNK         0.1400 
     53 CB          4.3989  -14.5653  -44.4573 C.3       4 UNK        -0.1800 
     54 N           4.6791  -12.4975  -43.1862 N.am      4 UNK        -0.5000 
     55 C           5.0720  -11.6535  -42.2208 C.2       3 UNK         0.5000 
     56 O           5.4895  -12.0137  -41.1197 O.2       3 UNK        -0.5000 
     57 CA          4.9784  -10.1516  -42.5392 C.3       3 UNK         0.1400 
     58 CB          6.2249   -9.6753  -43.3017 C.3       3 UNK        -0.1800 
     59 N           3.7818   -9.8444  -43.3216 N.am      3 UNK        -0.5000 
     60 C           2.5666   -9.6449  -42.7925 C.2       2 UNK         0.5000 
     61 O           2.3414   -9.6317  -41.5820 O.2       2 UNK        -0.5000 
     62 CA          1.4007   -9.4315  -43.7785 C.3       2 UNK         0.1400 
     63 CB          1.2039   -7.9347  -44.0628 C.3       2 UNK        -0.1800 
     64 N           1.5731  -10.1406  -45.0483 N.am      2 UNK        -0.5000 
     65 C           1.5676  -11.4746  -45.1796 C.2       1 UNK         0.5000 
     66 O           1.4065  -12.2501  -44.2360 O.2       1 UNK        -0.5000 
     67 C          -0.8176  -21.4219  -47.8618 C.2       11 UNK         0.5000 
     68 O          -1.0703  -22.2478  -48.7392 O.2       11 UNK        -0.5000 
     69 N          -1.7244  -20.5620  -47.3766 N.am      12 UNK        -0.5000 
     70 CA         -3.1202  -20.5122  -47.8146 C.3       12 UNK         0.1400 
     71 CB         -3.8129  -19.2929  -47.1898 C.3       12 UNK        -0.1800 
     72 C          -3.8901  -21.8102  -47.5046 C.2       12 UNK         0.5000 
     73 O          -4.6303  -22.2953  -48.3611 O.2       12 UNK        -0.5000 
     74 N          -3.6680  -22.3733  -46.3081 N.am      13 UNK        -0.5000 
     75 CA         -4.2290  -23.6533  -45.8725 C.3       13 UNK         0.1400 
     76 CB         -3.9831  -23.8353  -44.3673 C.3       13 UNK        -0.1800 
     77 C          -3.6823  -24.8603  -46.6581 C.2       13 UNK         0.5000 
     78 O          -4.4121  -25.8335  -46.8438 O.2       13 UNK        -0.5000 
     79 N          -2.4220  -24.7847  -47.1059 N.am      14 UNK        -0.5000 
     80 CA         -1.7948  -25.7842  -47.9692 C.3       14 UNK         0.1400 
     81 CB         -0.2669  -25.6279  -47.9211 C.3       14 UNK        -0.1800 
     82 C          -2.3111  -25.7037  -49.4171 C.2       14 UNK         0.5000 
     83 O          -2.5389  -26.7455  -50.0332 O.2       14 UNK        -0.5000 
     84 N          -2.4863  -24.4773  -49.9310 N.am      15 UNK        -0.5000 
     85 CA         -3.0104  -24.2004  -51.2680 C.3       15 UNK         0.1400 
     86 CB         -2.7857  -22.7211  -51.6168 C.3       15 UNK        -0.1800 
     87 C          -4.4899  -24.6014  -51.4093 C.2       15 UNK         0.5000 
     88 O          -4.8233  -25.3466  -52.3324 O.2       15 UNK        -0.5000 
     89 N          -5.3327  -24.1231  -50.4785 N.am      16 UNK        -0.5000 
     90 CA         -6.7399  -24.4856  -50.2446 C.3       16 UNK         0.1400 
     91 CB         -6.7976  -25.8853  -49.6005 C.3       16 UNK        -0.1800 
     92 C          -7.6788  -24.3988  -51.4713 C.2       16 UNK         0.5000 
     93 O          -8.7014  -25.0851  -51.5006 O.2       16 UNK        -0.5000 
     94 N          -7.2948  -23.6113  -52.4858 N.am      17 UNK        -0.5000 
     95 CA         -7.8490  -23.5444  -53.8455 C.3       17 UNK         0.1400 
     96 CB         -9.2978  -23.0198  -53.8321 C.3       17 UNK        -0.1800 
     97 C          -7.7095  -24.8516  -54.6653 C.2       17 UNK         0.5000 
     98 O          -8.1375  -24.8882  -55.8193 O.2       17 UNK        -0.5000 
     99 N          -7.0756  -25.8857  -54.0943 N.am      18 UNK        -0.5000 
    100 CA        -6.7231  -27.1443  -54.7512 C.3       18 UNK         0.1400 
    101 CB        -6.4531  -28.2140  -53.6825 C.3       18 UNK        -0.1800 
    102 C         -5.5004  -26.9609  -55.6654 C.2       18 UNK         0.5000 
    103 O         -5.4280  -27.5791  -56.7268 O.2       18 UNK        -0.5000 
    104 N         -4.6049  -26.0445  -55.2729 N.am      19 UNK        -0.5000 
    105 CA        -3.4938  -25.5233  -56.0718 C.3       19 UNK         0.1400 
    106 CB        -2.3904  -25.0515  -55.1080 C.3       19 UNK        -0.1800 
    107 C         -3.9390  -24.3911  -57.0296 C.2       19 UNK         0.5000 
    108 O         -3.1237  -23.5417  -57.3887 O.2       19 UNK        -0.5000 
    109 N         -5.2311  -24.3678  -57.3900 N.am      20 UNK        -0.5000 
    110 CA        -5.9789  -23.3659  -58.1590 C.3       20 UNK         0.1400 
    111 CB        -5.3485  -23.0894  -59.5375 C.3       20 UNK        -0.1800 
    112 C         -6.2343  -22.0662  -57.3749 C.2       20 UNK         0.5000 
    113 O         -7.3703  -21.5918  -57.3494 O.2       20 UNK        -0.5000 
    114 N         -5.1983  -21.5319  -56.7227 N.am      21 UNK        -0.5000 
    115 CA        -5.2446  -20.3570  -55.8615 C.3       21 UNK         0.1400 
    116 CB        -5.3045  -19.0797  -56.7224 C.3       21 UNK        -0.1800 
    117 C         -3.9947  -20.3512  -54.9604 C.2       21 UNK         0.5000 
    118 O         -2.9785  -20.9282  -55.3488 O.2       21 UNK        -0.5000 
    119 N         -4.0103  -19.6862  -53.7995 N.am      22 UNK        -0.5000 
    120 CA        -5.1696  -19.1043  -53.1036 C.3       22 UNK         0.1400 
    121 C         -6.0213  -20.1693  -52.3534 C.2       22 UNK         0.5000 
    122 N         -7.2003  -19.8041  -51.8699 N.am      22 UNK        -0.7600 
    123 O         -5.6414  -21.3298  -52.2263 O.2       22 UNK        -0.5000 
    124 C124       -4.7462  -17.9217  -52.1932 C.3       23 UNK        -0.0398 
    125 S125       -3.3675  -18.2838  -51.0483 S.3       23 UNK        -0.2404 
    126 C126       -2.0041  -17.4062  -51.8764 C.3       23 UNK        -0.0205 
    127 H127        4.4210   -9.9209  -48.8240 H         1 UNK         0.0600 
    128 H128        5.8296  -10.7899  -48.2066 H         1 UNK         0.0600 
    129 H129        5.3046   -9.2929  -47.4290 H         1 UNK         0.0600 
    130 H130        2.5100  -10.9247  -48.2552 H         1 UNK         0.3000 
    131 H131        2.2811  -13.0254  -46.4501 H         1 UNK         0.0600 
    132 H132       -0.2472  -12.6860  -46.7383 H         1 UNK         0.0800 
    133 H133        0.1089  -11.2610  -47.6708 H         1 UNK         0.0800 
    134 H134       -0.6896  -14.8274  -47.7062 H         1 UNK         0.0800 
    135 H135        1.0145  -15.1011  -47.3850 H         1 UNK         0.0800 
    136 H136       -1.6058  -15.4702  -50.0187 H         1 UNK         0.1150 
    137 H137        0.2234  -18.9855  -51.6608 H         1 UNK         0.1150 
    138 H138        2.1991  -16.7874  -48.5543 H         1 UNK         0.1150 
    139 H139        2.8598  -19.0863  -51.1482 H         1 UNK         0.0800 
    140 H140        3.3237  -18.6289  -49.5289 H         1 UNK         0.0800 
    141 H141        0.9843  -19.3201  -47.7322 H         1 UNK         0.0800 
    142 H142        2.3989  -20.1989  -47.2153 H         1 UNK         0.0800 
    143 H143        1.0579  -22.3596  -47.4639 H         1 UNK         0.0600 
    144 H144        0.9040  -20.5278  -45.3113 H         1 UNK         0.3000 
    145 H145       -0.8003  -22.7742  -43.0564 H         1 UNK         0.0600 
    146 H146        1.2237  -22.1933  -41.7319 H         1 UNK         0.0600 
    147 H147        1.6126  -23.3480  -42.9977 H         1 UNK         0.0600 
    148 H148        2.0471  -21.6569  -43.1962 H         1 UNK         0.0600 
    149 H149        0.0875  -20.1323  -42.6186 H         1 UNK         0.3000 
    150 H150       -2.8922  -18.4423  -43.7307 H         1 UNK         0.0600 
    151 H151       -3.2296  -19.1817  -41.3721 H         1 UNK         0.0600 
    152 H152       -2.6208  -17.5339  -41.4368 H         1 UNK         0.0600 
    153 H153       -1.5392  -18.8569  -41.0099 H         1 UNK         0.0600 
    154 H154       -0.4767  -17.3689  -42.7459 H         1 UNK         0.3000 
    155 H155        1.2747  -17.0938  -45.8595 H         1 UNK         0.0600 
    156 H156        0.2435  -15.0999  -43.7653 H         1 UNK         0.0600 
    157 H157       -0.3310  -15.1514  -45.4063 H         1 UNK         0.0600 
    158 H158        1.3579  -14.8007  -45.0806 H         1 UNK         0.0600 
    159 H159        1.9575  -16.6477  -43.0796 H         1 UNK         0.3000 
    160 H160        3.3495  -19.8265  -42.4432 H         1 UNK         0.0600 
    161 H161        4.9586  -17.2769  -42.9538 H         1 UNK         0.0600 
    162 H162        5.2108  -18.8102  -43.7778 H         1 UNK         0.0600 
    163 H163        5.4750  -18.6904  -42.0455 H         1 UNK         0.0600 
    164 H164        3.3586  -17.2372  -41.1137 H         1 UNK         0.3000 
    165 H165        0.2816  -17.7640  -39.3855 H         1 UNK         0.0600 
    166 H166        1.7268  -17.4493  -37.3948 H         1 UNK         0.0600 
    167 H167        1.9321  -19.0714  -38.0371 H         1 UNK         0.0600 
    168 H168        3.1630  -17.8500  -38.3375 H         1 UNK         0.0600 
    169 H169        2.2943  -15.7242  -39.2534 H         1 UNK         0.3000 
    170 H170        0.5342  -13.4819  -41.3481 H         1 UNK         0.0600 
    171 H171        1.0700  -13.4232  -38.8860 H         1 UNK         0.0600 
    172 H172        2.7668  -13.7217  -39.2587 H         1 UNK         0.0600 
    173 H173        1.9852  -12.2512  -39.8193 H         1 UNK         0.0600 
    174 H174        2.2507  -13.1762  -42.7039 H         1 UNK         0.3000 
    175 H175        5.6530  -14.2767  -42.7495 H         1 UNK         0.0600 
    176 H176        3.4871  -14.1698  -44.8957 H         1 UNK         0.0600 
    177 H177        5.2162  -14.3411  -45.1430 H         1 UNK         0.0600 
    178 H178        4.2992  -15.6489  -44.4132 H         1 UNK         0.0600 
    179 H179        4.4185  -12.1085  -44.0873 H         1 UNK         0.3000 
    180 H180        4.9388   -9.6088  -41.5922 H         1 UNK         0.0600 
    181 H181        6.3353  -10.1841  -44.2598 H         1 UNK         0.0600 
    182 H182        7.1302   -9.8660  -42.7239 H         1 UNK         0.0600 
    183 H183        6.1824   -8.6033  -43.4947 H         1 UNK         0.0600 
    184 H184        3.8747   -9.8964  -44.3271 H         1 UNK         0.3000 
    185 H185        0.4941   -9.8103  -43.3015 H         1 UNK         0.0600 
    186 H186        1.0472   -7.3787  -43.1374 H         1 UNK         0.0600 
    187 H187        2.0716   -7.5022  -44.5627 H         1 UNK         0.0600 
    188 H188        0.3318   -7.7640  -44.6942 H         1 UNK         0.0600 
    189 H189        1.7334   -9.5747  -45.8691 H         1 UNK         0.3000 
    190 H190       -1.4419  -19.8871  -46.6703 H         1 UNK         0.3000 
    191 H191       -3.1207  -20.3835  -48.8985 H         1 UNK         0.0600 
    192 H192       -3.8124  -19.3432  -46.1005 H         1 UNK         0.0600 
    193 H193       -4.8504  -19.2227  -47.5187 H         1 UNK         0.0600 
    194 H194       -3.3153  -18.3679  -47.4825 H         1 UNK         0.0600 
    195 H195       -3.0857  -21.8828  -45.6346 H         1 UNK         0.3000 
    196 H196       -5.3078  -23.6173  -46.0374 H         1 UNK         0.0600 
    197 H197       -4.4075  -24.7750  -44.0117 H         1 UNK         0.0600 
    198 H198       -4.4449  -23.0323  -43.7926 H         1 UNK         0.0600 
    199 H199       -2.9182  -23.8455  -44.1332 H         1 UNK         0.0600 
    200 H200       -1.8533  -23.9893  -46.8375 H         1 UNK         0.3000 
    201 H201       -2.0399  -26.7756  -47.5823 H         1 UNK         0.0600 
    202 H202        0.1091  -25.7503  -46.9053 H         1 UNK         0.0600 
    203 H203        0.0527  -24.6494  -48.2795 H         1 UNK         0.0600 
    204 H204        0.2215  -26.3800  -48.5418 H         1 UNK         0.0600 
    205 H205       -2.2076  -23.6726  -49.3762 H         1 UNK         0.3000 
    206 H206       -2.4379  -24.7996  -51.9787 H         1 UNK         0.0600 
    207 H207       -1.7253  -22.4689  -51.6014 H         1 UNK         0.0600 
    208 H208       -3.1594  -22.4945  -52.6159 H         1 UNK         0.0600 
    209 H209       -3.2944  -22.0578  -50.9164 H         1 UNK         0.0600 
    210 H210       -4.9522  -23.4737  -49.7929 H         1 UNK         0.3000 
    211 H211       -7.1203  -23.7653  -49.5193 H         1 UNK         0.0600 
    212 H212       -6.4666  -26.6598  -50.2938 H         1 UNK         0.0600 
    213 H213       -7.8096  -26.1373  -49.2816 H         1 UNK         0.0600 
    214 H214       -6.1647  -25.9380  -48.7172 H         1 UNK         0.0600 
    215 H215       -6.4740  -23.0280  -52.3339 H         1 UNK         0.3000 
    216 H216       -7.2413  -22.8043  -54.3680 H         1 UNK         0.0600 
    217 H217       -9.6490  -22.8223  -54.8456 H         1 UNK         0.0600 
    218 H218       -9.3724  -22.0848  -53.2768 H         1 UNK         0.0600 
    219 H219       -9.9869  -23.7353  -53.3833 H         1 UNK         0.0600 
    220 H220       -6.6786  -25.7428  -53.1729 H         1 UNK         0.3000 
    221 H221       -7.5648  -27.4713  -55.3653 H         1 UNK         0.0600 
    222 H222       -5.6168  -27.9397  -53.0380 H         1 UNK         0.0600 
    223 H223       -7.3271  -28.3659  -53.0488 H         1 UNK         0.0600 
    224 H224       -6.2130  -29.1731  -54.1429 H         1 UNK         0.0600 
    225 H225       -4.7388  -25.6205  -54.3605 H         1 UNK         0.3000 
    226 H226       -3.0875  -26.3284  -56.6870 H         1 UNK         0.0600 
    227 H227       -2.0984  -25.8462  -54.4212 H         1 UNK         0.0600 
    228 H228       -1.4944  -24.7495  -55.6515 H         1 UNK         0.0600 
    229 H229       -2.7179  -24.1972  -54.5142 H         1 UNK         0.0600 
    230 H230       -5.8080  -25.1119  -57.0231 H         1 UNK         0.3000 
    231 H231       -6.9566  -23.8165  -58.3383 H         1 UNK         0.0600 
    232 H232       -6.0020  -22.4565  -60.1390 H         1 UNK         0.0600 
    233 H233       -5.1907  -24.0144  -60.0921 H         1 UNK         0.0600 
    234 H234       -4.3899  -22.5766  -59.4575 H         1 UNK         0.0600 
    235 H235       -4.2888  -21.9849  -56.7810 H         1 UNK         0.3000 
    236 H236       -6.1414  -20.4345  -55.2461 H         1 UNK         0.0600 
    237 H237       -4.4559  -19.0207  -57.4051 H         1 UNK         0.0600 
    238 H238       -6.2157  -19.0428  -57.3193 H         1 UNK         0.0600 
    239 H239       -5.2882  -18.1810  -56.1055 H         1 UNK         0.0600 
    240 H240       -3.1756  -19.7152  -53.2346 H         1 UNK         0.3000 
    241 H241       -5.8358  -18.6758  -53.8522 H         1 UNK         0.0600 
    242 H242       -7.7570  -20.4890  -51.3849 H         1 UNK         0.3800 
    243 H243       -7.5542  -18.8656  -51.9690 H         1 UNK         0.3800 
    244 H244       -4.4707  -17.0767  -52.8250 H         1 UNK         0.0800 
    245 H245       -5.5896  -17.5613  -51.6023 H         1 UNK         0.0800 
    246 H246       -2.3397  -16.4204  -52.2022 H         1 UNK         0.0800 
    247 H247       -1.7138  -17.9470  -52.7783 H         1 UNK         0.0800 
@<TRIPOS>BOND
     1    1    2 1    
     2    1  127 1    
     3    1  128 1    
     4    1  129 1    
     5    2    3 2    
     6    2    4 am   BACKBONE|DICT|INTERRES
     7    4    5 1    
     8    4  130 1    
     9    5    6 1    
    10    5   65 1    
    11    5  131 1    
    12    6    7 1    
    13    6  132 1    
    14    6  133 1    
    15    7    8 1    
    16    8    9 1    
    17    8  134 1    
    18    8  135 1    
    19    9   10 ar   
    20    9   14 ar   
    21   10   11 ar   
    22   10  136 1    
    23   11   12 ar   
    24   11  126 1    
    25   12   13 ar   
    26   12  137 1    
    27   13   14 ar   
    28   13   15 1    
    29   14  138 1    
    30   15   16 1    
    31   15  139 1    
    32   15  140 1    
    33   16   17 1    
    34   17   18 1    
    35   17  141 1    
    36   17  142 1    
    37   18   19 1    
    38   18   67 1    
    39   18  143 1    
    40   19   20 am   BACKBONE|DICT|INTERRES
    41   19  144 1    
    42   20   21 2    
    43   20   22 1    
    44   22   23 1    
    45   22   24 1    
    46   22  145 1    
    47   23  146 1    
    48   23  147 1    
    49   23  148 1    
    50   24   25 am   BACKBONE|DICT|INTERRES
    51   24  149 1    
    52   25   26 2    
    53   25   27 1    
    54   27   28 1    
    55   27   29 1    
    56   27  150 1    
    57   28  151 1    
    58   28  152 1    
    59   28  153 1    
    60   29   30 am   BACKBONE|DICT|INTERRES
    61   29  154 1    
    62   30   31 2    
    63   30   32 1    
    64   32   33 1    
    65   32   34 1    
    66   32  155 1    
    67   33  156 1    
    68   33  157 1    
    69   33  158 1    
    70   34   35 am   BACKBONE|DICT|INTERRES
    71   34  159 1    
    72   35   36 2    
    73   35   37 1    
    74   37   38 1    
    75   37   39 1    
    76   37  160 1    
    77   38  161 1    
    78   38  162 1    
    79   38  163 1    
    80   39   40 am   BACKBONE|DICT|INTERRES
    81   39  164 1    
    82   40   41 2    
    83   40   42 1    
    84   42   43 1    
    85   42   44 1    
    86   42  165 1    
    87   43  166 1    
    88   43  167 1    
    89   43  168 1    
    90   44   45 am   BACKBONE|DICT|INTERRES
    91   44  169 1    
    92   45   46 2    
    93   45   47 1    
    94   47   48 1    
    95   47   49 1    
    96   47  170 1    
    97   48  171 1    
    98   48  172 1    
    99   48  173 1    
   100   49   50 am   BACKBONE|DICT|INTERRES
   101   49  174 1    
   102   50   51 2    
   103   50   52 1    
   104   52   53 1    
   105   52   54 1    
   106   52  175 1    
   107   53  176 1    
   108   53  177 1    
   109   53  178 1    
   110   54   55 am   BACKBONE|DICT|INTERRES
   111   54  179 1    
   112   55   56 2    
   113   55   57 1    
   114   57   58 1    
   115   57   59 1    
   116   57  180 1    
   117   58  181 1    
   118   58  182 1    
   119   58  183 1    
   120   59   60 am   BACKBONE|DICT|INTERRES
   121   59  184 1    
   122   60   61 2    
   123   60   62 1    
   124   62   63 1    
   125   62   64 1    
   126   62  185 1    
   127   63  186 1    
   128   63  187 1    
   129   63  188 1    
   130   64   65 am   BACKBONE|DICT|INTERRES
   131   64  189 1    
   132   65   66 2    
   133   67   68 2    
   134   67   69 am   BACKBONE|DICT|INTERRES
   135   69   70 1    
   136   69  190 1    
   137   70   71 1    
   138   70   72 1    
   139   70  191 1    
   140   71  192 1    
   141   71  193 1    
   142   71  194 1    
   143   72   73 2    
   144   72   74 am   BACKBONE|DICT|INTERRES
   145   74   75 1    
   146   74  195 1    
   147   75   76 1    
   148   75   77 1    
   149   75  196 1    
   150   76  197 1    
   151   76  198 1    
   152   76  199 1    
   153   77   78 2    
   154   77   79 am   BACKBONE|DICT|INTERRES
   155   79   80 1    
   156   79  200 1    
   157   80   81 1    
   158   80   82 1    
   159   80  201 1    
   160   81  202 1    
   161   81  203 1    
   162   81  204 1    
   163   82   83 2    
   164   82   84 am   BACKBONE|DICT|INTERRES
   165   84   85 1    
   166   84  205 1    
   167   85   86 1    
   168   85   87 1    
   169   85  206 1    
   170   86  207 1    
   171   86  208 1    
   172   86  209 1    
   173   87   88 2    
   174   87   89 am   BACKBONE|DICT|INTERRES
   175   89   90 1    
   176   89  210 1    
   177   90   91 1    
   178   90   92 1    
   179   90  211 1    
   180   91  212 1    
   181   91  213 1    
   182   91  214 1    
   183   92   93 2    
   184   92   94 am   BACKBONE|DICT|INTERRES
   185   94   95 1    
   186   94  215 1    
   187   95   96 1    
   188   95   97 1    
   189   95  216 1    
   190   96  217 1    
   191   96  218 1    
   192   96  219 1    
   193   97   98 2    
   194   97   99 am   BACKBONE|DICT|INTERRES
   195   99  100 1    
   196   99  220 1    
   197  100  101 1    
   198  100  102 1    
   199  100  221 1    
   200  101  222 1    
   201  101  223 1    
   202  101  224 1    
   203  102  103 2    
   204  102  104 am   BACKBONE|DICT|INTERRES
   205  104  105 1    
   206  104  225 1    
   207  105  106 1    
   208  105  107 1    
   209  105  226 1    
   210  106  227 1    
   211  106  228 1    
   212  106  229 1    
   213  107  108 2    
   214  107  109 am   BACKBONE|DICT|INTERRES
   215  109  110 1    
   216  109  230 1    
   217  110  111 1    
   218  110  112 1    
   219  110  231 1    
   220  111  232 1    
   221  111  233 1    
   222  111  234 1    
   223  112  113 2    
   224  112  114 am   BACKBONE|DICT|INTERRES
   225  114  115 1    
   226  114  235 1    
   227  115  116 1    
   228  115  117 1    
   229  115  236 1    
   230  116  237 1    
   231  116  238 1    
   232  116  239 1    
   233  117  118 2    
   234  117  119 am   BACKBONE|DICT|INTERRES
   235  119  120 1    
   236  119  240 1    
   237  120  121 1    
   238  120  124 1    
   239  120  241 1    
   240  121  122 am   BACKBONE|DICT|INTERRES
   241  121  123 2    
   242  122  242 1    
   243  122  243 1    
   244  124  125 1    
   245  124  244 1    
   246  124  245 1    
   247  125  126 1    
   248  126  246 1    
   249  126  247 1    
@<TRIPOS>SUBSTRUCTURE
     1 UNK         1 GROUP             0       ****    0 ROOT    
