@<TRIPOS>MOLECULE
3R540
247   249    1
SMALL
USER_CHARGES


@<TRIPOS>ATOM
      1 CA         -0.1037  -13.0450  -52.3204 C.3       0 UNK        -0.1800 
      2 C           0.4410  -13.6041  -51.0144 C.2       0 UNK         0.5000 
      3 O           1.5487  -14.1404  -50.9907 O.2       0 UNK        -0.5000 
      4 N          -0.3378  -13.4866  -49.9326 N.am      1 UNK        -0.5000 
      5 CA          0.0222  -13.9241  -48.5806 C.3       1 UNK         0.1400 
      6 C6         -1.2000  -13.9044  -47.6269 C.3       23 UNK        -0.0398 
      7 S7         -2.5514  -14.9900  -48.1956 S.3       23 UNK        -0.2404 
      8 C8         -2.2298  -16.4887  -47.2202 C.3       23 UNK        -0.0205 
      9 C9         -3.1311  -17.6336  -47.6507 C.ar      23 UNK        -0.0193 
     10 C10        -2.8526  -18.3331  -48.8281 C.ar      23 UNK        -0.1150 
     11 C11        -3.6743  -19.3819  -49.2424 C.ar      23 UNK        -0.0193 
     12 C12        -4.7800  -19.7351  -48.4669 C.ar      23 UNK        -0.1150 
     13 C13        -5.0653  -19.0531  -47.2810 C.ar      23 UNK        -0.0193 
     14 C14        -4.2380  -18.0000  -46.8779 C.ar      23 UNK        -0.1150 
     15 C15        -6.2743  -19.4532  -46.4463 C.3       23 UNK        -0.0205 
     16 S16        -5.8210  -20.4338  -44.9780 S.3       23 UNK        -0.2404 
     17 C17        -4.9344  -21.8489  -45.7164 C.3       23 UNK        -0.0398 
     18 CA         -3.3988  -21.7316  -45.5099 C.3       11 UNK         0.1400 
     19 N          -2.9887  -21.7834  -44.0992 N.am      11 UNK        -0.5000 
     20 C          -3.0944  -22.8348  -43.2717 C.2       10 UNK         0.5000 
     21 O          -3.6881  -23.8765  -43.5525 O.2       10 UNK        -0.5000 
     22 CA         -2.3802  -22.7319  -41.9111 C.3       10 UNK         0.1400 
     23 CB         -1.0417  -23.4854  -41.9665 C.3       10 UNK        -0.1800 
     24 N          -2.1310  -21.3536  -41.4900 N.am      10 UNK        -0.5000 
     25 C          -3.0731  -20.5242  -41.0221 C.2       9 UNK         0.5000 
     26 O          -4.2469  -20.8516  -40.8436 O.2       9 UNK        -0.5000 
     27 CA         -2.6323  -19.0814  -40.7173 C.3       9 UNK         0.1400 
     28 CB         -1.9914  -18.9932  -39.3239 C.3       9 UNK        -0.1800 
     29 N          -1.7067  -18.5428  -41.7157 N.am      9 UNK        -0.5000 
     30 C          -2.0210  -18.3070  -42.9975 C.2       8 UNK         0.5000 
     31 O          -3.1323  -18.5131  -43.4810 O.2       8 UNK        -0.5000 
     32 CA         -0.8985  -17.7655  -43.8979 C.3       8 UNK         0.1400 
     33 CB         -0.6945  -16.2634  -43.6459 C.3       8 UNK        -0.1800 
     34 N           0.3629  -18.4822  -43.7163 N.am      8 UNK        -0.5000 
     35 C           0.5525  -19.7732  -44.0289 C.2       7 UNK         0.5000 
     36 O          -0.2925  -20.4834  -44.5760 O.2       7 UNK        -0.5000 
     37 CA          1.8989  -20.3879  -43.6119 C.3       7 UNK         0.1400 
     38 CB          2.9843  -20.1019  -44.6618 C.3       7 UNK        -0.1800 
     39 N           2.3374  -19.9116  -42.2989 N.am      7 UNK        -0.5000 
     40 C           1.7218  -20.2066  -41.1440 C.2       6 UNK         0.5000 
     41 O           0.7313  -20.9312  -41.0622 O.2       6 UNK        -0.5000 
     42 CA          2.2782  -19.5416  -39.8721 C.3       6 UNK         0.1400 
     43 CB          3.4733  -20.3355  -39.3241 C.3       6 UNK        -0.1800 
     44 N           2.6800  -18.1532  -40.0973 N.am      6 UNK        -0.5000 
     45 C           1.8374  -17.1591  -40.4130 C.2       5 UNK         0.5000 
     46 O           0.6177  -17.2976  -40.4920 O.2       5 UNK        -0.5000 
     47 CA          2.4733  -15.7982  -40.7541 C.3       5 UNK         0.1400 
     48 CB          2.6418  -14.9466  -39.4874 C.3       5 UNK        -0.1800 
     49 N           3.7683  -15.9336  -41.4286 N.am      5 UNK        -0.5000 
     50 C           3.9301  -16.4866  -42.6369 C.2       4 UNK         0.5000 
     51 O           2.9975  -16.9098  -43.3265 O.2       4 UNK        -0.5000 
     52 CA          5.3737  -16.6544  -43.1249 C.3       4 UNK         0.1400 
     53 CB          5.9966  -17.9335  -42.5350 C.3       4 UNK        -0.1800 
     54 N           5.3608  -16.7302  -44.5793 N.am      4 UNK        -0.5000 
     55 C           6.4011  -16.5043  -45.3901 C.2       3 UNK         0.5000 
     56 O           7.5358  -16.2406  -44.9903 O.2       3 UNK        -0.5000 
     57 CA          6.1291  -16.5737  -46.9073 C.3       3 UNK         0.1400 
     58 CB          6.4818  -17.9672  -47.4505 C.3       3 UNK        -0.1800 
     59 N           4.7405  -16.2671  -47.2604 N.am      3 UNK        -0.5000 
     60 C           4.1743  -15.0590  -47.1440 C.2       2 UNK         0.5000 
     61 O           4.7794  -14.0435  -46.7887 O.2       2 UNK        -0.5000 
     62 CA          2.6704  -14.9913  -47.4419 C.3       2 UNK         0.1400 
     63 CB          1.8824  -15.7607  -46.3645 C.3       2 UNK        -0.1800 
     64 N           2.2608  -13.5899  -47.4822 N.am      2 UNK        -0.5000 
     65 C           1.1597  -13.0390  -48.0104 C.2       1 UNK         0.5000 
     66 O           1.0156  -11.8159  -48.0361 O.2       1 UNK        -0.5000 
     67 C          -2.5883  -22.7567  -46.3356 C.2       11 UNK         0.5000 
     68 O          -3.1484  -23.4985  -47.1443 O.2       11 UNK        -0.5000 
     69 N          -1.2786  -22.8095  -46.0617 N.am      12 UNK        -0.5000 
     70 CA         -0.3465  -23.8100  -46.5623 C.3       12 UNK         0.1400 
     71 CB         -0.5443  -25.1356  -45.7986 C.3       12 UNK        -0.1800 
     72 C           1.0819  -23.2552  -46.4030 C.2       12 UNK         0.5000 
     73 O           1.7066  -23.4964  -45.3710 O.2       12 UNK        -0.5000 
     74 N           1.6062  -22.4843  -47.3620 N.am      13 UNK        -0.5000 
     75 CA          0.9847  -22.0388  -48.6039 C.3       13 UNK         0.1400 
     76 CB          1.1912  -23.1021  -49.7011 C.3       13 UNK        -0.1800 
     77 C           1.6196  -20.7057  -49.0229 C.2       13 UNK         0.5000 
     78 O           2.6969  -20.3559  -48.5320 O.2       13 UNK        -0.5000 
     79 N           0.9580  -20.0047  -49.9464 N.am      14 UNK        -0.5000 
     80 CA          1.4393  -18.7868  -50.5860 C.3       14 UNK         0.1400 
     81 CB          1.1766  -17.5751  -49.6790 C.3       14 UNK        -0.1800 
     82 C           0.7363  -18.6302  -51.9405 C.2       14 UNK         0.5000 
     83 O          -0.3022  -19.2549  -52.1693 O.2       14 UNK        -0.5000 
     84 N           1.2902  -17.7755  -52.8078 N.am      15 UNK        -0.5000 
     85 CA          0.8063  -17.4986  -54.1656 C.3       15 UNK         0.1400 
     86 CB          1.9826  -16.9617  -55.0016 C.3       15 UNK        -0.1800 
     87 C          -0.4230  -16.5600  -54.2043 C.2       15 UNK         0.5000 
     88 O          -0.4906  -15.6617  -55.0458 O.2       15 UNK        -0.5000 
     89 N          -1.3694  -16.7731  -53.2848 N.am      16 UNK        -0.5000 
     90 CA         -2.6381  -16.0563  -53.1943 C.3       16 UNK         0.1400 
     91 CB         -3.1424  -16.1478  -51.7457 C.3       16 UNK        -0.1800 
     92 C          -3.6780  -16.6232  -54.1806 C.2       16 UNK         0.5000 
     93 O          -3.4555  -17.6682  -54.7972 O.2       16 UNK        -0.5000 
     94 N          -4.8183  -15.9289  -54.2900 N.am      17 UNK        -0.5000 
     95 CA         -5.9391  -16.2805  -55.1692 C.3       17 UNK         0.1400 
     96 CB         -6.9175  -15.0967  -55.2194 C.3       17 UNK        -0.1800 
     97 C          -6.6821  -17.5743  -54.7735 C.2       17 UNK         0.5000 
     98 O          -7.3923  -18.1394  -55.6070 O.2       17 UNK        -0.5000 
     99 N          -6.5085  -18.0310  -53.5252 N.am      18 UNK        -0.5000 
    100 CA        -7.0799  -19.2571  -52.9630 C.3       18 UNK         0.1400 
    101 CB        -7.0599  -19.1508  -51.4278 C.3       18 UNK        -0.1800 
    102 C         -6.3844  -20.5341  -53.4876 C.2       18 UNK         0.5000 
    103 O         -5.8698  -21.3391  -52.7078 O.2       18 UNK        -0.5000 
    104 N         -6.3989  -20.7156  -54.8136 N.am      19 UNK        -0.5000 
    105 CA        -5.8015  -21.8444  -55.5332 C.3       19 UNK         0.1400 
    106 CB        -5.9366  -21.6014  -57.0432 C.3       19 UNK        -0.1800 
    107 C         -6.3922  -23.2155  -55.1489 C.2       19 UNK         0.5000 
    108 O         -5.7002  -24.2261  -55.2634 O.2       19 UNK        -0.5000 
    109 N         -7.6379  -23.2269  -54.6553 N.am      20 UNK        -0.5000 
    110 CA        -8.3022  -24.4045  -54.0949 C.3       20 UNK         0.1400 
    111 CB        -9.7827  -24.0718  -53.8539 C.3       20 UNK        -0.1800 
    112 C         -7.6470  -24.9197  -52.7956 C.2       20 UNK         0.5000 
    113 O         -7.7661  -26.1089  -52.4974 O.2       20 UNK        -0.5000 
    114 N         -6.9735  -24.0296  -52.0530 N.am      21 UNK        -0.5000 
    115 CA        -6.2377  -24.3550  -50.8345 C.3       21 UNK         0.1400 
    116 CB        -6.4157  -23.2224  -49.8091 C.3       21 UNK        -0.1800 
    117 C         -4.7505  -24.5887  -51.1414 C.2       21 UNK         0.5000 
    118 O         -4.2143  -25.6339  -50.7707 O.2       21 UNK        -0.5000 
    119 N         -4.1137  -23.6137  -51.8034 N.am      22 UNK        -0.5000 
    120 CA        -2.6584  -23.5963  -52.0381 C.3       22 UNK         0.1400 
    121 C         -2.1864  -24.3178  -53.3323 C.2       22 UNK         0.5000 
    122 N         -3.0611  -24.7634  -54.2230 N.am      22 UNK        -0.7600 
    123 O         -0.9874  -24.4980  -53.5269 O.2       22 UNK        -0.5000 
    124 C124       -2.0852  -22.1602  -51.9521 C.3       23 UNK        -0.0398 
    125 S125       -2.2192  -21.4845  -50.2627 S.3       23 UNK        -0.2404 
    126 C126       -3.3782  -20.1212  -50.5344 C.3       23 UNK        -0.0205 
    127 H127        0.4031  -12.1127  -52.5686 H         1 UNK         0.0600 
    128 H128       -1.1747  -12.8498  -52.2608 H         1 UNK         0.0600 
    129 H129        0.0664  -13.7507  -53.1324 H         1 UNK         0.0600 
    130 H130       -1.2322  -13.0254  -50.0130 H         1 UNK         0.3000 
    131 H131        0.3529  -14.9565  -48.6718 H         1 UNK         0.0600 
    132 H132       -0.9141  -14.1923  -46.6140 H         1 UNK         0.0800 
    133 H133       -1.6001  -12.8921  -47.5441 H         1 UNK         0.0800 
    134 H134       -1.1884  -16.7901  -47.3353 H         1 UNK         0.0800 
    135 H135       -2.3821  -16.2595  -46.1654 H         1 UNK         0.0800 
    136 H136       -2.0043  -18.0540  -49.4338 H         1 UNK         0.1150 
    137 H137       -5.4193  -20.5440  -48.7875 H         1 UNK         0.1150 
    138 H138       -4.4554  -17.4718  -45.9599 H         1 UNK         0.1150 
    139 H139       -6.8008  -18.5551  -46.1206 H         1 UNK         0.0800 
    140 H140       -6.9859  -20.0200  -47.0487 H         1 UNK         0.0800 
    141 H141       -5.1845  -21.9098  -46.7755 H         1 UNK         0.0800 
    142 H142       -5.3189  -22.7686  -45.2750 H         1 UNK         0.0800 
    143 H143       -3.0874  -20.7529  -45.8790 H         1 UNK         0.0600 
    144 H144       -2.4745  -20.9763  -43.7730 H         1 UNK         0.3000 
    145 H145       -3.0140  -23.2153  -41.1648 H         1 UNK         0.0600 
    146 H146       -0.5421  -23.4751  -40.9977 H         1 UNK         0.0600 
    147 H147       -0.3631  -23.0446  -42.6986 H         1 UNK         0.0600 
    148 H148       -1.1905  -24.5296  -42.2439 H         1 UNK         0.0600 
    149 H149       -1.1683  -21.0316  -41.5366 H         1 UNK         0.3000 
    150 H150       -3.5265  -18.4546  -40.7198 H         1 UNK         0.0600 
    151 H151       -2.6675  -19.3738  -38.5573 H         1 UNK         0.0600 
    152 H152       -1.7532  -17.9616  -39.0644 H         1 UNK         0.0600 
    153 H153       -1.0700  -19.5735  -39.2680 H         1 UNK         0.0600 
    154 H154       -0.7819  -18.2850  -41.3826 H         1 UNK         0.3000 
    155 H155       -1.2068  -17.9065  -44.9348 H         1 UNK         0.0600 
    156 H156       -1.6188  -15.7102  -43.8168 H         1 UNK         0.0600 
    157 H157        0.0585  -15.8453  -44.3075 H         1 UNK         0.0600 
    158 H158       -0.3811  -16.0620  -42.6221 H         1 UNK         0.0600 
    159 H159        1.1322  -17.9653  -43.3064 H         1 UNK         0.3000 
    160 H160        1.7637  -21.4694  -43.5481 H         1 UNK         0.0600 
    161 H161        2.6868  -20.4806  -45.6393 H         1 UNK         0.0600 
    162 H162        3.9250  -20.5857  -44.3994 H         1 UNK         0.0600 
    163 H163        3.1748  -19.0359  -44.7767 H         1 UNK         0.0600 
    164 H164        3.1108  -19.2650  -42.2859 H         1 UNK         0.3000 
    165 H165        1.4880  -19.5483  -39.1184 H         1 UNK         0.0600 
    166 H166        3.8262  -19.9161  -38.3818 H         1 UNK         0.0600 
    167 H167        3.1969  -21.3734  -39.1332 H         1 UNK         0.0600 
    168 H168        4.3101  -20.3418  -40.0237 H         1 UNK         0.0600 
    169 H169        3.6666  -17.9488  -40.0454 H         1 UNK         0.3000 
    170 H170        1.7931  -15.2758  -41.4302 H         1 UNK         0.0600 
    171 H171        1.6869  -14.8146  -38.9768 H         1 UNK         0.0600 
    172 H172        3.3319  -15.4074  -38.7795 H         1 UNK         0.0600 
    173 H173        3.0201  -13.9529  -39.7279 H         1 UNK         0.0600 
    174 H174        4.5789  -15.6110  -40.9196 H         1 UNK         0.3000 
    175 H175        5.9511  -15.7810  -42.8146 H         1 UNK         0.0600 
    176 H176        5.4544  -18.8262  -42.8492 H         1 UNK         0.0600 
    177 H177        7.0346  -18.0491  -42.8470 H         1 UNK         0.0600 
    178 H178        5.9908  -17.9097  -41.4447 H         1 UNK         0.0600 
    179 H179        4.4460  -16.9050  -44.9737 H         1 UNK         0.3000 
    180 H180        6.7765  -15.8410  -47.3937 H         1 UNK         0.0600 
    181 H181        5.8509  -18.7420  -47.0123 H         1 UNK         0.0600 
    182 H182        7.5185  -18.2229  -47.2271 H         1 UNK         0.0600 
    183 H183        6.3640  -18.0106  -48.5334 H         1 UNK         0.0600 
    184 H184        4.1793  -17.0483  -47.5678 H         1 UNK         0.3000 
    185 H185        2.5234  -15.4339  -48.4257 H         1 UNK         0.0600 
    186 H186        2.2030  -16.8007  -46.2934 H         1 UNK         0.0600 
    187 H187        2.0286  -15.3100  -45.3824 H         1 UNK         0.0600 
    188 H188        0.8157  -15.7818  -46.5677 H         1 UNK         0.0600 
    189 H189        2.9882  -12.9775  -47.1331 H         1 UNK         0.3000 
    190 H190       -0.8876  -22.1197  -45.4230 H         1 UNK         0.3000 
    191 H191       -0.5545  -24.0039  -47.6137 H         1 UNK         0.0600 
    192 H192       -0.4365  -25.0015  -44.7216 H         1 UNK         0.0600 
    193 H193        0.1874  -25.8800  -46.1142 H         1 UNK         0.0600 
    194 H194       -1.5331  -25.5559  -45.9822 H         1 UNK         0.0600 
    195 H195        2.5192  -22.0731  -47.2174 H         1 UNK         0.3000 
    196 H196       -0.0768  -21.8587  -48.4367 H         1 UNK         0.0600 
    197 H197        2.2512  -23.2705  -49.8954 H         1 UNK         0.0600 
    198 H198        0.7507  -24.0622  -49.4370 H         1 UNK         0.0600 
    199 H199        0.7353  -22.7913  -50.6411 H         1 UNK         0.0600 
    200 H200        0.0914  -20.3579  -50.3380 H         1 UNK         0.3000 
    201 H201        2.5118  -18.8801  -50.7704 H         1 UNK         0.0600 
    202 H202        1.6511  -17.6984  -48.7061 H         1 UNK         0.0600 
    203 H203        0.1132  -17.4124  -49.5142 H         1 UNK         0.0600 
    204 H204        1.5778  -16.6689  -50.1305 H         1 UNK         0.0600 
    205 H205        2.1099  -17.2592  -52.5226 H         1 UNK         0.3000 
    206 H206        0.4886  -18.4420  -54.6147 H         1 UNK         0.0600 
    207 H207        2.8214  -17.6580  -54.9958 H         1 UNK         0.0600 
    208 H208        1.6931  -16.8183  -56.0434 H         1 UNK         0.0600 
    209 H209        2.3386  -16.0028  -54.6229 H         1 UNK         0.0600 
    210 H210       -1.2616  -17.5910  -52.6953 H         1 UNK         0.3000 
    211 H211       -2.4691  -15.0053  -53.4378 H         1 UNK         0.0600 
    212 H212       -3.4491  -17.1605  -51.4875 H         1 UNK         0.0600 
    213 H213       -4.0000  -15.4951  -51.5805 H         1 UNK         0.0600 
    214 H214       -2.3674  -15.8432  -51.0426 H         1 UNK         0.0600 
    215 H215       -4.9296  -15.0850  -53.7463 H         1 UNK         0.3000 
    216 H216       -5.5405  -16.4350  -56.1740 H         1 UNK         0.0600 
    217 H217       -7.3365  -14.8793  -54.2361 H         1 UNK         0.0600 
    218 H218       -7.7506  -15.3049  -55.8921 H         1 UNK         0.0600 
    219 H219       -6.4272  -14.1938  -55.5840 H         1 UNK         0.0600 
    220 H220       -5.8907  -17.5108  -52.9211 H         1 UNK         0.3000 
    221 H221       -8.1253  -19.3234  -53.2709 H         1 UNK         0.0600 
    222 H222       -6.0544  -18.9705  -51.0507 H         1 UNK         0.0600 
    223 H223       -7.6912  -18.3311  -51.0848 H         1 UNK         0.0600 
    224 H224       -7.4338  -20.0620  -50.9590 H         1 UNK         0.0600 
    225 H225       -6.8272  -19.9865  -55.3765 H         1 UNK         0.3000 
    226 H226       -4.7389  -21.8685  -55.2826 H         1 UNK         0.0600 
    227 H227       -5.4435  -20.6751  -57.3387 H         1 UNK         0.0600 
    228 H228       -5.4761  -22.4100  -57.6127 H         1 UNK         0.0600 
    229 H229       -6.9819  -21.5375  -57.3477 H         1 UNK         0.0600 
    230 H230       -8.1394  -22.3528  -54.6048 H         1 UNK         0.3000 
    231 H231       -8.2465  -25.2076  -54.8327 H         1 UNK         0.0600 
    232 H232      -10.3186  -24.9371  -53.4615 H         1 UNK         0.0600 
    233 H233      -10.2774  -23.7778  -54.7798 H         1 UNK         0.0600 
    234 H234       -9.9007  -23.2593  -53.1357 H         1 UNK         0.0600 
    235 H235       -6.8754  -23.0798  -52.3923 H         1 UNK         0.3000 
    236 H236       -6.6356  -25.2683  -50.3869 H         1 UNK         0.0600 
    237 H237       -7.4608  -23.1158  -49.5187 H         1 UNK         0.0600 
    238 H238       -5.8426  -23.4220  -48.9024 H         1 UNK         0.0600 
    239 H239       -6.0809  -22.2637  -50.2034 H         1 UNK         0.0600 
    240 H240       -4.6315  -22.7898  -52.0901 H         1 UNK         0.3000 
    241 H241       -2.1847  -24.1607  -51.2319 H         1 UNK         0.0600 
    242 H242       -4.0569  -24.6047  -54.1319 H         1 UNK         0.3800 
    243 H243       -2.7191  -25.2361  -55.0440 H         1 UNK         0.3800 
    244 H244       -2.5841  -21.5041  -52.6675 H         1 UNK         0.0800 
    245 H245       -1.0272  -22.1417  -52.2186 H         1 UNK         0.0800 
    246 H246       -4.2988  -20.5247  -50.9483 H         1 UNK         0.0800 
    247 H247       -2.9685  -19.4394  -51.2801 H         1 UNK         0.0800 
@<TRIPOS>BOND
     1    1    2 1    
     2    1  127 1    
     3    1  128 1    
     4    1  129 1    
     5    2    3 2    
     6    2    4 am   BACKBONE|DICT|INTERRES
     7    4    5 1    
     8    4  130 1    
     9    5    6 1    
    10    5   65 1    
    11    5  131 1    
    12    6    7 1    
    13    6  132 1    
    14    6  133 1    
    15    7    8 1    
    16    8    9 1    
    17    8  134 1    
    18    8  135 1    
    19    9   10 ar   
    20    9   14 ar   
    21   10   11 ar   
    22   10  136 1    
    23   11   12 ar   
    24   11  126 1    
    25   12   13 ar   
    26   12  137 1    
    27   13   14 ar   
    28   13   15 1    
    29   14  138 1    
    30   15   16 1    
    31   15  139 1    
    32   15  140 1    
    33   16   17 1    
    34   17   18 1    
    35   17  141 1    
    36   17  142 1    
    37   18   19 1    
    38   18   67 1    
    39   18  143 1    
    40   19   20 am   BACKBONE|DICT|INTERRES
    41   19  144 1    
    42   20   21 2    
    43   20   22 1    
    44   22   23 1    
    45   22   24 1    
    46   22  145 1    
    47   23  146 1    
    48   23  147 1    
    49   23  148 1    
    50   24   25 am   BACKBONE|DICT|INTERRES
    51   24  149 1    
    52   25   26 2    
    53   25   27 1    
    54   27   28 1    
    55   27   29 1    
    56   27  150 1    
    57   28  151 1    
    58   28  152 1    
    59   28  153 1    
    60   29   30 am   BACKBONE|DICT|INTERRES
    61   29  154 1    
    62   30   31 2    
    63   30   32 1    
    64   32   33 1    
    65   32   34 1    
    66   32  155 1    
    67   33  156 1    
    68   33  157 1    
    69   33  158 1    
    70   34   35 am   BACKBONE|DICT|INTERRES
    71   34  159 1    
    72   35   36 2    
    73   35   37 1    
    74   37   38 1    
    75   37   39 1    
    76   37  160 1    
    77   38  161 1    
    78   38  162 1    
    79   38  163 1    
    80   39   40 am   BACKBONE|DICT|INTERRES
    81   39  164 1    
    82   40   41 2    
    83   40   42 1    
    84   42   43 1    
    85   42   44 1    
    86   42  165 1    
    87   43  166 1    
    88   43  167 1    
    89   43  168 1    
    90   44   45 am   BACKBONE|DICT|INTERRES
    91   44  169 1    
    92   45   46 2    
    93   45   47 1    
    94   47   48 1    
    95   47   49 1    
    96   47  170 1    
    97   48  171 1    
    98   48  172 1    
    99   48  173 1    
   100   49   50 am   BACKBONE|DICT|INTERRES
   101   49  174 1    
   102   50   51 2    
   103   50   52 1    
   104   52   53 1    
   105   52   54 1    
   106   52  175 1    
   107   53  176 1    
   108   53  177 1    
   109   53  178 1    
   110   54   55 am   BACKBONE|DICT|INTERRES
   111   54  179 1    
   112   55   56 2    
   113   55   57 1    
   114   57   58 1    
   115   57   59 1    
   116   57  180 1    
   117   58  181 1    
   118   58  182 1    
   119   58  183 1    
   120   59   60 am   BACKBONE|DICT|INTERRES
   121   59  184 1    
   122   60   61 2    
   123   60   62 1    
   124   62   63 1    
   125   62   64 1    
   126   62  185 1    
   127   63  186 1    
   128   63  187 1    
   129   63  188 1    
   130   64   65 am   BACKBONE|DICT|INTERRES
   131   64  189 1    
   132   65   66 2    
   133   67   68 2    
   134   67   69 am   BACKBONE|DICT|INTERRES
   135   69   70 1    
   136   69  190 1    
   137   70   71 1    
   138   70   72 1    
   139   70  191 1    
   140   71  192 1    
   141   71  193 1    
   142   71  194 1    
   143   72   73 2    
   144   72   74 am   BACKBONE|DICT|INTERRES
   145   74   75 1    
   146   74  195 1    
   147   75   76 1    
   148   75   77 1    
   149   75  196 1    
   150   76  197 1    
   151   76  198 1    
   152   76  199 1    
   153   77   78 2    
   154   77   79 am   BACKBONE|DICT|INTERRES
   155   79   80 1    
   156   79  200 1    
   157   80   81 1    
   158   80   82 1    
   159   80  201 1    
   160   81  202 1    
   161   81  203 1    
   162   81  204 1    
   163   82   83 2    
   164   82   84 am   BACKBONE|DICT|INTERRES
   165   84   85 1    
   166   84  205 1    
   167   85   86 1    
   168   85   87 1    
   169   85  206 1    
   170   86  207 1    
   171   86  208 1    
   172   86  209 1    
   173   87   88 2    
   174   87   89 am   BACKBONE|DICT|INTERRES
   175   89   90 1    
   176   89  210 1    
   177   90   91 1    
   178   90   92 1    
   179   90  211 1    
   180   91  212 1    
   181   91  213 1    
   182   91  214 1    
   183   92   93 2    
   184   92   94 am   BACKBONE|DICT|INTERRES
   185   94   95 1    
   186   94  215 1    
   187   95   96 1    
   188   95   97 1    
   189   95  216 1    
   190   96  217 1    
   191   96  218 1    
   192   96  219 1    
   193   97   98 2    
   194   97   99 am   BACKBONE|DICT|INTERRES
   195   99  100 1    
   196   99  220 1    
   197  100  101 1    
   198  100  102 1    
   199  100  221 1    
   200  101  222 1    
   201  101  223 1    
   202  101  224 1    
   203  102  103 2    
   204  102  104 am   BACKBONE|DICT|INTERRES
   205  104  105 1    
   206  104  225 1    
   207  105  106 1    
   208  105  107 1    
   209  105  226 1    
   210  106  227 1    
   211  106  228 1    
   212  106  229 1    
   213  107  108 2    
   214  107  109 am   BACKBONE|DICT|INTERRES
   215  109  110 1    
   216  109  230 1    
   217  110  111 1    
   218  110  112 1    
   219  110  231 1    
   220  111  232 1    
   221  111  233 1    
   222  111  234 1    
   223  112  113 2    
   224  112  114 am   BACKBONE|DICT|INTERRES
   225  114  115 1    
   226  114  235 1    
   227  115  116 1    
   228  115  117 1    
   229  115  236 1    
   230  116  237 1    
   231  116  238 1    
   232  116  239 1    
   233  117  118 2    
   234  117  119 am   BACKBONE|DICT|INTERRES
   235  119  120 1    
   236  119  240 1    
   237  120  121 1    
   238  120  124 1    
   239  120  241 1    
   240  121  122 am   BACKBONE|DICT|INTERRES
   241  121  123 2    
   242  122  242 1    
   243  122  243 1    
   244  124  125 1    
   245  124  244 1    
   246  124  245 1    
   247  125  126 1    
   248  126  246 1    
   249  126  247 1    
@<TRIPOS>SUBSTRUCTURE
     1 UNK         1 GROUP             0       ****    0 ROOT    
