@<TRIPOS>MOLECULE
3R540
247   249    1
SMALL
USER_CHARGES


@<TRIPOS>ATOM
      1 CA          2.0400  -16.6482  -49.2576 C.3       0 UNK        -0.1800 
      2 C           1.3477  -15.6645  -48.3264 C.2       0 UNK         0.5000 
      3 O           1.5023  -15.7596  -47.1094 O.2       0 UNK        -0.5000 
      4 N           0.5912  -14.7123  -48.8872 N.am      1 UNK        -0.5000 
      5 CA         -0.2231  -13.7298  -48.1611 C.3       1 UNK         0.1400 
      6 C6         -1.4301  -13.2479  -49.0172 C.3       23 UNK        -0.0398 
      7 S7         -2.9300  -13.0385  -47.9955 S.3       23 UNK        -0.2404 
      8 C8         -3.9966  -14.4067  -48.5723 C.3       23 UNK        -0.0205 
      9 C9         -3.2994  -15.7638  -48.5924 C.ar      23 UNK        -0.0193 
     10 C10        -3.2889  -16.5275  -49.7640 C.ar      23 UNK        -0.1150 
     11 C11        -2.6444  -17.7679  -49.8012 C.ar      23 UNK        -0.0193 
     12 C12        -1.9891  -18.2349  -48.6591 C.ar      23 UNK        -0.1150 
     13 C13        -1.9912  -17.4821  -47.4823 C.ar      23 UNK        -0.0193 
     14 C14        -2.6599  -16.2554  -47.4511 C.ar      23 UNK        -0.1150 
     15 C15        -1.2306  -17.9684  -46.2601 C.3       23 UNK        -0.0205 
     16 S16        -2.3075  -18.2454  -44.8158 S.3       23 UNK        -0.2404 
     17 C17        -3.3709  -19.6235  -45.3678 C.3       23 UNK        -0.0398 
     18 CA         -2.6050  -20.8923  -45.8177 C.3       11 UNK         0.1400 
     19 N          -1.5522  -21.2877  -44.8721 N.am      11 UNK        -0.5000 
     20 C          -0.7051  -22.3130  -45.0297 C.2       10 UNK         0.5000 
     21 O          -0.7906  -23.1341  -45.9439 O.2       10 UNK        -0.5000 
     22 CA          0.4371  -22.4037  -44.0010 C.3       10 UNK         0.1400 
     23 CB          1.1012  -23.7958  -43.9679 C.3       10 UNK        -0.1800 
     24 N           1.4377  -21.3517  -44.2097 N.am      10 UNK        -0.5000 
     25 C           2.1867  -21.1331  -45.3053 C.2       9 UNK         0.5000 
     26 O           2.1390  -21.8242  -46.3229 O.2       9 UNK        -0.5000 
     27 CA          3.1720  -19.9466  -45.2694 C.3       9 UNK         0.1400 
     28 CB          2.7750  -18.8730  -46.2960 C.3       9 UNK        -0.1800 
     29 N           3.2779  -19.3336  -43.9434 N.am      9 UNK        -0.5000 
     30 C           4.0717  -19.7873  -42.9612 C.2       8 UNK         0.5000 
     31 O           4.8360  -20.7436  -43.0958 O.2       8 UNK        -0.5000 
     32 CA          4.0008  -19.0761  -41.5940 C.3       8 UNK         0.1400 
     33 CB          5.1984  -18.1300  -41.4183 C.3       8 UNK        -0.1800 
     34 N           2.7605  -18.3263  -41.3862 N.am      8 UNK        -0.5000 
     35 C           1.5528  -18.8854  -41.2129 C.2       7 UNK         0.5000 
     36 O           1.3666  -20.1024  -41.1818 O.2       7 UNK        -0.5000 
     37 CA          0.3395  -17.9362  -41.1112 C.3       7 UNK         0.1400 
     38 CB          0.0085  -17.6444  -39.6402 C.3       7 UNK        -0.1800 
     39 N           0.5044  -16.6658  -41.8230 N.am      7 UNK        -0.5000 
     40 C           0.7906  -16.5436  -43.1270 C.2       6 UNK         0.5000 
     41 O           0.9534  -17.5053  -43.8751 O.2       6 UNK        -0.5000 
     42 CA          1.0019  -15.1177  -43.6683 C.3       6 UNK         0.1400 
     43 CB         -0.3223  -14.5474  -44.1966 C.3       6 UNK        -0.1800 
     44 N           1.5823  -14.1795  -42.7000 N.am      6 UNK        -0.5000 
     45 C           2.7369  -14.3540  -42.0348 C.2       5 UNK         0.5000 
     46 O           3.4149  -15.3786  -42.1155 O.2       5 UNK        -0.5000 
     47 CA          3.2258  -13.2134  -41.1214 C.3       5 UNK         0.1400 
     48 CB          4.6195  -12.7267  -41.5527 C.3       5 UNK        -0.1800 
     49 N           2.3096  -12.0719  -41.0977 N.am      5 UNK        -0.5000 
     50 C           1.3086  -11.9151  -40.2200 C.2       4 UNK         0.5000 
     51 O           1.0542  -12.7263  -39.3291 O.2       4 UNK        -0.5000 
     52 CA          0.4366  -10.6490  -40.3538 C.3       4 UNK         0.1400 
     53 CB          0.8708   -9.5890  -39.3297 C.3       4 UNK        -0.1800 
     54 N           0.4606  -10.0515  -41.6908 N.am      4 UNK        -0.5000 
     55 C          -0.0737  -10.6070  -42.7860 C.2       3 UNK         0.5000 
     56 O          -0.6659  -11.6862  -42.7728 O.2       3 UNK        -0.5000 
     57 CA          0.1052   -9.8622  -44.1274 C.3       3 UNK         0.1400 
     58 CB          0.7489   -8.4637  -43.9942 C.3       3 UNK        -0.1800 
     59 N           0.8493  -10.6659  -45.1025 N.am      3 UNK        -0.5000 
     60 C           2.0553  -11.2285  -44.9438 C.2       2 UNK         0.5000 
     61 O           2.7136  -11.1260  -43.9071 O.2       2 UNK        -0.5000 
     62 CA          2.6167  -12.0382  -46.1371 C.3       2 UNK         0.1400 
     63 CB          3.8479  -12.8774  -45.7481 C.3       2 UNK        -0.1800 
     64 N           1.6372  -12.9275  -46.7691 N.am      2 UNK        -0.5000 
     65 C           0.6303  -12.5759  -47.5778 C.2       1 UNK         0.5000 
     66 O           0.3814  -11.4026  -47.8600 O.2       1 UNK        -0.5000 
     67 C          -3.6000  -22.0170  -46.1706 C.2       11 UNK         0.5000 
     68 O          -4.0439  -22.0844  -47.3145 O.2       11 UNK        -0.5000 
     69 N          -3.9047  -22.8991  -45.2080 N.am      12 UNK        -0.5000 
     70 CA         -4.7607  -24.0701  -45.4119 C.3       12 UNK         0.1400 
     71 CB         -5.0940  -24.7008  -44.0517 C.3       12 UNK        -0.1800 
     72 C          -4.1302  -25.1124  -46.3554 C.2       12 UNK         0.5000 
     73 O          -4.8267  -25.6616  -47.2096 O.2       12 UNK        -0.5000 
     74 N          -2.8176  -25.3398  -46.2076 N.am      13 UNK        -0.5000 
     75 CA         -2.0354  -26.2277  -47.0671 C.3       13 UNK         0.1400 
     76 CB         -0.6977  -26.5646  -46.3911 C.3       13 UNK        -0.1800 
     77 C          -1.8136  -25.6126  -48.4579 C.2       13 UNK         0.5000 
     78 O          -1.9146  -26.3241  -49.4568 O.2       13 UNK        -0.5000 
     79 N          -1.5682  -24.2950  -48.5011 N.am      14 UNK        -0.5000 
     80 CA         -1.4634  -23.5113  -49.7322 C.3       14 UNK         0.1400 
     81 CB         -1.0442  -22.0716  -49.4024 C.3       14 UNK        -0.1800 
     82 C          -2.7688  -23.5313  -50.5473 C.2       14 UNK         0.5000 
     83 O          -2.7157  -23.7326  -51.7578 O.2       14 UNK        -0.5000 
     84 N          -3.9139  -23.3786  -49.8665 N.am      15 UNK        -0.5000 
     85 CA         -5.2456  -23.4489  -50.4647 C.3       15 UNK         0.1400 
     86 CB         -6.2980  -22.9683  -49.4559 C.3       15 UNK        -0.1800 
     87 C          -5.5890  -24.8520  -50.9919 C.2       15 UNK         0.5000 
     88 O          -6.1593  -24.9633  -52.0771 O.2       15 UNK        -0.5000 
     89 N          -5.1980  -25.8994  -50.2501 N.am      16 UNK        -0.5000 
     90 CA         -5.3345  -27.3006  -50.6610 C.3       16 UNK         0.1400 
     91 CB         -4.9879  -28.2204  -49.4809 C.3       16 UNK        -0.1800 
     92 C          -4.4800  -27.6471  -51.8972 C.2       16 UNK         0.5000 
     93 O          -4.9241  -28.4157  -52.7503 O.2       16 UNK        -0.5000 
     94 N          -3.2914  -27.0376  -51.9919 N.am      17 UNK        -0.5000 
     95 CA         -2.3848  -27.1104  -53.1397 C.3       17 UNK         0.1400 
     96 CB         -0.9541  -26.8426  -52.6433 C.3       17 UNK        -0.1800 
     97 C          -2.7565  -26.1342  -54.2785 C.2       17 UNK         0.5000 
     98 O          -2.0410  -26.0824  -55.2802 O.2       17 UNK        -0.5000 
     99 N          -3.8302  -25.3511  -54.0999 N.am      18 UNK        -0.5000 
    100 CA        -4.3631  -24.2746  -54.9433 C.3       18 UNK         0.1400 
    101 CB        -4.7297  -24.7766  -56.3521 C.3       18 UNK        -0.1800 
    102 C         -3.4771  -23.0154  -55.0140 C.2       18 UNK         0.5000 
    103 O         -4.0105  -21.9031  -54.9802 O.2       18 UNK        -0.5000 
    104 N         -2.1561  -23.2029  -55.1497 N.am      19 UNK        -0.5000 
    105 CA        -1.0918  -22.1885  -55.1932 C.3       19 UNK         0.1400 
    106 CB        -0.9736  -21.4893  -53.8219 C.3       19 UNK        -0.1800 
    107 C         -1.2192  -21.1671  -56.3472 C.2       19 UNK         0.5000 
    108 O         -0.5389  -20.1403  -56.3262 O.2       19 UNK        -0.5000 
    109 N         -2.1056  -21.4539  -57.3144 N.am      20 UNK        -0.5000 
    110 CA        -2.5944  -20.5663  -58.3752 C.3       20 UNK         0.1400 
    111 CB        -1.4811  -20.2823  -59.4052 C.3       20 UNK        -0.1800 
    112 C         -3.2536  -19.2783  -57.8264 C.2       20 UNK         0.5000 
    113 O         -3.2026  -18.2375  -58.4855 O.2       20 UNK        -0.5000 
    114 N         -3.8448  -19.3603  -56.6253 N.am      21 UNK        -0.5000 
    115 CA        -4.3734  -18.2193  -55.8875 C.3       21 UNK         0.1400 
    116 CB        -3.2247  -17.4991  -55.1472 C.3       21 UNK        -0.1800 
    117 C         -5.5106  -18.6687  -54.9579 C.2       21 UNK         0.5000 
    118 O         -6.6699  -18.6642  -55.3737 O.2       21 UNK        -0.5000 
    119 N         -5.1646  -19.0081  -53.7113 N.am      22 UNK        -0.5000 
    120 CA        -6.0969  -19.3063  -52.6124 C.3       22 UNK         0.1400 
    121 C         -6.8486  -20.6658  -52.6983 C.2       22 UNK         0.5000 
    122 N         -6.4600  -21.5945  -53.5595 N.am      22 UNK        -0.7600 
    123 O         -7.8221  -20.8726  -51.9792 O.2       22 UNK        -0.5000 
    124 C124       -5.4290  -19.0894  -51.2280 C.3       23 UNK        -0.0398 
    125 S125       -3.8341  -19.9620  -51.0225 S.3       23 UNK        -0.2404 
    126 C126       -2.6311  -18.5949  -51.0789 C.3       23 UNK        -0.0205 
    127 H127        1.8923  -16.3879  -50.3058 H         1 UNK         0.0600 
    128 H128        3.1112  -16.6652  -49.0568 H         1 UNK         0.0600 
    129 H129        1.6454  -17.6515  -49.0963 H         1 UNK         0.0600 
    130 H130        0.5404  -14.6601  -49.8943 H         1 UNK         0.3000 
    131 H131       -0.6250  -14.2568  -47.2937 H         1 UNK         0.0600 
    132 H132       -1.2232  -12.3192  -49.5510 H         1 UNK         0.0800 
    133 H133       -1.6529  -13.9688  -49.8044 H         1 UNK         0.0800 
    134 H134       -4.3721  -14.1535  -49.5650 H         1 UNK         0.0800 
    135 H135       -4.8698  -14.4702  -47.9220 H         1 UNK         0.0800 
    136 H136       -3.7808  -16.1544  -50.6512 H         1 UNK         0.1150 
    137 H137       -1.4697  -19.1813  -48.6936 H         1 UNK         0.1150 
    138 H138       -2.6612  -15.6706  -46.5421 H         1 UNK         0.1150 
    139 H139       -0.6615  -18.8725  -46.4772 H         1 UNK         0.0800 
    140 H140       -0.4878  -17.2147  -46.0064 H         1 UNK         0.0800 
    141 H141       -4.0046  -19.2581  -46.1785 H         1 UNK         0.0800 
    142 H142       -4.0436  -19.8592  -44.5412 H         1 UNK         0.0800 
    143 H143       -2.0920  -20.6524  -46.7486 H         1 UNK         0.0600 
    144 H144       -1.3972  -20.6449  -44.1086 H         1 UNK         0.3000 
    145 H145       -0.0009  -22.2276  -43.0172 H         1 UNK         0.0600 
    146 H146        1.8704  -23.8456  -43.1973 H         1 UNK         0.0600 
    147 H147        0.3669  -24.5711  -43.7460 H         1 UNK         0.0600 
    148 H148        1.5658  -24.0524  -44.9204 H         1 UNK         0.0600 
    149 H149        1.5637  -20.7183  -43.4310 H         1 UNK         0.3000 
    150 H150        4.1517  -20.3316  -45.5597 H         1 UNK         0.0600 
    151 H151        2.8022  -19.2740  -47.3097 H         1 UNK         0.0600 
    152 H152        3.4545  -18.0212  -46.2659 H         1 UNK         0.0600 
    153 H153        1.7663  -18.5000  -46.1242 H         1 UNK         0.0600 
    154 H154        2.6411  -18.5641  -43.7584 H         1 UNK         0.3000 
    155 H155        4.0615  -19.8455  -40.8215 H         1 UNK         0.0600 
    156 H156        5.2207  -17.3622  -42.1924 H         1 UNK         0.0600 
    157 H157        6.1397  -18.6781  -41.4755 H         1 UNK         0.0600 
    158 H158        5.1712  -17.6305  -40.4497 H         1 UNK         0.0600 
    159 H159        2.8290  -17.3172  -41.4625 H         1 UNK         0.3000 
    160 H160       -0.5126  -18.4510  -41.5599 H         1 UNK         0.0600 
    161 H161       -0.9056  -17.0573  -39.5497 H         1 UNK         0.0600 
    162 H162        0.8123  -17.0940  -39.1495 H         1 UNK         0.0600 
    163 H163       -0.1448  -18.5695  -39.0826 H         1 UNK         0.0600 
    164 H164        0.4130  -15.8229  -41.2754 H         1 UNK         0.3000 
    165 H165        1.7014  -15.1922  -44.5022 H         1 UNK         0.0600 
    166 H166       -0.1776  -13.5750  -44.6648 H         1 UNK         0.0600 
    167 H167       -0.7635  -15.2021  -44.9467 H         1 UNK         0.0600 
    168 H168       -1.0543  -14.4273  -43.3971 H         1 UNK         0.0600 
    169 H169        1.0810  -13.3118  -42.5632 H         1 UNK         0.3000 
    170 H170        3.3187  -13.6277  -40.1155 H         1 UNK         0.0600 
    171 H171        5.3501  -13.5347  -41.4979 H         1 UNK         0.0600 
    172 H172        4.6213  -12.3565  -42.5778 H         1 UNK         0.0600 
    173 H173        4.9754  -11.9251  -40.9055 H         1 UNK         0.0600 
    174 H174        2.4240  -11.3984  -41.8481 H         1 UNK         0.3000 
    175 H175       -0.5927  -10.9374  -40.1302 H         1 UNK         0.0600 
    176 H176        0.2134   -8.7198  -39.3579 H         1 UNK         0.0600 
    177 H177        0.8360   -9.9878  -38.3150 H         1 UNK         0.0600 
    178 H178        1.8902   -9.2467  -39.5130 H         1 UNK         0.0600 
    179 H179        0.9526   -9.1750  -41.7863 H         1 UNK         0.3000 
    180 H180       -0.8973   -9.7285  -44.5361 H         1 UNK         0.0600 
    181 H181        1.7690   -8.5127  -43.6112 H         1 UNK         0.0600 
    182 H182        0.1693   -7.8225  -43.3287 H         1 UNK         0.0600 
    183 H183        0.7877   -7.9629  -44.9617 H         1 UNK         0.0600 
    184 H184        0.3975  -10.8058  -46.0008 H         1 UNK         0.3000 
    185 H185        2.9384  -11.3080  -46.8821 H         1 UNK         0.0600 
    186 H186        3.6044  -13.6202  -44.9880 H         1 UNK         0.0600 
    187 H187        4.2556  -13.4038  -46.6112 H         1 UNK         0.0600 
    188 H188        4.6448  -12.2481  -45.3496 H         1 UNK         0.0600 
    189 H189        1.7647  -13.9239  -46.6140 H         1 UNK         0.3000 
    190 H190       -3.4942  -22.7822  -44.2934 H         1 UNK         0.3000 
    191 H191       -5.6940  -23.7327  -45.8681 H         1 UNK         0.0600 
    192 H192       -4.1964  -25.0350  -43.5299 H         1 UNK         0.0600 
    193 H193       -5.7451  -25.5677  -44.1733 H         1 UNK         0.0600 
    194 H194       -5.6145  -23.9932  -43.4060 H         1 UNK         0.0600 
    195 H195       -2.2961  -24.7781  -45.5489 H         1 UNK         0.3000 
    196 H196       -2.5913  -27.1589  -47.1960 H         1 UNK         0.0600 
    197 H197       -0.1270  -27.2721  -46.9939 H         1 UNK         0.0600 
    198 H198       -0.8530  -27.0211  -45.4136 H         1 UNK         0.0600 
    199 H199       -0.0765  -25.6795  -46.2533 H         1 UNK         0.0600 
    200 H200       -1.4466  -23.7979  -47.6228 H         1 UNK         0.3000 
    201 H201       -0.6787  -23.9619  -50.3432 H         1 UNK         0.0600 
    202 H202       -0.1371  -22.0466  -48.7977 H         1 UNK         0.0600 
    203 H203       -1.8278  -21.5459  -48.8594 H         1 UNK         0.0600 
    204 H204       -0.8488  -21.5070  -50.3148 H         1 UNK         0.0600 
    205 H205       -3.8739  -23.1381  -48.8799 H         1 UNK         0.3000 
    206 H206       -5.2560  -22.7675  -51.3161 H         1 UNK         0.0600 
    207 H207       -6.1164  -21.9331  -49.1662 H         1 UNK         0.0600 
    208 H208       -7.2994  -23.0121  -49.8860 H         1 UNK         0.0600 
    209 H209       -6.2975  -23.5768  -48.5510 H         1 UNK         0.0600 
    210 H210       -4.7747  -25.7280  -49.3449 H         1 UNK         0.3000 
    211 H211       -6.3805  -27.4692  -50.9251 H         1 UNK         0.0600 
    212 H212       -3.9550  -28.0914  -49.1581 H         1 UNK         0.0600 
    213 H213       -5.1182  -29.2687  -49.7521 H         1 UNK         0.0600 
    214 H214       -5.6331  -28.0233  -48.6246 H         1 UNK         0.0600 
    215 H215       -2.9789  -26.4662  -51.2132 H         1 UNK         0.3000 
    216 H216       -2.4176  -28.1199  -53.5541 H         1 UNK         0.0600 
    217 H217       -0.2285  -26.9492  -53.4505 H         1 UNK         0.0600 
    218 H218       -0.6710  -27.5448  -51.8589 H         1 UNK         0.0600 
    219 H219       -0.8530  -25.8341  -52.2404 H         1 UNK         0.0600 
    220 H220       -4.3096  -25.4453  -53.2137 H         1 UNK         0.3000 
    221 H221       -5.2915  -23.9710  -54.4607 H         1 UNK         0.0600 
    222 H222       -3.8514  -25.0760  -56.9243 H         1 UNK         0.0600 
    223 H223       -5.4046  -25.6310  -56.3014 H         1 UNK         0.0600 
    224 H224       -5.2365  -23.9961  -56.9210 H         1 UNK         0.0600 
    225 H225       -1.8471  -24.1690  -55.2120 H         1 UNK         0.3000 
    226 H226       -0.1623  -22.7303  -55.3719 H         1 UNK         0.0600 
    227 H227       -1.8662  -20.9099  -53.5836 H         1 UNK         0.0600 
    228 H228       -0.1236  -20.8068  -53.7951 H         1 UNK         0.0600 
    229 H229       -0.8255  -22.2155  -53.0231 H         1 UNK         0.0600 
    230 H230       -2.5990  -22.3301  -57.2238 H         1 UNK         0.3000 
    231 H231       -3.3864  -21.1130  -58.8888 H         1 UNK         0.0600 
    232 H232       -1.0378  -21.2080  -59.7718 H         1 UNK         0.0600 
    233 H233       -0.6827  -19.6725  -58.9815 H         1 UNK         0.0600 
    234 H234       -1.8752  -19.7484  -60.2706 H         1 UNK         0.0600 
    235 H235       -3.8801  -20.2558  -56.1460 H         1 UNK         0.3000 
    236 H236       -4.8184  -17.5104  -56.5892 H         1 UNK         0.0600 
    237 H237       -2.5417  -17.0279  -55.8542 H         1 UNK         0.0600 
    238 H238       -3.6051  -16.7113  -54.4956 H         1 UNK         0.0600 
    239 H239       -2.6372  -18.1868  -54.5377 H         1 UNK         0.0600 
    240 H240       -4.1862  -19.0500  -53.4702 H         1 UNK         0.3000 
    241 H241       -6.8912  -18.5604  -52.6819 H         1 UNK         0.0600 
    242 H242       -6.9724  -22.4596  -53.6064 H         1 UNK         0.3800 
    243 H243       -5.6254  -21.4646  -54.1238 H         1 UNK         0.3800 
    244 H244       -5.2747  -18.0221  -51.0764 H         1 UNK         0.0800 
    245 H245       -6.0945  -19.3959  -50.4191 H         1 UNK         0.0800 
    246 H246       -2.8259  -17.9655  -51.9479 H         1 UNK         0.0800 
    247 H247       -1.6346  -19.0141  -51.2257 H         1 UNK         0.0800 
@<TRIPOS>BOND
     1    1    2 1    
     2    1  127 1    
     3    1  128 1    
     4    1  129 1    
     5    2    3 2    
     6    2    4 am   BACKBONE|DICT|INTERRES
     7    4    5 1    
     8    4  130 1    
     9    5    6 1    
    10    5   65 1    
    11    5  131 1    
    12    6    7 1    
    13    6  132 1    
    14    6  133 1    
    15    7    8 1    
    16    8    9 1    
    17    8  134 1    
    18    8  135 1    
    19    9   10 ar   
    20    9   14 ar   
    21   10   11 ar   
    22   10  136 1    
    23   11   12 ar   
    24   11  126 1    
    25   12   13 ar   
    26   12  137 1    
    27   13   14 ar   
    28   13   15 1    
    29   14  138 1    
    30   15   16 1    
    31   15  139 1    
    32   15  140 1    
    33   16   17 1    
    34   17   18 1    
    35   17  141 1    
    36   17  142 1    
    37   18   19 1    
    38   18   67 1    
    39   18  143 1    
    40   19   20 am   BACKBONE|DICT|INTERRES
    41   19  144 1    
    42   20   21 2    
    43   20   22 1    
    44   22   23 1    
    45   22   24 1    
    46   22  145 1    
    47   23  146 1    
    48   23  147 1    
    49   23  148 1    
    50   24   25 am   BACKBONE|DICT|INTERRES
    51   24  149 1    
    52   25   26 2    
    53   25   27 1    
    54   27   28 1    
    55   27   29 1    
    56   27  150 1    
    57   28  151 1    
    58   28  152 1    
    59   28  153 1    
    60   29   30 am   BACKBONE|DICT|INTERRES
    61   29  154 1    
    62   30   31 2    
    63   30   32 1    
    64   32   33 1    
    65   32   34 1    
    66   32  155 1    
    67   33  156 1    
    68   33  157 1    
    69   33  158 1    
    70   34   35 am   BACKBONE|DICT|INTERRES
    71   34  159 1    
    72   35   36 2    
    73   35   37 1    
    74   37   38 1    
    75   37   39 1    
    76   37  160 1    
    77   38  161 1    
    78   38  162 1    
    79   38  163 1    
    80   39   40 am   BACKBONE|DICT|INTERRES
    81   39  164 1    
    82   40   41 2    
    83   40   42 1    
    84   42   43 1    
    85   42   44 1    
    86   42  165 1    
    87   43  166 1    
    88   43  167 1    
    89   43  168 1    
    90   44   45 am   BACKBONE|DICT|INTERRES
    91   44  169 1    
    92   45   46 2    
    93   45   47 1    
    94   47   48 1    
    95   47   49 1    
    96   47  170 1    
    97   48  171 1    
    98   48  172 1    
    99   48  173 1    
   100   49   50 am   BACKBONE|DICT|INTERRES
   101   49  174 1    
   102   50   51 2    
   103   50   52 1    
   104   52   53 1    
   105   52   54 1    
   106   52  175 1    
   107   53  176 1    
   108   53  177 1    
   109   53  178 1    
   110   54   55 am   BACKBONE|DICT|INTERRES
   111   54  179 1    
   112   55   56 2    
   113   55   57 1    
   114   57   58 1    
   115   57   59 1    
   116   57  180 1    
   117   58  181 1    
   118   58  182 1    
   119   58  183 1    
   120   59   60 am   BACKBONE|DICT|INTERRES
   121   59  184 1    
   122   60   61 2    
   123   60   62 1    
   124   62   63 1    
   125   62   64 1    
   126   62  185 1    
   127   63  186 1    
   128   63  187 1    
   129   63  188 1    
   130   64   65 am   BACKBONE|DICT|INTERRES
   131   64  189 1    
   132   65   66 2    
   133   67   68 2    
   134   67   69 am   BACKBONE|DICT|INTERRES
   135   69   70 1    
   136   69  190 1    
   137   70   71 1    
   138   70   72 1    
   139   70  191 1    
   140   71  192 1    
   141   71  193 1    
   142   71  194 1    
   143   72   73 2    
   144   72   74 am   BACKBONE|DICT|INTERRES
   145   74   75 1    
   146   74  195 1    
   147   75   76 1    
   148   75   77 1    
   149   75  196 1    
   150   76  197 1    
   151   76  198 1    
   152   76  199 1    
   153   77   78 2    
   154   77   79 am   BACKBONE|DICT|INTERRES
   155   79   80 1    
   156   79  200 1    
   157   80   81 1    
   158   80   82 1    
   159   80  201 1    
   160   81  202 1    
   161   81  203 1    
   162   81  204 1    
   163   82   83 2    
   164   82   84 am   BACKBONE|DICT|INTERRES
   165   84   85 1    
   166   84  205 1    
   167   85   86 1    
   168   85   87 1    
   169   85  206 1    
   170   86  207 1    
   171   86  208 1    
   172   86  209 1    
   173   87   88 2    
   174   87   89 am   BACKBONE|DICT|INTERRES
   175   89   90 1    
   176   89  210 1    
   177   90   91 1    
   178   90   92 1    
   179   90  211 1    
   180   91  212 1    
   181   91  213 1    
   182   91  214 1    
   183   92   93 2    
   184   92   94 am   BACKBONE|DICT|INTERRES
   185   94   95 1    
   186   94  215 1    
   187   95   96 1    
   188   95   97 1    
   189   95  216 1    
   190   96  217 1    
   191   96  218 1    
   192   96  219 1    
   193   97   98 2    
   194   97   99 am   BACKBONE|DICT|INTERRES
   195   99  100 1    
   196   99  220 1    
   197  100  101 1    
   198  100  102 1    
   199  100  221 1    
   200  101  222 1    
   201  101  223 1    
   202  101  224 1    
   203  102  103 2    
   204  102  104 am   BACKBONE|DICT|INTERRES
   205  104  105 1    
   206  104  225 1    
   207  105  106 1    
   208  105  107 1    
   209  105  226 1    
   210  106  227 1    
   211  106  228 1    
   212  106  229 1    
   213  107  108 2    
   214  107  109 am   BACKBONE|DICT|INTERRES
   215  109  110 1    
   216  109  230 1    
   217  110  111 1    
   218  110  112 1    
   219  110  231 1    
   220  111  232 1    
   221  111  233 1    
   222  111  234 1    
   223  112  113 2    
   224  112  114 am   BACKBONE|DICT|INTERRES
   225  114  115 1    
   226  114  235 1    
   227  115  116 1    
   228  115  117 1    
   229  115  236 1    
   230  116  237 1    
   231  116  238 1    
   232  116  239 1    
   233  117  118 2    
   234  117  119 am   BACKBONE|DICT|INTERRES
   235  119  120 1    
   236  119  240 1    
   237  120  121 1    
   238  120  124 1    
   239  120  241 1    
   240  121  122 am   BACKBONE|DICT|INTERRES
   241  121  123 2    
   242  122  242 1    
   243  122  243 1    
   244  124  125 1    
   245  124  244 1    
   246  124  245 1    
   247  125  126 1    
   248  126  246 1    
   249  126  247 1    
@<TRIPOS>SUBSTRUCTURE
     1 UNK         1 GROUP             0       ****    0 ROOT    
