@<TRIPOS>MOLECULE
3R540
247   249    1
SMALL
USER_CHARGES


@<TRIPOS>ATOM
      1 CA          1.9521  -10.7764  -52.0223 C.3       0 UNK        -0.1800 
      2 C           1.7664  -12.1185  -51.3284 C.2       0 UNK         0.5000 
      3 O           1.3416  -13.0741  -51.9735 O.2       0 UNK        -0.5000 
      4 N           2.0782  -12.1672  -50.0263 N.am      1 UNK        -0.5000 
      5 CA          1.9880  -13.2824  -49.0738 C.3       1 UNK         0.1400 
      6 C6          1.9714  -14.7276  -49.6454 C.3       23 UNK        -0.0398 
      7 S7          2.4213  -15.9832  -48.4017 S.3       23 UNK        -0.2404 
      8 C8          3.7424  -16.9224  -49.2298 C.3       23 UNK        -0.0205 
      9 C9          3.1909  -17.9577  -50.2012 C.ar      23 UNK        -0.0193 
     10 C10         2.9608  -17.6184  -51.5367 C.ar      23 UNK        -0.1150 
     11 C11         2.4785  -18.5672  -52.4457 C.ar      23 UNK        -0.0193 
     12 C12         2.2581  -19.8774  -52.0040 C.ar      23 UNK        -0.1150 
     13 C13         2.4953  -20.2391  -50.6732 C.ar      23 UNK        -0.0193 
     14 C14         2.9527  -19.2686  -49.7763 C.ar      23 UNK        -0.1150 
     15 C15         2.3544  -21.6927  -50.2279 C.3       23 UNK        -0.0205 
     16 S16         0.6942  -22.3992  -50.4993 S.3       23 UNK        -0.2404 
     17 C17        -0.2230  -21.8716  -49.0149 C.3       23 UNK        -0.0398 
     18 CA         -0.3696  -23.0009  -47.9656 C.3       11 UNK         0.1400 
     19 N           0.9146  -23.4064  -47.3838 N.am      11 UNK        -0.5000 
     20 C           1.1092  -24.5620  -46.7326 C.2       10 UNK         0.5000 
     21 O           0.2293  -25.4066  -46.5677 O.2       10 UNK        -0.5000 
     22 CA          2.5033  -24.7951  -46.1200 C.3       10 UNK         0.1400 
     23 CB          3.4582  -25.3834  -47.1691 C.3       10 UNK        -0.1800 
     24 N           3.0996  -23.5856  -45.5499 N.am      10 UNK        -0.5000 
     25 C           2.5812  -22.8751  -44.5389 C.2       9 UNK         0.5000 
     26 O           1.5382  -23.1806  -43.9639 O.2       9 UNK        -0.5000 
     27 CA          3.3171  -21.5873  -44.1167 C.3       9 UNK         0.1400 
     28 CB          4.7842  -21.5280  -44.5960 C.3       9 UNK        -0.1800 
     29 N           2.6105  -20.3704  -44.5324 N.am      9 UNK        -0.5000 
     30 C           2.2122  -20.0483  -45.7728 C.2       8 UNK         0.5000 
     31 O           2.2545  -20.8293  -46.7241 O.2       8 UNK        -0.5000 
     32 CA          1.6832  -18.6210  -46.0111 C.3       8 UNK         0.1400 
     33 CB          0.4016  -18.6090  -46.8552 C.3       8 UNK        -0.1800 
     34 N           1.4543  -17.8455  -44.7921 N.am      8 UNK        -0.5000 
     35 C           2.3933  -17.1442  -44.1447 C.2       7 UNK         0.5000 
     36 O           3.5814  -17.1299  -44.4672 O.2       7 UNK        -0.5000 
     37 CA          1.9319  -16.3277  -42.9226 C.3       7 UNK         0.1400 
     38 CB          1.6402  -14.8770  -43.3365 C.3       7 UNK        -0.1800 
     39 N           0.7534  -16.8645  -42.2365 N.am      7 UNK        -0.5000 
     40 C           0.6552  -18.0613  -41.6464 C.2       6 UNK         0.5000 
     41 O           1.5407  -18.9159  -41.6961 O.2       6 UNK        -0.5000 
     42 CA         -0.6480  -18.3694  -40.8788 C.3       6 UNK         0.1400 
     43 CB         -0.5430  -17.8977  -39.4163 C.3       6 UNK        -0.1800 
     44 N          -1.8883  -17.8819  -41.5066 N.am      6 UNK        -0.5000 
     45 C          -2.3144  -16.6248  -41.6946 C.2       5 UNK         0.5000 
     46 O          -1.6437  -15.6277  -41.4223 O.2       5 UNK        -0.5000 
     47 CA         -3.7152  -16.4690  -42.3249 C.3       5 UNK         0.1400 
     48 CB         -4.2126  -15.0123  -42.3078 C.3       5 UNK        -0.1800 
     49 N          -3.7448  -16.9492  -43.7055 N.am      5 UNK        -0.5000 
     50 C          -3.7779  -18.2272  -44.0995 C.2       4 UNK         0.5000 
     51 O          -3.8054  -19.1658  -43.3028 O.2       4 UNK        -0.5000 
     52 CA         -3.7634  -18.5166  -45.6204 C.3       4 UNK         0.1400 
     53 CB         -4.7550  -19.6320  -46.0055 C.3       4 UNK        -0.1800 
     54 N          -4.0145  -17.3560  -46.4848 N.am      4 UNK        -0.5000 
     55 C          -3.1734  -16.3395  -46.7096 C.2       3 UNK         0.5000 
     56 O          -2.0935  -16.2033  -46.1312 O.2       3 UNK        -0.5000 
     57 CA         -3.6293  -15.2967  -47.7382 C.3       3 UNK         0.1400 
     58 CB         -4.7322  -14.3939  -47.1550 C.3       3 UNK        -0.1800 
     59 N          -2.4796  -14.4895  -48.1316 N.am      3 UNK        -0.5000 
     60 C          -2.3789  -13.7703  -49.2565 C.2       2 UNK         0.5000 
     61 O          -3.2662  -13.7287  -50.1091 O.2       2 UNK        -0.5000 
     62 CA         -1.0998  -12.9293  -49.4538 C.3       2 UNK         0.1400 
     63 CB         -1.4450  -11.5144  -49.9566 C.3       2 UNK        -0.1800 
     64 N          -0.3467  -12.8105  -48.2027 N.am      2 UNK        -0.5000 
     65 C           0.9579  -12.9998  -47.9526 C.2       1 UNK         0.5000 
     66 O           1.3779  -12.8929  -46.8013 O.2       1 UNK        -0.5000 
     67 C          -1.3755  -22.6102  -46.8628 C.2       11 UNK         0.5000 
     68 O          -2.5708  -22.8609  -47.0181 O.2       11 UNK        -0.5000 
     69 N          -0.8759  -22.0502  -45.7504 N.am      12 UNK        -0.5000 
     70 CA         -1.6711  -21.7417  -44.5631 C.3       12 UNK         0.1400 
     71 CB         -0.9167  -20.7650  -43.6517 C.3       12 UNK        -0.1800 
     72 C          -2.0850  -23.0093  -43.7987 C.2       12 UNK         0.5000 
     73 O          -3.2510  -23.1370  -43.4293 O.2       12 UNK        -0.5000 
     74 N          -1.1407  -23.9434  -43.6202 N.am      13 UNK        -0.5000 
     75 CA         -1.3504  -25.2473  -42.9852 C.3       13 UNK         0.1400 
     76 CB          0.0003  -25.9628  -42.8345 C.3       13 UNK        -0.1800 
     77 C          -2.3530  -26.1342  -43.7470 C.2       13 UNK         0.5000 
     78 O          -3.1520  -26.8294  -43.1189 O.2       13 UNK        -0.5000 
     79 N          -2.3201  -26.0601  -45.0843 N.am      14 UNK        -0.5000 
     80 CA         -3.2824  -26.7020  -45.9809 C.3       14 UNK         0.1400 
     81 CB         -2.6830  -26.7379  -47.3961 C.3       14 UNK        -0.1800 
     82 C          -4.6597  -26.0060  -46.0099 C.2       14 UNK         0.5000 
     83 O          -5.6086  -26.5909  -46.5335 O.2       14 UNK        -0.5000 
     84 N          -4.7377  -24.7704  -45.4876 N.am      15 UNK        -0.5000 
     85 CA         -5.8717  -23.8394  -45.5507 C.3       15 UNK         0.1400 
     86 CB         -7.0594  -24.3586  -44.7152 C.3       15 UNK        -0.1800 
     87 C          -6.2569  -23.4863  -47.0036 C.2       15 UNK         0.5000 
     88 O          -7.4359  -23.3109  -47.3176 O.2       15 UNK        -0.5000 
     89 N          -5.2427  -23.4097  -47.8717 N.am      16 UNK        -0.5000 
     90 CA         -5.3647  -23.2170  -49.3072 C.3       16 UNK         0.1400 
     91 CB         -4.3140  -24.0986  -50.0034 C.3       16 UNK        -0.1800 
     92 C          -5.1919  -21.7264  -49.6215 C.2       16 UNK         0.5000 
     93 O          -4.1189  -21.3013  -50.0521 O.2       16 UNK        -0.5000 
     94 N          -6.2542  -20.9478  -49.3795 N.am      17 UNK        -0.5000 
     95 CA         -6.2920  -19.4966  -49.5792 C.3       17 UNK         0.1400 
     96 CB         -7.6492  -18.9505  -49.1147 C.3       17 UNK        -0.1800 
     97 C          -5.9887  -19.0587  -51.0238 C.2       17 UNK         0.5000 
     98 O          -5.3121  -18.0511  -51.2148 O.2       17 UNK        -0.5000 
     99 N          -6.4451  -19.8448  -52.0089 N.am      18 UNK        -0.5000 
    100 CA        -6.1674  -19.6283  -53.4311 C.3       18 UNK         0.1400 
    101 CB        -7.0836  -20.5317  -54.2694 C.3       18 UNK        -0.1800 
    102 C         -4.6901  -19.8684  -53.7979 C.2       18 UNK         0.5000 
    103 O         -4.1519  -19.1564  -54.6479 O.2       18 UNK        -0.5000 
    104 N         -4.0581  -20.8491  -53.1363 N.am      19 UNK        -0.5000 
    105 CA        -2.6368  -21.1579  -53.2877 C.3       19 UNK         0.1400 
    106 CB        -2.3404  -22.5708  -52.7659 C.3       19 UNK        -0.1800 
    107 C         -1.7629  -20.1167  -52.5746 C.2       19 UNK         0.5000 
    108 O         -0.7619  -19.6910  -53.1421 O.2       19 UNK        -0.5000 
    109 N         -2.1873  -19.6807  -51.3804 N.am      20 UNK        -0.5000 
    110 CA        -1.5519  -18.6123  -50.6077 C.3       20 UNK         0.1400 
    111 CB        -2.1883  -18.5559  -49.2147 C.3       20 UNK        -0.1800 
    112 C         -1.6423  -17.2339  -51.2922 C.2       20 UNK         0.5000 
    113 O         -0.7260  -16.4285  -51.1549 O.2       20 UNK        -0.5000 
    114 N         -2.7304  -16.9957  -52.0366 N.am      21 UNK        -0.5000 
    115 CA        -2.9049  -15.8426  -52.9235 C.3       21 UNK         0.1400 
    116 CB        -4.4062  -15.6321  -53.1752 C.3       21 UNK        -0.1800 
    117 C         -2.1426  -15.9885  -54.2584 C.2       21 UNK         0.5000 
    118 O         -2.0877  -15.0286  -55.0289 O.2       21 UNK        -0.5000 
    119 N         -1.5699  -17.1735  -54.5038 N.am      22 UNK        -0.5000 
    120 CA        -0.7347  -17.5382  -55.6563 C.3       22 UNK         0.1400 
    121 C         -1.5153  -17.6083  -57.0010 C.2       22 UNK         0.5000 
    122 N         -2.7946  -17.9663  -56.9859 N.am      22 UNK        -0.7600 
    123 O         -0.9621  -17.3613  -58.0698 O.2       22 UNK        -0.5000 
    124 C124        0.5987  -16.7368  -55.7384 C.3       23 UNK        -0.0398 
    125 S125        1.4600  -16.5674  -54.1322 S.3       23 UNK        -0.2404 
    126 C126        2.2305  -18.2081  -53.9117 C.3       23 UNK        -0.0205 
    127 H127        2.3330  -10.0143  -51.3419 H         1 UNK         0.0600 
    128 H128        1.0001  -10.4280  -52.4232 H         1 UNK         0.0600 
    129 H129        2.6553  -10.8759  -52.8493 H         1 UNK         0.0600 
    130 H130        2.4000  -11.3096  -49.5982 H         1 UNK         0.3000 
    131 H131        2.9552  -13.2078  -48.5729 H         1 UNK         0.0600 
    132 H132        1.0008  -14.9883  -50.0564 H         1 UNK         0.0800 
    133 H133        2.6755  -14.7956  -50.4738 H         1 UNK         0.0800 
    134 H134        4.3394  -17.4220  -48.4654 H         1 UNK         0.0800 
    135 H135        4.4236  -16.2408  -49.7412 H         1 UNK         0.0800 
    136 H136        3.1600  -16.6109  -51.8709 H         1 UNK         0.1150 
    137 H137        1.9090  -20.6259  -52.7014 H         1 UNK         0.1150 
    138 H138        3.1582  -19.5397  -48.7516 H         1 UNK         0.1150 
    139 H139        3.0708  -22.2878  -50.7954 H         1 UNK         0.0800 
    140 H140        2.6340  -21.8112  -49.1810 H         1 UNK         0.0800 
    141 H141       -1.2082  -21.5525  -49.3582 H         1 UNK         0.0800 
    142 H142        0.2558  -20.9949  -48.5846 H         1 UNK         0.0800 
    143 H143       -0.7934  -23.8683  -48.4771 H         1 UNK         0.0600 
    144 H144        1.6598  -22.7193  -47.4051 H         1 UNK         0.3000 
    145 H145        2.3922  -25.5223  -45.3133 H         1 UNK         0.0600 
    146 H146        4.4234  -25.6336  -46.7284 H         1 UNK         0.0600 
    147 H147        3.0503  -26.3000  -47.5975 H         1 UNK         0.0600 
    148 H148        3.6332  -24.6868  -47.9902 H         1 UNK         0.0600 
    149 H149        3.9423  -23.2455  -45.9891 H         1 UNK         0.3000 
    150 H150        3.3241  -21.5846  -43.0257 H         1 UNK         0.0600 
    151 H151        5.3402  -22.4109  -44.2774 H         1 UNK         0.0600 
    152 H152        5.2929  -20.6612  -44.1737 H         1 UNK         0.0600 
    153 H153        4.8630  -21.4548  -45.6813 H         1 UNK         0.0600 
    154 H154        2.4709  -19.6821  -43.8039 H         1 UNK         0.3000 
    155 H155        2.4601  -18.1219  -46.5890 H         1 UNK         0.0600 
    156 H156       -0.3741  -19.2537  -46.4443 H         1 UNK         0.0600 
    157 H157        0.6111  -18.9340  -47.8731 H         1 UNK         0.0600 
    158 H158        0.0001  -17.5995  -46.9333 H         1 UNK         0.0600 
    159 H159        0.5049  -17.7913  -44.4548 H         1 UNK         0.3000 
    160 H160        2.7550  -16.3221  -42.2054 H         1 UNK         0.0600 
    161 H161        0.8013  -14.8195  -44.0318 H         1 UNK         0.0600 
    162 H162        2.5037  -14.4271  -43.8285 H         1 UNK         0.0600 
    163 H163        1.4011  -14.2591  -42.4708 H         1 UNK         0.0600 
    164 H164       -0.0289  -16.2276  -42.1057 H         1 UNK         0.3000 
    165 H165       -0.7382  -19.4557  -40.8526 H         1 UNK         0.0600 
    166 H166       -1.4280  -18.1806  -38.8464 H         1 UNK         0.0600 
    167 H167        0.3185  -18.3500  -38.9233 H         1 UNK         0.0600 
    168 H168       -0.4273  -16.8161  -39.3423 H         1 UNK         0.0600 
    169 H169       -2.5077  -18.6089  -41.8519 H         1 UNK         0.3000 
    170 H170       -4.4102  -17.0641  -41.7286 H         1 UNK         0.0600 
    171 H171       -4.2240  -14.6145  -41.2922 H         1 UNK         0.0600 
    172 H172       -3.5771  -14.3612  -42.9098 H         1 UNK         0.0600 
    173 H173       -5.2289  -14.9387  -42.6952 H         1 UNK         0.0600 
    174 H174       -3.6306  -16.2481  -44.4232 H         1 UNK         0.3000 
    175 H175       -2.7587  -18.8819  -45.8408 H         1 UNK         0.0600 
    176 H176       -5.7867  -19.2803  -45.9811 H         1 UNK         0.0600 
    177 H177       -4.5469  -20.0061  -47.0075 H         1 UNK         0.0600 
    178 H178       -4.6937  -20.4892  -45.3353 H         1 UNK         0.0600 
    179 H179       -4.9048  -17.3540  -46.9601 H         1 UNK         0.3000 
    180 H180       -4.0103  -15.8271  -48.6140 H         1 UNK         0.0600 
    181 H181       -5.0787  -13.6664  -47.8892 H         1 UNK         0.0600 
    182 H182       -4.3795  -13.8438  -46.2816 H         1 UNK         0.0600 
    183 H183       -5.6014  -14.9768  -46.8482 H         1 UNK         0.0600 
    184 H184       -1.6933  -14.5544  -47.4967 H         1 UNK         0.3000 
    185 H185       -0.5215  -13.4434  -50.2156 H         1 UNK         0.0600 
    186 H186       -0.5607  -10.8821  -50.0247 H         1 UNK         0.0600 
    187 H187       -1.8937  -11.5509  -50.9500 H         1 UNK         0.0600 
    188 H188       -2.1533  -11.0165  -49.2932 H         1 UNK         0.0600 
    189 H189       -0.9251  -12.5760  -47.4089 H         1 UNK         0.3000 
    190 H190        0.1254  -21.9438  -45.6732 H         1 UNK         0.3000 
    191 H191       -2.5860  -21.2483  -44.8890 H         1 UNK         0.0600 
    192 H192       -1.5008  -20.5660  -42.7542 H         1 UNK         0.0600 
    193 H193       -0.7470  -19.8094  -44.1448 H         1 UNK         0.0600 
    194 H194        0.0468  -21.1563  -43.3287 H         1 UNK         0.0600 
    195 H195       -0.1854  -23.7266  -43.8986 H         1 UNK         0.3000 
    196 H196       -1.7566  -25.0686  -41.9876 H         1 UNK         0.0600 
    197 H197        0.4648  -26.1511  -43.8028 H         1 UNK         0.0600 
    198 H198        0.6960  -25.3708  -42.2395 H         1 UNK         0.0600 
    199 H199       -0.1200  -26.9245  -42.3344 H         1 UNK         0.0600 
    200 H200       -1.5780  -25.5269  -45.5245 H         1 UNK         0.3000 
    201 H201       -3.4386  -27.7298  -45.6472 H         1 UNK         0.0600 
    202 H202       -2.4960  -25.7333  -47.7773 H         1 UNK         0.0600 
    203 H203       -3.3553  -27.2348  -48.0966 H         1 UNK         0.0600 
    204 H204       -1.7390  -27.2829  -47.4111 H         1 UNK         0.0600 
    205 H205       -3.9066  -24.3923  -45.0508 H         1 UNK         0.3000 
    206 H206       -5.5285  -22.9102  -45.0942 H         1 UNK         0.0600 
    207 H207       -6.7497  -24.5945  -43.6971 H         1 UNK         0.0600 
    208 H208       -7.8472  -23.6075  -44.6484 H         1 UNK         0.0600 
    209 H209       -7.5003  -25.2564  -45.1491 H         1 UNK         0.0600 
    210 H210       -4.2915  -23.4406  -47.5114 H         1 UNK         0.3000 
    211 H211       -6.3510  -23.5325  -49.6539 H         1 UNK         0.0600 
    212 H212       -4.3830  -24.0033  -51.0871 H         1 UNK         0.0600 
    213 H213       -4.4647  -25.1509  -49.7615 H         1 UNK         0.0600 
    214 H214       -3.2984  -23.8336  -49.7061 H         1 UNK         0.0600 
    215 H215       -7.0842  -21.3758  -48.9919 H         1 UNK         0.3000 
    216 H216       -5.5203  -19.0583  -48.9453 H         1 UNK         0.0600 
    217 H217       -8.4730  -19.3807  -49.6856 H         1 UNK         0.0600 
    218 H218       -7.6966  -17.8672  -49.2343 H         1 UNK         0.0600 
    219 H219       -7.8214  -19.1677  -48.0603 H         1 UNK         0.0600 
    220 H220       -6.9966  -20.6544  -51.7659 H         1 UNK         0.3000 
    221 H221       -6.4028  -18.5890  -53.6699 H         1 UNK         0.0600 
    222 H222       -8.1345  -20.3166  -54.0750 H         1 UNK         0.0600 
    223 H223       -6.9118  -21.5881  -54.0591 H         1 UNK         0.0600 
    224 H224       -6.9134  -20.3773  -55.3358 H         1 UNK         0.0600 
    225 H225       -4.5534  -21.3444  -52.4097 H         1 UNK         0.3000 
    226 H226       -2.3916  -21.1352  -54.3519 H         1 UNK         0.0600 
    227 H227       -2.4536  -22.6336  -51.6843 H         1 UNK         0.0600 
    228 H228       -2.9966  -23.3116  -53.2224 H         1 UNK         0.0600 
    229 H229       -1.3139  -22.8574  -52.9972 H         1 UNK         0.0600 
    230 H230       -2.9958  -20.1325  -50.9599 H         1 UNK         0.3000 
    231 H231       -0.4938  -18.8611  -50.4961 H         1 UNK         0.0600 
    232 H232       -3.2462  -18.3013  -49.2688 H         1 UNK         0.0600 
    233 H233       -1.6943  -17.7958  -48.6126 H         1 UNK         0.0600 
    234 H234       -2.0994  -19.5028  -48.6840 H         1 UNK         0.0600 
    235 H235       -3.4966  -17.6594  -52.0072 H         1 UNK         0.3000 
    236 H236       -2.5145  -14.9534  -52.4252 H         1 UNK         0.0600 
    237 H237       -4.9397  -15.4617  -52.2397 H         1 UNK         0.0600 
    238 H238       -4.5804  -14.7624  -53.8097 H         1 UNK         0.0600 
    239 H239       -4.8550  -16.4952  -53.6675 H         1 UNK         0.0600 
    240 H240       -1.6457  -17.8950  -53.7990 H         1 UNK         0.3000 
    241 H241       -0.4530  -18.5749  -55.4787 H         1 UNK         0.0600 
    242 H242       -3.3059  -18.0193  -57.8521 H         1 UNK         0.3800 
    243 H243       -3.2492  -18.2317  -56.1162 H         1 UNK         0.3800 
    244 H244        0.4047  -15.7309  -56.1136 H         1 UNK         0.0800 
    245 H245        1.2794  -17.2006  -56.4539 H         1 UNK         0.0800 
    246 H246        3.1780  -18.2329  -54.4507 H         1 UNK         0.0800 
    247 H247        1.5923  -18.9645  -54.3688 H         1 UNK         0.0800 
@<TRIPOS>BOND
     1    1    2 1    
     2    1  127 1    
     3    1  128 1    
     4    1  129 1    
     5    2    3 2    
     6    2    4 am   BACKBONE|DICT|INTERRES
     7    4    5 1    
     8    4  130 1    
     9    5    6 1    
    10    5   65 1    
    11    5  131 1    
    12    6    7 1    
    13    6  132 1    
    14    6  133 1    
    15    7    8 1    
    16    8    9 1    
    17    8  134 1    
    18    8  135 1    
    19    9   10 ar   
    20    9   14 ar   
    21   10   11 ar   
    22   10  136 1    
    23   11   12 ar   
    24   11  126 1    
    25   12   13 ar   
    26   12  137 1    
    27   13   14 ar   
    28   13   15 1    
    29   14  138 1    
    30   15   16 1    
    31   15  139 1    
    32   15  140 1    
    33   16   17 1    
    34   17   18 1    
    35   17  141 1    
    36   17  142 1    
    37   18   19 1    
    38   18   67 1    
    39   18  143 1    
    40   19   20 am   BACKBONE|DICT|INTERRES
    41   19  144 1    
    42   20   21 2    
    43   20   22 1    
    44   22   23 1    
    45   22   24 1    
    46   22  145 1    
    47   23  146 1    
    48   23  147 1    
    49   23  148 1    
    50   24   25 am   BACKBONE|DICT|INTERRES
    51   24  149 1    
    52   25   26 2    
    53   25   27 1    
    54   27   28 1    
    55   27   29 1    
    56   27  150 1    
    57   28  151 1    
    58   28  152 1    
    59   28  153 1    
    60   29   30 am   BACKBONE|DICT|INTERRES
    61   29  154 1    
    62   30   31 2    
    63   30   32 1    
    64   32   33 1    
    65   32   34 1    
    66   32  155 1    
    67   33  156 1    
    68   33  157 1    
    69   33  158 1    
    70   34   35 am   BACKBONE|DICT|INTERRES
    71   34  159 1    
    72   35   36 2    
    73   35   37 1    
    74   37   38 1    
    75   37   39 1    
    76   37  160 1    
    77   38  161 1    
    78   38  162 1    
    79   38  163 1    
    80   39   40 am   BACKBONE|DICT|INTERRES
    81   39  164 1    
    82   40   41 2    
    83   40   42 1    
    84   42   43 1    
    85   42   44 1    
    86   42  165 1    
    87   43  166 1    
    88   43  167 1    
    89   43  168 1    
    90   44   45 am   BACKBONE|DICT|INTERRES
    91   44  169 1    
    92   45   46 2    
    93   45   47 1    
    94   47   48 1    
    95   47   49 1    
    96   47  170 1    
    97   48  171 1    
    98   48  172 1    
    99   48  173 1    
   100   49   50 am   BACKBONE|DICT|INTERRES
   101   49  174 1    
   102   50   51 2    
   103   50   52 1    
   104   52   53 1    
   105   52   54 1    
   106   52  175 1    
   107   53  176 1    
   108   53  177 1    
   109   53  178 1    
   110   54   55 am   BACKBONE|DICT|INTERRES
   111   54  179 1    
   112   55   56 2    
   113   55   57 1    
   114   57   58 1    
   115   57   59 1    
   116   57  180 1    
   117   58  181 1    
   118   58  182 1    
   119   58  183 1    
   120   59   60 am   BACKBONE|DICT|INTERRES
   121   59  184 1    
   122   60   61 2    
   123   60   62 1    
   124   62   63 1    
   125   62   64 1    
   126   62  185 1    
   127   63  186 1    
   128   63  187 1    
   129   63  188 1    
   130   64   65 am   BACKBONE|DICT|INTERRES
   131   64  189 1    
   132   65   66 2    
   133   67   68 2    
   134   67   69 am   BACKBONE|DICT|INTERRES
   135   69   70 1    
   136   69  190 1    
   137   70   71 1    
   138   70   72 1    
   139   70  191 1    
   140   71  192 1    
   141   71  193 1    
   142   71  194 1    
   143   72   73 2    
   144   72   74 am   BACKBONE|DICT|INTERRES
   145   74   75 1    
   146   74  195 1    
   147   75   76 1    
   148   75   77 1    
   149   75  196 1    
   150   76  197 1    
   151   76  198 1    
   152   76  199 1    
   153   77   78 2    
   154   77   79 am   BACKBONE|DICT|INTERRES
   155   79   80 1    
   156   79  200 1    
   157   80   81 1    
   158   80   82 1    
   159   80  201 1    
   160   81  202 1    
   161   81  203 1    
   162   81  204 1    
   163   82   83 2    
   164   82   84 am   BACKBONE|DICT|INTERRES
   165   84   85 1    
   166   84  205 1    
   167   85   86 1    
   168   85   87 1    
   169   85  206 1    
   170   86  207 1    
   171   86  208 1    
   172   86  209 1    
   173   87   88 2    
   174   87   89 am   BACKBONE|DICT|INTERRES
   175   89   90 1    
   176   89  210 1    
   177   90   91 1    
   178   90   92 1    
   179   90  211 1    
   180   91  212 1    
   181   91  213 1    
   182   91  214 1    
   183   92   93 2    
   184   92   94 am   BACKBONE|DICT|INTERRES
   185   94   95 1    
   186   94  215 1    
   187   95   96 1    
   188   95   97 1    
   189   95  216 1    
   190   96  217 1    
   191   96  218 1    
   192   96  219 1    
   193   97   98 2    
   194   97   99 am   BACKBONE|DICT|INTERRES
   195   99  100 1    
   196   99  220 1    
   197  100  101 1    
   198  100  102 1    
   199  100  221 1    
   200  101  222 1    
   201  101  223 1    
   202  101  224 1    
   203  102  103 2    
   204  102  104 am   BACKBONE|DICT|INTERRES
   205  104  105 1    
   206  104  225 1    
   207  105  106 1    
   208  105  107 1    
   209  105  226 1    
   210  106  227 1    
   211  106  228 1    
   212  106  229 1    
   213  107  108 2    
   214  107  109 am   BACKBONE|DICT|INTERRES
   215  109  110 1    
   216  109  230 1    
   217  110  111 1    
   218  110  112 1    
   219  110  231 1    
   220  111  232 1    
   221  111  233 1    
   222  111  234 1    
   223  112  113 2    
   224  112  114 am   BACKBONE|DICT|INTERRES
   225  114  115 1    
   226  114  235 1    
   227  115  116 1    
   228  115  117 1    
   229  115  236 1    
   230  116  237 1    
   231  116  238 1    
   232  116  239 1    
   233  117  118 2    
   234  117  119 am   BACKBONE|DICT|INTERRES
   235  119  120 1    
   236  119  240 1    
   237  120  121 1    
   238  120  124 1    
   239  120  241 1    
   240  121  122 am   BACKBONE|DICT|INTERRES
   241  121  123 2    
   242  122  242 1    
   243  122  243 1    
   244  124  125 1    
   245  124  244 1    
   246  124  245 1    
   247  125  126 1    
   248  126  246 1    
   249  126  247 1    
@<TRIPOS>SUBSTRUCTURE
     1 UNK         1 GROUP             0       ****    0 ROOT    
