@<TRIPOS>MOLECULE
3R540
247   249    1
SMALL
USER_CHARGES


@<TRIPOS>ATOM
      1 CA          3.0632   -8.8439  -49.5000 C.3       0 UNK        -0.1800 
      2 C           3.3506  -10.3372  -49.5574 C.2       0 UNK         0.5000 
      3 O           3.8964  -10.8168  -50.5515 O.2       0 UNK        -0.5000 
      4 N           2.9731  -11.0730  -48.5026 N.am      1 UNK        -0.5000 
      5 CA          3.1276  -12.5222  -48.3103 C.3       1 UNK         0.1400 
      6 C6          4.6028  -13.0030  -48.3723 C.3       23 UNK        -0.0398 
      7 S7          4.8228  -14.7013  -47.7388 S.3       23 UNK        -0.2404 
      8 C8          4.9728  -15.6262  -49.3000 C.3       23 UNK        -0.0205 
      9 C9          4.4364  -17.0414  -49.1665 C.ar      23 UNK        -0.0193 
     10 C10         3.1584  -17.3603  -49.6364 C.ar      23 UNK        -0.1150 
     11 C11         2.6816  -18.6718  -49.5600 C.ar      23 UNK        -0.0193 
     12 C12         3.4876  -19.6642  -48.9939 C.ar      23 UNK        -0.1150 
     13 C13         4.7572  -19.3523  -48.4985 C.ar      23 UNK        -0.0193 
     14 C14         5.2270  -18.0394  -48.5918 C.ar      23 UNK        -0.1150 
     15 C15         5.6349  -20.4305  -47.8815 C.3       23 UNK        -0.0205 
     16 S16         5.1539  -20.7921  -46.1631 S.3       23 UNK        -0.2404 
     17 C17         3.9629  -22.1519  -46.4097 C.3       23 UNK        -0.0398 
     18 CA          3.6587  -22.8980  -45.0886 C.3       11 UNK         0.1400 
     19 N           2.8817  -22.0680  -44.1614 N.am      11 UNK        -0.5000 
     20 C           2.8266  -22.2585  -42.8373 C.2       10 UNK         0.5000 
     21 O           3.4502  -23.1411  -42.2464 O.2       10 UNK        -0.5000 
     22 CA          1.9031  -21.3208  -42.0408 C.3       10 UNK         0.1400 
     23 CB          2.5925  -19.9698  -41.7968 C.3       10 UNK        -0.1800 
     24 N           0.5999  -21.1058  -42.6767 N.am      10 UNK        -0.5000 
     25 C          -0.3303  -22.0560  -42.8562 C.2       9 UNK         0.5000 
     26 O          -0.1728  -23.2349  -42.5392 O.2       9 UNK        -0.5000 
     27 CA         -1.6531  -21.6272  -43.5196 C.3       9 UNK         0.1400 
     28 CB         -2.5347  -20.8429  -42.5354 C.3       9 UNK        -0.1800 
     29 N          -1.4411  -20.8333  -44.7271 N.am      9 UNK        -0.5000 
     30 C          -0.8861  -21.2979  -45.8539 C.2       8 UNK         0.5000 
     31 O          -0.5625  -22.4740  -46.0273 O.2       8 UNK        -0.5000 
     32 CA         -0.5930  -20.2671  -46.9576 C.3       8 UNK         0.1400 
     33 CB         -1.8281  -20.0177  -47.8354 C.3       8 UNK        -0.1800 
     34 N          -0.0958  -18.9941  -46.4334 N.am      8 UNK        -0.5000 
     35 C           1.0525  -18.8527  -45.7551 C.2       7 UNK         0.5000 
     36 O           1.8283  -19.7782  -45.5224 O.2       7 UNK        -0.5000 
     37 CA          1.3471  -17.4571  -45.1828 C.3       7 UNK         0.1400 
     38 CB          1.8946  -16.5226  -46.2695 C.3       7 UNK        -0.1800 
     39 N           0.1615  -16.8648  -44.5623 N.am      7 UNK        -0.5000 
     40 C          -0.3898  -17.3157  -43.4251 C.2       6 UNK         0.5000 
     41 O           0.0690  -18.2487  -42.7687 O.2       6 UNK        -0.5000 
     42 CA         -1.6970  -16.6466  -42.9612 C.3       6 UNK         0.1400 
     43 CB         -1.3944  -15.4029  -42.1125 C.3       6 UNK        -0.1800 
     44 N          -2.5765  -16.2736  -44.0686 N.am      6 UNK        -0.5000 
     45 C          -3.1082  -17.1330  -44.9513 C.2       5 UNK         0.5000 
     46 O          -2.9407  -18.3496  -44.8931 O.2       5 UNK        -0.5000 
     47 CA         -3.9033  -16.5159  -46.1207 C.3       5 UNK         0.1400 
     48 CB         -5.3981  -16.4271  -45.7795 C.3       5 UNK        -0.1800 
     49 N          -3.4151  -15.1782  -46.4717 N.am      5 UNK        -0.5000 
     50 C          -2.2114  -14.9330  -47.0041 C.2       4 UNK         0.5000 
     51 O          -1.4325  -15.8179  -47.3631 O.2       4 UNK        -0.5000 
     52 CA         -1.7845  -13.4593  -47.0661 C.3       4 UNK         0.1400 
     53 CB         -0.5806  -13.2048  -46.1434 C.3       4 UNK        -0.1800 
     54 N          -1.4441  -13.0808  -48.4342 N.am      4 UNK        -0.5000 
     55 C          -2.3176  -12.5373  -49.2944 C.2       3 UNK         0.5000 
     56 O          -3.4943  -12.3165  -49.0039 O.2       3 UNK        -0.5000 
     57 CA         -1.8217  -12.1440  -50.7019 C.3       3 UNK         0.1400 
     58 CB         -1.9606  -10.6279  -50.9190 C.3       3 UNK        -0.1800 
     59 N          -0.4320  -12.5134  -50.9574 N.am      3 UNK        -0.5000 
     60 C          -0.0169  -13.7045  -51.4048 C.2       2 UNK         0.5000 
     61 O          -0.7646  -14.6473  -51.6588 O.2       2 UNK        -0.5000 
     62 CA          1.5067  -13.8714  -51.5585 C.3       2 UNK         0.1400 
     63 CB          1.9644  -13.4140  -52.9506 C.3       2 UNK        -0.1800 
     64 N           2.2824  -13.1538  -50.5422 N.am      2 UNK        -0.5000 
     65 C           2.1922  -13.3480  -49.2203 C.2       1 UNK         0.5000 
     66 O           1.3895  -14.1266  -48.7106 O.2       1 UNK        -0.5000 
     67 C           2.9816  -24.2555  -45.3774 C.2       11 UNK         0.5000 
     68 O           3.6433  -25.1398  -45.9227 O.2       11 UNK        -0.5000 
     69 N           1.6947  -24.3966  -45.0211 N.am      12 UNK        -0.5000 
     70 CA          0.8227  -25.5476  -45.2707 C.3       12 UNK         0.1400 
     71 CB          1.2867  -26.7797  -44.4665 C.3       12 UNK        -0.1800 
     72 C           0.6751  -25.8180  -46.7811 C.2       12 UNK         0.5000 
     73 O           0.9774  -26.9126  -47.2598 O.2       12 UNK        -0.5000 
     74 N           0.2332  -24.7814  -47.5062 N.am      13 UNK        -0.5000 
     75 CA          0.0966  -24.7573  -48.9658 C.3       13 UNK         0.1400 
     76 CB         -0.1456  -23.3060  -49.4117 C.3       13 UNK        -0.1800 
     77 C          -1.0050  -25.6852  -49.5207 C.2       13 UNK         0.5000 
     78 O          -1.0111  -25.9524  -50.7227 O.2       13 UNK        -0.5000 
     79 N          -1.9122  -26.1471  -48.6454 N.am      14 UNK        -0.5000 
     80 CA         -3.0345  -27.0558  -48.9164 C.3       14 UNK         0.1400 
     81 CB         -2.5320  -28.4336  -49.3973 C.3       14 UNK        -0.1800 
     82 C          -4.1117  -26.4491  -49.8411 C.2       14 UNK         0.5000 
     83 O          -4.8254  -27.1829  -50.5280 O.2       14 UNK        -0.5000 
     84 N          -4.2244  -25.1148  -49.8229 N.am      15 UNK        -0.5000 
     85 CA         -5.2782  -24.3524  -50.4870 C.3       15 UNK         0.1400 
     86 CB         -4.8753  -22.8707  -50.4925 C.3       15 UNK        -0.1800 
     87 C          -6.6296  -24.5371  -49.7738 C.2       15 UNK         0.5000 
     88 O          -6.6546  -24.7890  -48.5650 O.2       15 UNK        -0.5000 
     89 N          -7.7277  -24.3705  -50.5227 N.am      16 UNK        -0.5000 
     90 CA         -9.1040  -24.4338  -50.0243 C.3       16 UNK         0.1400 
     91 CB        -10.0771  -24.2282  -51.1956 C.3       16 UNK        -0.1800 
     92 C          -9.3437  -23.3918  -48.9168 C.2       16 UNK         0.5000 
     93 O          -9.1992  -22.1959  -49.1734 O.2       16 UNK        -0.5000 
     94 N          -9.6236  -23.8740  -47.6974 N.am      17 UNK        -0.5000 
     95 CA         -9.7644  -23.1022  -46.4539 C.3       17 UNK         0.1400 
     96 CB        -11.0325  -22.2240  -46.5055 C.3       17 UNK        -0.1800 
     97 C          -8.5002  -22.2951  -46.0691 C.2       17 UNK         0.5000 
     98 O          -8.6101  -21.2966  -45.3558 O.2       17 UNK        -0.5000 
     99 N          -7.3283  -22.7373  -46.5555 N.am      18 UNK        -0.5000 
    100 CA        -6.0167  -22.0905  -46.4457 C.3       18 UNK         0.1400 
    101 CB        -5.5013  -22.1199  -44.9918 C.3       18 UNK        -0.1800 
    102 C         -5.9802  -20.6805  -47.0757 C.2       18 UNK         0.5000 
    103 O         -5.3197  -19.7887  -46.5455 O.2       18 UNK        -0.5000 
    104 N         -6.6977  -20.4998  -48.1948 N.am      19 UNK        -0.5000 
    105 CA        -6.7352  -19.2620  -48.9758 C.3       19 UNK         0.1400 
    106 CB        -7.7632  -19.4212  -50.1068 C.3       19 UNK        -0.1800 
    107 C         -5.3645  -18.8633  -49.5584 C.2       19 UNK         0.5000 
    108 O         -4.4858  -19.7110  -49.7326 O.2       19 UNK        -0.5000 
    109 N         -5.2268  -17.5749  -49.8939 N.am      20 UNK        -0.5000 
    110 CA        -4.0355  -16.9525  -50.4761 C.3       20 UNK         0.1400 
    111 CB        -4.1570  -15.4320  -50.2955 C.3       20 UNK        -0.1800 
    112 C         -3.8052  -17.3489  -51.9532 C.2       20 UNK         0.5000 
    113 O         -3.7802  -16.4913  -52.8383 O.2       20 UNK        -0.5000 
    114 N         -3.6465  -18.6548  -52.1967 N.am      21 UNK        -0.5000 
    115 CA        -3.4491  -19.2676  -53.5130 C.3       21 UNK         0.1400 
    116 CB        -3.5748  -20.7916  -53.3668 C.3       21 UNK        -0.1800 
    117 C         -2.1132  -18.8981  -54.1892 C.2       21 UNK         0.5000 
    118 O         -1.9882  -19.0583  -55.4042 O.2       21 UNK        -0.5000 
    119 N         -1.1461  -18.4155  -53.3997 N.am      22 UNK        -0.5000 
    120 CA         0.1755  -17.9587  -53.8581 C.3       22 UNK         0.1400 
    121 C          0.1599  -16.6190  -54.6527 C.2       22 UNK         0.5000 
    122 N         -0.9281  -15.8577  -54.6635 N.am      22 UNK        -0.7600 
    123 O          1.1534  -16.2723  -55.2850 O.2       22 UNK        -0.5000 
    124 C124        1.1999  -17.9023  -52.6952 C.3       23 UNK        -0.0398 
    125 S125        1.3633  -19.5098  -51.8419 S.3       23 UNK        -0.2404 
    126 C126        1.3007  -19.0247  -50.0900 C.3       23 UNK        -0.0205 
    127 H127        2.4125   -8.5557  -50.3256 H         1 UNK         0.0600 
    128 H128        3.9924   -8.2802  -49.5841 H         1 UNK         0.0600 
    129 H129        2.5758   -8.5592  -48.5671 H         1 UNK         0.0600 
    130 H130        2.5127  -10.6001  -47.7370 H         1 UNK         0.3000 
    131 H131        2.7818  -12.6975  -47.2897 H         1 UNK         0.0600 
    132 H132        5.0082  -12.9242  -49.3819 H         1 UNK         0.0800 
    133 H133        5.2212  -12.3490  -47.7564 H         1 UNK         0.0800 
    134 H134        4.4412  -15.1121  -50.1015 H         1 UNK         0.0800 
    135 H135        6.0211  -15.6517  -49.6011 H         1 UNK         0.0800 
    136 H136        2.5367  -16.5898  -50.0670 H         1 UNK         0.1150 
    137 H137        3.1253  -20.6804  -48.9403 H         1 UNK         0.1150 
    138 H138        6.2114  -17.7913  -48.2202 H         1 UNK         0.1150 
    139 H139        5.6010  -21.3347  -48.4905 H         1 UNK         0.0800 
    140 H140        6.6775  -20.1089  -47.8850 H         1 UNK         0.0800 
    141 H141        3.0455  -21.7593  -46.8498 H         1 UNK         0.0800 
    142 H142        4.3910  -22.8347  -47.1460 H         1 UNK         0.0800 
    143 H143        4.6134  -23.1347  -44.6135 H         1 UNK         0.0600 
    144 H144        2.3860  -21.2794  -44.5738 H         1 UNK         0.3000 
    145 H145        1.7230  -21.7855  -41.0692 H         1 UNK         0.0600 
    146 H146        2.0001  -19.3396  -41.1335 H         1 UNK         0.0600 
    147 H147        2.7476  -19.4243  -42.7284 H         1 UNK         0.0600 
    148 H148        3.5681  -20.1058  -41.3285 H         1 UNK         0.0600 
    149 H149        0.3818  -20.1472  -42.9346 H         1 UNK         0.3000 
    150 H150       -2.1918  -22.5328  -43.8064 H         1 UNK         0.0600 
    151 H151       -2.7463  -21.4350  -41.6444 H         1 UNK         0.0600 
    152 H152       -3.4914  -20.5779  -42.9859 H         1 UNK         0.0600 
    153 H153       -2.0552  -19.9197  -42.2102 H         1 UNK         0.0600 
    154 H154       -1.7515  -19.8657  -44.7023 H         1 UNK         0.3000 
    155 H155        0.1917  -20.6965  -47.5806 H         1 UNK         0.0600 
    156 H156       -2.2223  -20.9500  -48.2405 H         1 UNK         0.0600 
    157 H157       -1.5916  -19.3718  -48.6809 H         1 UNK         0.0600 
    158 H158       -2.6349  -19.5463  -47.2744 H         1 UNK         0.0600 
    159 H159       -0.6867  -18.1839  -46.5595 H         1 UNK         0.3000 
    160 H160        2.1161  -17.5651  -44.4149 H         1 UNK         0.0600 
    161 H161        1.1879  -16.3892  -47.0890 H         1 UNK         0.0600 
    162 H162        2.8123  -16.9287  -46.6956 H         1 UNK         0.0600 
    163 H163        2.1332  -15.5381  -45.8677 H         1 UNK         0.0600 
    164 H164       -0.3000  -16.1282  -45.0749 H         1 UNK         0.3000 
    165 H165       -2.2336  -17.3649  -42.3379 H         1 UNK         0.0600 
    166 H166       -2.3091  -14.9670  -41.7104 H         1 UNK         0.0600 
    167 H167       -0.7568  -15.6560  -41.2643 H         1 UNK         0.0600 
    168 H168       -0.8808  -14.6341  -42.6910 H         1 UNK         0.0600 
    169 H169       -2.7714  -15.2905  -44.1809 H         1 UNK         0.3000 
    170 H170       -3.7847  -17.1710  -46.9870 H         1 UNK         0.0600 
    171 H171       -5.5841  -15.7394  -44.9538 H         1 UNK         0.0600 
    172 H172       -5.9776  -16.0888  -46.6386 H         1 UNK         0.0600 
    173 H173       -5.7922  -17.4006  -45.4865 H         1 UNK         0.0600 
    174 H174       -4.0100  -14.4015  -46.2203 H         1 UNK         0.3000 
    175 H175       -2.6027  -12.8330  -46.7037 H         1 UNK         0.0600 
    176 H176        0.2660  -13.8457  -46.3882 H         1 UNK         0.0600 
    177 H177       -0.2455  -12.1696  -46.2083 H         1 UNK         0.0600 
    178 H178       -0.8415  -13.3970  -45.1021 H         1 UNK         0.0600 
    179 H179       -0.5150  -13.3390  -48.7491 H         1 UNK         0.3000 
    180 H180       -2.4646  -12.6493  -51.4256 H         1 UNK         0.0600 
    181 H181       -1.6573  -10.3444  -51.9270 H         1 UNK         0.0600 
    182 H182       -1.3509  -10.0626  -50.2129 H         1 UNK         0.0600 
    183 H183       -2.9946  -10.3049  -50.7918 H         1 UNK         0.0600 
    184 H184        0.2654  -11.8118  -50.7577 H         1 UNK         0.3000 
    185 H185        1.7312  -14.9333  -51.4590 H         1 UNK         0.0600 
    186 H186        3.0186  -13.6395  -53.1125 H         1 UNK         0.0600 
    187 H187        1.4008  -13.9199  -53.7350 H         1 UNK         0.0600 
    188 H188        1.8252  -12.3410  -53.0874 H         1 UNK         0.0600 
    189 H189        2.9360  -12.4463  -50.8673 H         1 UNK         0.3000 
    190 H190        1.2419  -23.6020  -44.5897 H         1 UNK         0.3000 
    191 H191       -0.1667  -25.2694  -44.9042 H         1 UNK         0.0600 
    192 H192        0.5797  -27.6028  -44.5757 H         1 UNK         0.0600 
    193 H193        1.3563  -26.5498  -43.4032 H         1 UNK         0.0600 
    194 H194        2.2610  -27.1416  -44.7956 H         1 UNK         0.0600 
    195 H195       -0.0040  -23.9219  -47.0133 H         1 UNK         0.3000 
    196 H196        1.0437  -25.0916  -49.3941 H         1 UNK         0.0600 
    197 H197       -0.2116  -23.2329  -50.4981 H         1 UNK         0.0600 
    198 H198        0.6682  -22.6541  -49.0936 H         1 UNK         0.0600 
    199 H199       -1.0749  -22.9126  -48.9998 H         1 UNK         0.0600 
    200 H200       -1.8108  -25.8533  -47.6846 H         1 UNK         0.3000 
    201 H201       -3.5284  -27.2112  -47.9562 H         1 UNK         0.0600 
    202 H202       -2.0989  -28.3825  -50.3965 H         1 UNK         0.0600 
    203 H203       -3.3474  -29.1569  -49.4330 H         1 UNK         0.0600 
    204 H204       -1.7745  -28.8338  -48.7232 H         1 UNK         0.0600 
    205 H205       -3.6108  -24.5982  -49.2122 H         1 UNK         0.3000 
    206 H206       -5.3684  -24.7012  -51.5179 H         1 UNK         0.0600 
    207 H207       -3.9337  -22.7207  -51.0201 H         1 UNK         0.0600 
    208 H208       -5.6282  -22.2566  -50.9880 H         1 UNK         0.0600 
    209 H209       -4.7524  -22.4819  -49.4814 H         1 UNK         0.0600 
    210 H210       -7.6213  -24.1344  -51.4983 H         1 UNK         0.3000 
    211 H211       -9.2671  -25.4336  -49.6168 H         1 UNK         0.0600 
    212 H212       -9.9350  -23.2575  -51.6727 H         1 UNK         0.0600 
    213 H213      -11.1122  -24.2777  -50.8551 H         1 UNK         0.0600 
    214 H214       -9.9486  -24.9985  -51.9562 H         1 UNK         0.0600 
    215 H215       -9.6786  -24.8772  -47.5860 H         1 UNK         0.3000 
    216 H216       -9.9039  -23.8339  -45.6570 H         1 UNK         0.0600 
    217 H217      -11.2337  -21.7670  -45.5360 H         1 UNK         0.0600 
    218 H218      -11.9099  -22.8132  -46.7718 H         1 UNK         0.0600 
    219 H219      -10.9365  -21.4171  -47.2328 H         1 UNK         0.0600 
    220 H220       -7.3408  -23.5660  -47.1431 H         1 UNK         0.3000 
    221 H221       -5.3333  -22.6977  -47.0404 H         1 UNK         0.0600 
    222 H222       -4.4705  -21.7676  -44.9409 H         1 UNK         0.0600 
    223 H223       -6.0963  -21.4830  -44.3369 H         1 UNK         0.0600 
    224 H224       -5.5181  -23.1313  -44.5862 H         1 UNK         0.0600 
    225 H225       -7.2652  -21.2626  -48.5412 H         1 UNK         0.3000 
    226 H226       -7.0659  -18.4617  -48.3107 H         1 UNK         0.0600 
    227 H227       -8.7634  -19.5881  -49.7070 H         1 UNK         0.0600 
    228 H228       -7.8136  -18.5275  -50.7300 H         1 UNK         0.0600 
    229 H229       -7.5169  -20.2619  -50.7570 H         1 UNK         0.0600 
    230 H230       -6.0163  -16.9596  -49.7633 H         1 UNK         0.3000 
    231 H231       -3.1620  -17.2856  -49.9108 H         1 UNK         0.0600 
    232 H232       -3.2645  -14.9312  -50.6680 H         1 UNK         0.0600 
    233 H233       -4.2675  -15.1638  -49.2455 H         1 UNK         0.0600 
    234 H234       -5.0121  -15.0254  -50.8366 H         1 UNK         0.0600 
    235 H235       -3.7363  -19.2862  -51.4039 H         1 UNK         0.3000 
    236 H236       -4.2503  -18.9187  -54.1675 H         1 UNK         0.0600 
    237 H237       -2.8160  -21.1929  -52.6939 H         1 UNK         0.0600 
    238 H238       -4.5539  -21.0689  -52.9764 H         1 UNK         0.0600 
    239 H239       -3.4577  -21.2902  -54.3298 H         1 UNK         0.0600 
    240 H240       -1.3341  -18.3269  -52.4133 H         1 UNK         0.3000 
    241 H241        0.5386  -18.7076  -54.5648 H         1 UNK         0.0600 
    242 H242       -1.7385  -16.1095  -54.1149 H         1 UNK         0.3800 
    243 H243       -0.9280  -14.9990  -55.1893 H         1 UNK         0.3800 
    244 H244        0.9057  -17.1323  -51.9815 H         1 UNK         0.0800 
    245 H245        2.1880  -17.6194  -53.0626 H         1 UNK         0.0800 
    246 H246        0.6020  -18.2011  -49.9343 H         1 UNK         0.0800 
    247 H247        0.9011  -19.8679  -49.5300 H         1 UNK         0.0800 
@<TRIPOS>BOND
     1    1    2 1    
     2    1  127 1    
     3    1  128 1    
     4    1  129 1    
     5    2    3 2    
     6    2    4 am   BACKBONE|DICT|INTERRES
     7    4    5 1    
     8    4  130 1    
     9    5    6 1    
    10    5   65 1    
    11    5  131 1    
    12    6    7 1    
    13    6  132 1    
    14    6  133 1    
    15    7    8 1    
    16    8    9 1    
    17    8  134 1    
    18    8  135 1    
    19    9   10 ar   
    20    9   14 ar   
    21   10   11 ar   
    22   10  136 1    
    23   11   12 ar   
    24   11  126 1    
    25   12   13 ar   
    26   12  137 1    
    27   13   14 ar   
    28   13   15 1    
    29   14  138 1    
    30   15   16 1    
    31   15  139 1    
    32   15  140 1    
    33   16   17 1    
    34   17   18 1    
    35   17  141 1    
    36   17  142 1    
    37   18   19 1    
    38   18   67 1    
    39   18  143 1    
    40   19   20 am   BACKBONE|DICT|INTERRES
    41   19  144 1    
    42   20   21 2    
    43   20   22 1    
    44   22   23 1    
    45   22   24 1    
    46   22  145 1    
    47   23  146 1    
    48   23  147 1    
    49   23  148 1    
    50   24   25 am   BACKBONE|DICT|INTERRES
    51   24  149 1    
    52   25   26 2    
    53   25   27 1    
    54   27   28 1    
    55   27   29 1    
    56   27  150 1    
    57   28  151 1    
    58   28  152 1    
    59   28  153 1    
    60   29   30 am   BACKBONE|DICT|INTERRES
    61   29  154 1    
    62   30   31 2    
    63   30   32 1    
    64   32   33 1    
    65   32   34 1    
    66   32  155 1    
    67   33  156 1    
    68   33  157 1    
    69   33  158 1    
    70   34   35 am   BACKBONE|DICT|INTERRES
    71   34  159 1    
    72   35   36 2    
    73   35   37 1    
    74   37   38 1    
    75   37   39 1    
    76   37  160 1    
    77   38  161 1    
    78   38  162 1    
    79   38  163 1    
    80   39   40 am   BACKBONE|DICT|INTERRES
    81   39  164 1    
    82   40   41 2    
    83   40   42 1    
    84   42   43 1    
    85   42   44 1    
    86   42  165 1    
    87   43  166 1    
    88   43  167 1    
    89   43  168 1    
    90   44   45 am   BACKBONE|DICT|INTERRES
    91   44  169 1    
    92   45   46 2    
    93   45   47 1    
    94   47   48 1    
    95   47   49 1    
    96   47  170 1    
    97   48  171 1    
    98   48  172 1    
    99   48  173 1    
   100   49   50 am   BACKBONE|DICT|INTERRES
   101   49  174 1    
   102   50   51 2    
   103   50   52 1    
   104   52   53 1    
   105   52   54 1    
   106   52  175 1    
   107   53  176 1    
   108   53  177 1    
   109   53  178 1    
   110   54   55 am   BACKBONE|DICT|INTERRES
   111   54  179 1    
   112   55   56 2    
   113   55   57 1    
   114   57   58 1    
   115   57   59 1    
   116   57  180 1    
   117   58  181 1    
   118   58  182 1    
   119   58  183 1    
   120   59   60 am   BACKBONE|DICT|INTERRES
   121   59  184 1    
   122   60   61 2    
   123   60   62 1    
   124   62   63 1    
   125   62   64 1    
   126   62  185 1    
   127   63  186 1    
   128   63  187 1    
   129   63  188 1    
   130   64   65 am   BACKBONE|DICT|INTERRES
   131   64  189 1    
   132   65   66 2    
   133   67   68 2    
   134   67   69 am   BACKBONE|DICT|INTERRES
   135   69   70 1    
   136   69  190 1    
   137   70   71 1    
   138   70   72 1    
   139   70  191 1    
   140   71  192 1    
   141   71  193 1    
   142   71  194 1    
   143   72   73 2    
   144   72   74 am   BACKBONE|DICT|INTERRES
   145   74   75 1    
   146   74  195 1    
   147   75   76 1    
   148   75   77 1    
   149   75  196 1    
   150   76  197 1    
   151   76  198 1    
   152   76  199 1    
   153   77   78 2    
   154   77   79 am   BACKBONE|DICT|INTERRES
   155   79   80 1    
   156   79  200 1    
   157   80   81 1    
   158   80   82 1    
   159   80  201 1    
   160   81  202 1    
   161   81  203 1    
   162   81  204 1    
   163   82   83 2    
   164   82   84 am   BACKBONE|DICT|INTERRES
   165   84   85 1    
   166   84  205 1    
   167   85   86 1    
   168   85   87 1    
   169   85  206 1    
   170   86  207 1    
   171   86  208 1    
   172   86  209 1    
   173   87   88 2    
   174   87   89 am   BACKBONE|DICT|INTERRES
   175   89   90 1    
   176   89  210 1    
   177   90   91 1    
   178   90   92 1    
   179   90  211 1    
   180   91  212 1    
   181   91  213 1    
   182   91  214 1    
   183   92   93 2    
   184   92   94 am   BACKBONE|DICT|INTERRES
   185   94   95 1    
   186   94  215 1    
   187   95   96 1    
   188   95   97 1    
   189   95  216 1    
   190   96  217 1    
   191   96  218 1    
   192   96  219 1    
   193   97   98 2    
   194   97   99 am   BACKBONE|DICT|INTERRES
   195   99  100 1    
   196   99  220 1    
   197  100  101 1    
   198  100  102 1    
   199  100  221 1    
   200  101  222 1    
   201  101  223 1    
   202  101  224 1    
   203  102  103 2    
   204  102  104 am   BACKBONE|DICT|INTERRES
   205  104  105 1    
   206  104  225 1    
   207  105  106 1    
   208  105  107 1    
   209  105  226 1    
   210  106  227 1    
   211  106  228 1    
   212  106  229 1    
   213  107  108 2    
   214  107  109 am   BACKBONE|DICT|INTERRES
   215  109  110 1    
   216  109  230 1    
   217  110  111 1    
   218  110  112 1    
   219  110  231 1    
   220  111  232 1    
   221  111  233 1    
   222  111  234 1    
   223  112  113 2    
   224  112  114 am   BACKBONE|DICT|INTERRES
   225  114  115 1    
   226  114  235 1    
   227  115  116 1    
   228  115  117 1    
   229  115  236 1    
   230  116  237 1    
   231  116  238 1    
   232  116  239 1    
   233  117  118 2    
   234  117  119 am   BACKBONE|DICT|INTERRES
   235  119  120 1    
   236  119  240 1    
   237  120  121 1    
   238  120  124 1    
   239  120  241 1    
   240  121  122 am   BACKBONE|DICT|INTERRES
   241  121  123 2    
   242  122  242 1    
   243  122  243 1    
   244  124  125 1    
   245  124  244 1    
   246  124  245 1    
   247  125  126 1    
   248  126  246 1    
   249  126  247 1    
@<TRIPOS>SUBSTRUCTURE
     1 UNK         1 GROUP             0       ****    0 ROOT    
