@<TRIPOS>MOLECULE
3R540
247   249    1
SMALL
USER_CHARGES


@<TRIPOS>ATOM
      1 CA         -2.8529  -12.8430  -45.7601 C.3       0 UNK        -0.1800 
      2 C          -1.6693  -12.9157  -46.7130 C.2       0 UNK         0.5000 
      3 O          -0.5286  -12.9019  -46.2531 O.2       0 UNK        -0.5000 
      4 N          -1.9555  -12.9766  -48.0218 N.am      1 UNK        -0.5000 
      5 CA         -1.0545  -13.0666  -49.1826 C.3       1 UNK         0.1400 
      6 C6         -0.6662  -14.5198  -49.5824 C.3       23 UNK        -0.0398 
      7 S7          0.3238  -15.4808  -48.3803 S.3       23 UNK        -0.2404 
      8 C8          1.7359  -16.0228  -49.3946 C.3       23 UNK        -0.0205 
      9 C9          1.3389  -17.1310  -50.3591 C.ar      23 UNK        -0.0193 
     10 C10         1.0368  -16.8371  -51.6918 C.ar      23 UNK        -0.1150 
     11 C11         0.6323  -17.8475  -52.5678 C.ar      23 UNK        -0.0193 
     12 C12         0.5607  -19.1652  -52.1050 C.ar      23 UNK        -0.1150 
     13 C13         0.8742  -19.4811  -50.7797 C.ar      23 UNK        -0.0193 
     14 C14         1.2568  -18.4523  -49.9102 C.ar      23 UNK        -0.1150 
     15 C15         0.7249  -20.9267  -50.3118 C.3       23 UNK        -0.0205 
     16 S16         2.0078  -21.4870  -49.1453 S.3       23 UNK        -0.2404 
     17 C17         1.2106  -21.1288  -47.5438 C.3       23 UNK        -0.0398 
     18 CA          0.6726  -22.3983  -46.8413 C.3       11 UNK         0.1400 
     19 N           0.4867  -22.1801  -45.4066 N.am      11 UNK        -0.5000 
     20 C           0.2042  -23.1346  -44.5103 C.2       10 UNK         0.5000 
     21 O           0.0981  -24.3282  -44.7912 O.2       10 UNK        -0.5000 
     22 CA         -0.0551  -22.6677  -43.0665 C.3       10 UNK         0.1400 
     23 CB          1.2627  -22.3628  -42.3389 C.3       10 UNK        -0.1800 
     24 N          -0.9338  -21.4984  -43.0106 N.am      10 UNK        -0.5000 
     25 C          -2.2108  -21.4989  -43.4205 C.2       9 UNK         0.5000 
     26 O          -2.7937  -22.4993  -43.8400 O.2       9 UNK        -0.5000 
     27 CA         -2.9492  -20.1488  -43.3970 C.3       9 UNK         0.1400 
     28 CB         -3.4421  -19.8229  -41.9794 C.3       9 UNK        -0.1800 
     29 N          -2.1336  -19.0427  -43.8992 N.am      9 UNK        -0.5000 
     30 C          -1.6509  -18.9544  -45.1475 C.2       8 UNK         0.5000 
     31 O          -1.8515  -19.7934  -46.0222 O.2       8 UNK        -0.5000 
     32 CA         -0.7410  -17.7555  -45.4556 C.3       8 UNK         0.1400 
     33 CB         -1.5699  -16.4699  -45.5857 C.3       8 UNK        -0.1800 
     34 N           0.2936  -17.5744  -44.4389 N.am      8 UNK        -0.5000 
     35 C           1.2188  -18.4850  -44.1052 C.2       7 UNK         0.5000 
     36 O           1.3381  -19.5777  -44.6560 O.2       7 UNK        -0.5000 
     37 CA          2.1289  -18.1401  -42.9164 C.3       7 UNK         0.1400 
     38 CB          3.3067  -17.2603  -43.3614 C.3       7 UNK        -0.1800 
     39 N           1.3852  -17.4763  -41.8467 N.am      7 UNK        -0.5000 
     40 C           0.4808  -18.0855  -41.0669 C.2       6 UNK         0.5000 
     41 O           0.2129  -19.2859  -41.1371 O.2       6 UNK        -0.5000 
     42 CA         -0.2785  -17.1894  -40.0705 C.3       6 UNK         0.1400 
     43 CB          0.5677  -16.9332  -38.8144 C.3       6 UNK        -0.1800 
     44 N          -0.6762  -15.9087  -40.6597 N.am      6 UNK        -0.5000 
     45 C          -1.5887  -15.7838  -41.6332 C.2       5 UNK         0.5000 
     46 O          -2.2163  -16.7330  -42.1018 O.2       5 UNK        -0.5000 
     47 CA         -1.8154  -14.3722  -42.2099 C.3       5 UNK         0.1400 
     48 CB         -2.9015  -13.6327  -41.4155 C.3       5 UNK        -0.1800 
     49 N          -0.6154  -13.5314  -42.2877 N.am      5 UNK        -0.5000 
     50 C           0.5178  -13.8536  -42.9256 C.2       4 UNK         0.5000 
     51 O           0.7167  -14.9464  -43.4546 O.2       4 UNK        -0.5000 
     52 CA          1.5730  -12.7471  -43.0299 C.3       4 UNK         0.1400 
     53 CB          2.9780  -13.2836  -43.3614 C.3       4 UNK        -0.1800 
     54 N           1.1396  -11.8415  -44.0834 N.am      4 UNK        -0.5000 
     55 C           1.2946  -10.5133  -44.0902 C.2       3 UNK         0.5000 
     56 O           1.8389   -9.8796  -43.1839 O.2       3 UNK        -0.5000 
     57 CA          0.7422   -9.7918  -45.3343 C.3       3 UNK         0.1400 
     58 CB          1.1017   -8.2922  -45.4037 C.3       3 UNK        -0.1800 
     59 N           1.1038  -10.5101  -46.5598 N.am      3 UNK        -0.5000 
     60 C           2.3081  -10.6248  -47.1379 C.2       2 UNK         0.5000 
     61 O           3.3056   -9.9994  -46.7764 O.2       2 UNK        -0.5000 
     62 CA          2.4341  -11.6303  -48.3064 C.3       2 UNK         0.1400 
     63 CB          3.6126  -12.5931  -48.0803 C.3       2 UNK        -0.1800 
     64 N           1.2297  -12.4362  -48.5189 N.am      2 UNK        -0.5000 
     65 C           0.1204  -12.0601  -49.1639 C.2       1 UNK         0.5000 
     66 O          -0.0116  -10.9609  -49.7038 O.2       1 UNK        -0.5000 
     67 C          -0.6115  -22.9345  -47.5086 C.2       11 UNK         0.5000 
     68 O          -0.5391  -23.9028  -48.2641 O.2       11 UNK        -0.5000 
     69 N          -1.7666  -22.3355  -47.1843 N.am      12 UNK        -0.5000 
     70 CA         -3.0876  -22.7527  -47.6550 C.3       12 UNK         0.1400 
     71 CB         -4.1547  -21.7653  -47.1629 C.3       12 UNK        -0.1800 
     72 C          -3.4553  -24.1849  -47.2352 C.2       12 UNK         0.5000 
     73 O          -4.0361  -24.9156  -48.0373 O.2       12 UNK        -0.5000 
     74 N          -3.0932  -24.5705  -46.0051 N.am      13 UNK        -0.5000 
     75 CA         -3.2551  -25.9302  -45.4964 C.3       13 UNK         0.1400 
     76 CB         -3.0455  -25.9396  -43.9743 C.3       13 UNK        -0.1800 
     77 C          -2.3105  -26.9277  -46.1922 C.2       13 UNK         0.5000 
     78 O          -2.7568  -28.0011  -46.5981 O.2       13 UNK        -0.5000 
     79 N          -1.0306  -26.5530  -46.3256 N.am      14 UNK        -0.5000 
     80 CA          0.0256  -27.3832  -46.9055 C.3       14 UNK         0.1400 
     81 CB          1.3928  -26.7415  -46.6221 C.3       14 UNK        -0.1800 
     82 C          -0.1480  -27.6396  -48.4131 C.2       14 UNK         0.5000 
     83 O          -0.0210  -28.7837  -48.8513 O.2       14 UNK        -0.5000 
     84 N          -0.4281  -26.5765  -49.1773 N.am      15 UNK        -0.5000 
     85 CA         -0.5477  -26.6115  -50.6376 C.3       15 UNK         0.1400 
     86 CB          0.0615  -25.3250  -51.2155 C.3       15 UNK        -0.1800 
     87 C          -1.9916  -26.8400  -51.1313 C.2       15 UNK         0.5000 
     88 O          -2.2026  -26.8851  -52.3433 O.2       15 UNK        -0.5000 
     89 N          -2.9395  -27.0117  -50.1976 N.am      16 UNK        -0.5000 
     90 CA         -4.3524  -27.3502  -50.3927 C.3       16 UNK         0.1400 
     91 CB         -4.5034  -28.7343  -51.0581 C.3       16 UNK        -0.1800 
     92 C          -5.1440  -26.2487  -51.1266 C.2       16 UNK         0.5000 
     93 O          -5.3548  -26.3275  -52.3381 O.2       16 UNK        -0.5000 
     94 N          -5.5812  -25.2503  -50.3486 N.am      17 UNK        -0.5000 
     95 CA         -6.4172  -24.1046  -50.7307 C.3       17 UNK         0.1400 
     96 CB         -7.7624  -24.5524  -51.3415 C.3       17 UNK        -0.1800 
     97 C          -5.6748  -23.0577  -51.5847 C.2       17 UNK         0.5000 
     98 O          -6.2962  -22.3427  -52.3734 O.2       17 UNK        -0.5000 
     99 N          -4.3566  -22.9621  -51.3775 N.am      18 UNK        -0.5000 
    100 CA        -3.5008  -21.8948  -51.8922 C.3       18 UNK         0.1400 
    101 CB        -2.0627  -22.4256  -51.9556 C.3       18 UNK        -0.1800 
    102 C         -3.6083  -20.6211  -51.0228 C.2       18 UNK         0.5000 
    103 O         -4.4887  -20.5264  -50.1659 O.2       18 UNK        -0.5000 
    104 N         -2.7350  -19.6388  -51.2852 N.am      19 UNK        -0.5000 
    105 CA        -2.6310  -18.3042  -50.6687 C.3       19 UNK         0.1400 
    106 CB        -2.5009  -18.3658  -49.1351 C.3       19 UNK        -0.1800 
    107 C         -3.7493  -17.3506  -51.1245 C.2       19 UNK         0.5000 
    108 O         -3.4671  -16.2082  -51.4851 O.2       19 UNK        -0.5000 
    109 N         -4.9823  -17.8653  -51.1908 N.am      20 UNK        -0.5000 
    110 CA        -6.1028  -17.2819  -51.9297 C.3       20 UNK         0.1400 
    111 CB        -7.4063  -17.9159  -51.4201 C.3       20 UNK        -0.1800 
    112 C         -5.9649  -17.4820  -53.4565 C.2       20 UNK         0.5000 
    113 O         -6.6678  -16.8203  -54.2211 O.2       20 UNK        -0.5000 
    114 N         -5.0677  -18.3851  -53.8697 N.am      21 UNK        -0.5000 
    115 CA        -4.7175  -18.7076  -55.2459 C.3       21 UNK         0.1400 
    116 CB        -5.6391  -19.8276  -55.7577 C.3       21 UNK        -0.1800 
    117 C         -3.2437  -19.1412  -55.2837 C.2       21 UNK         0.5000 
    118 O         -2.6886  -19.5173  -54.2465 O.2       21 UNK        -0.5000 
    119 N         -2.6471  -19.0959  -56.4768 N.am      22 UNK        -0.5000 
    120 CA        -1.2661  -19.5087  -56.7580 C.3       22 UNK         0.1400 
    121 C         -1.1684  -20.1983  -58.1458 C.2       22 UNK         0.5000 
    122 N         -0.0763  -20.8997  -58.4163 N.am      22 UNK        -0.7600 
    123 O         -2.0591  -20.0917  -58.9875 O.2       22 UNK        -0.5000 
    124 C124       -0.2636  -18.3216  -56.6188 C.3       23 UNK        -0.0398 
    125 S125        0.9179  -18.5753  -55.2535 S.3       23 UNK        -0.2404 
    126 C126        0.1851  -17.4974  -53.9809 C.3       23 UNK        -0.0205 
    127 H127       -3.7357  -12.4297  -46.2480 H         1 UNK         0.0600 
    128 H128       -2.6128  -12.2119  -44.9043 H         1 UNK         0.0600 
    129 H129       -3.0984  -13.8388  -45.3929 H         1 UNK         0.0600 
    130 H130       -2.9329  -12.9539  -48.2758 H         1 UNK         0.3000 
    131 H131       -1.6813  -12.7170  -50.0050 H         1 UNK         0.0600 
    132 H132       -1.5771  -15.0896  -49.7673 H         1 UNK         0.0800 
    133 H133       -0.1501  -14.4960  -50.5417 H         1 UNK         0.0800 
    134 H134        2.5243  -16.3838  -48.7325 H         1 UNK         0.0800 
    135 H135        2.1568  -15.1713  -49.9315 H         1 UNK         0.0800 
    136 H136        1.0882  -15.8156  -52.0405 H         1 UNK         0.1150 
    137 H137        0.2328  -19.9439  -52.7789 H         1 UNK         0.1150 
    138 H138        1.4813  -18.6673  -48.8764 H         1 UNK         0.1150 
    139 H139       -0.2629  -21.0498  -49.8678 H         1 UNK         0.0800 
    140 H140        0.7620  -21.5976  -51.1711 H         1 UNK         0.0800 
    141 H141        0.4292  -20.3744  -47.6509 H         1 UNK         0.0800 
    142 H142        1.9824  -20.6686  -46.9266 H         1 UNK         0.0800 
    143 H143        1.4319  -23.1779  -46.9330 H         1 UNK         0.0600 
    144 H144        0.5922  -21.2215  -45.0816 H         1 UNK         0.3000 
    145 H145       -0.5520  -23.4843  -42.5384 H         1 UNK         0.0600 
    146 H146        1.0843  -22.0966  -41.2969 H         1 UNK         0.0600 
    147 H147        1.9216  -23.2318  -42.3454 H         1 UNK         0.0600 
    148 H148        1.8018  -21.5383  -42.8055 H         1 UNK         0.0600 
    149 H149       -0.5333  -20.6399  -42.6501 H         1 UNK         0.3000 
    150 H150       -3.8214  -20.2379  -44.0476 H         1 UNK         0.0600 
    151 H151       -4.0558  -20.6323  -41.5821 H         1 UNK         0.0600 
    152 H152       -4.0518  -18.9193  -41.9734 H         1 UNK         0.0600 
    153 H153       -2.6113  -19.6690  -41.2897 H         1 UNK         0.0600 
    154 H154       -1.9500  -18.2841  -43.2485 H         1 UNK         0.3000 
    155 H155       -0.2380  -17.9403  -46.4071 H         1 UNK         0.0600 
    156 H156       -2.2207  -16.3138  -44.7272 H         1 UNK         0.0600 
    157 H157       -0.9260  -15.5964  -45.6770 H         1 UNK         0.0600 
    158 H158       -2.2049  -16.5041  -46.4709 H         1 UNK         0.0600 
    159 H159        0.3186  -16.6717  -43.9699 H         1 UNK         0.3000 
    160 H160        2.5350  -19.0737  -42.5213 H         1 UNK         0.0600 
    161 H161        2.9696  -16.3226  -43.8028 H         1 UNK         0.0600 
    162 H162        3.9106  -17.7732  -44.1109 H         1 UNK         0.0600 
    163 H163        3.9615  -17.0216  -42.5233 H         1 UNK         0.0600 
    164 H164        1.4853  -16.4736  -41.7832 H         1 UNK         0.3000 
    165 H165       -1.1833  -17.7214  -39.7684 H         1 UNK         0.0600 
    166 H166        0.0076  -16.3653  -38.0713 H         1 UNK         0.0600 
    167 H167        0.8656  -17.8728  -38.3471 H         1 UNK         0.0600 
    168 H168        1.4779  -16.3783  -39.0455 H         1 UNK         0.0600 
    169 H169       -0.2039  -15.0802  -40.3293 H         1 UNK         0.3000 
    170 H170       -2.1781  -14.4992  -43.2303 H         1 UNK         0.0600 
    171 H171       -3.8163  -14.2243  -41.3593 H         1 UNK         0.0600 
    172 H172       -2.5813  -13.4246  -40.3938 H         1 UNK         0.0600 
    173 H173       -3.1592  -12.6845  -41.8878 H         1 UNK         0.0600 
    174 H174       -0.6966  -12.6045  -41.8955 H         1 UNK         0.3000 
    175 H175        1.6122  -12.2286  -42.0697 H         1 UNK         0.0600 
    176 H176        3.0008  -13.7818  -44.3316 H         1 UNK         0.0600 
    177 H177        3.7103  -12.4765  -43.3859 H         1 UNK         0.0600 
    178 H178        3.3093  -14.0024  -42.6112 H         1 UNK         0.0600 
    179 H179        0.6437  -12.2812  -44.8566 H         1 UNK         0.3000 
    180 H180       -0.3443   -9.8580  -45.2612 H         1 UNK         0.0600 
    181 H181        2.1783   -8.1249  -45.3734 H         1 UNK         0.0600 
    182 H182        0.6688   -7.7528  -44.5607 H         1 UNK         0.0600 
    183 H183        0.7149   -7.8354  -46.3146 H         1 UNK         0.0600 
    184 H184        0.3927  -11.1462  -46.8996 H         1 UNK         0.3000 
    185 H185        2.6329  -11.0513  -49.2103 H         1 UNK         0.0600 
    186 H186        4.5534  -12.0508  -47.9796 H         1 UNK         0.0600 
    187 H187        3.4759  -13.1867  -47.1753 H         1 UNK         0.0600 
    188 H188        3.7267  -13.2808  -48.9184 H         1 UNK         0.0600 
    189 H189        1.2030  -13.3333  -48.0494 H         1 UNK         0.3000 
    190 H190       -1.7453  -21.5076  -46.5908 H         1 UNK         0.3000 
    191 H191       -3.0694  -22.7204  -48.7449 H         1 UNK         0.0600 
    192 H192       -4.2225  -21.7515  -46.0752 H         1 UNK         0.0600 
    193 H193       -5.1386  -22.0278  -47.5534 H         1 UNK         0.0600 
    194 H194       -3.9367  -20.7512  -47.4957 H         1 UNK         0.0600 
    195 H195       -2.6712  -23.8912  -45.3808 H         1 UNK         0.3000 
    196 H196       -4.2809  -26.2476  -45.6955 H         1 UNK         0.0600 
    197 H197       -3.1790  -26.9427  -43.5678 H         1 UNK         0.0600 
    198 H198       -3.7627  -25.2874  -43.4755 H         1 UNK         0.0600 
    199 H199       -2.0452  -25.6037  -43.7003 H         1 UNK         0.0600 
    200 H200       -0.7392  -25.6610  -45.9350 H         1 UNK         0.3000 
    201 H201        0.0000  -28.3518  -46.4019 H         1 UNK         0.0600 
    202 H202        1.5706  -26.6515  -45.5504 H         1 UNK         0.0600 
    203 H203        1.4671  -25.7444  -47.0575 H         1 UNK         0.0600 
    204 H204        2.2024  -27.3435  -47.0365 H         1 UNK         0.0600 
    205 H205       -0.5084  -25.6577  -48.7427 H         1 UNK         0.3000 
    206 H206        0.0410  -27.4445  -51.0273 H         1 UNK         0.0600 
    207 H207        1.1192  -25.2457  -50.9642 H         1 UNK         0.0600 
    208 H208       -0.0169  -25.2968  -52.3029 H         1 UNK         0.0600 
    209 H209       -0.4350  -24.4416  -50.8238 H         1 UNK         0.0600 
    210 H210       -2.6517  -26.9150  -49.2336 H         1 UNK         0.3000 
    211 H211       -4.7783  -27.4366  -49.3914 H         1 UNK         0.0600 
    212 H212       -4.0990  -28.7519  -52.0704 H         1 UNK         0.0600 
    213 H213       -5.5541  -29.0187  -51.1242 H         1 UNK         0.0600 
    214 H214       -3.9935  -29.5055  -50.4806 H         1 UNK         0.0600 
    215 H215       -5.2534  -25.2414  -49.3840 H         1 UNK         0.3000 
    216 H216       -6.6496  -23.5951  -49.7944 H         1 UNK         0.0600 
    217 H217       -8.4426  -23.7065  -51.4467 H         1 UNK         0.0600 
    218 H218       -8.2583  -25.2885  -50.7089 H         1 UNK         0.0600 
    219 H219       -7.6351  -24.9895  -52.3320 H         1 UNK         0.0600 
    220 H220       -3.9425  -23.5935  -50.7091 H         1 UNK         0.3000 
    221 H221       -3.8207  -21.6397  -52.9045 H         1 UNK         0.0600 
    222 H222       -1.6639  -22.5851  -50.9547 H         1 UNK         0.0600 
    223 H223       -2.0152  -23.3722  -52.4947 H         1 UNK         0.0600 
    224 H224       -1.4040  -21.7313  -52.4769 H         1 UNK         0.0600 
    225 H225       -2.1307  -19.7692  -52.0877 H         1 UNK         0.3000 
    226 H226       -1.7027  -17.8776  -51.0443 H         1 UNK         0.0600 
    227 H227       -1.7173  -19.0598  -48.8310 H         1 UNK         0.0600 
    228 H228       -2.2381  -17.3869  -48.7350 H         1 UNK         0.0600 
    229 H229       -3.4284  -18.6727  -48.6528 H         1 UNK         0.0600 
    230 H230       -5.1084  -18.8084  -50.8339 H         1 UNK         0.3000 
    231 H231       -6.1372  -16.2082  -51.7339 H         1 UNK         0.0600 
    232 H232       -8.2732  -17.4914  -51.9279 H         1 UNK         0.0600 
    233 H233       -7.5382  -17.7417  -50.3521 H         1 UNK         0.0600 
    234 H234       -7.4208  -18.9937  -51.5888 H         1 UNK         0.0600 
    235 H235       -4.4812  -18.8380  -53.1826 H         1 UNK         0.3000 
    236 H236       -4.8311  -17.8195  -55.8711 H         1 UNK         0.0600 
    237 H237       -6.6838  -19.5167  -55.7413 H         1 UNK         0.0600 
    238 H238       -5.3976  -20.0984  -56.7862 H         1 UNK         0.0600 
    239 H239       -5.5498  -20.7288  -55.1491 H         1 UNK         0.0600 
    240 H240       -3.1818  -18.8447  -57.2977 H         1 UNK         0.3000 
    241 H241       -1.0120  -20.2942  -56.0429 H         1 UNK         0.0600 
    242 H242        0.6706  -20.9928  -57.7446 H         1 UNK         0.3800 
    243 H243        0.0082  -21.3493  -59.3150 H         1 UNK         0.3800 
    244 H244        0.3267  -18.1739  -57.5252 H         1 UNK         0.0800 
    245 H245       -0.7876  -17.3752  -56.4763 H         1 UNK         0.0800 
    246 H246       -0.9017  -17.5734  -54.0144 H         1 UNK         0.0800 
    247 H247        0.4295  -16.4617  -54.2212 H         1 UNK         0.0800 
@<TRIPOS>BOND
     1    1    2 1    
     2    1  127 1    
     3    1  128 1    
     4    1  129 1    
     5    2    3 2    
     6    2    4 am   BACKBONE|DICT|INTERRES
     7    4    5 1    
     8    4  130 1    
     9    5    6 1    
    10    5   65 1    
    11    5  131 1    
    12    6    7 1    
    13    6  132 1    
    14    6  133 1    
    15    7    8 1    
    16    8    9 1    
    17    8  134 1    
    18    8  135 1    
    19    9   10 ar   
    20    9   14 ar   
    21   10   11 ar   
    22   10  136 1    
    23   11   12 ar   
    24   11  126 1    
    25   12   13 ar   
    26   12  137 1    
    27   13   14 ar   
    28   13   15 1    
    29   14  138 1    
    30   15   16 1    
    31   15  139 1    
    32   15  140 1    
    33   16   17 1    
    34   17   18 1    
    35   17  141 1    
    36   17  142 1    
    37   18   19 1    
    38   18   67 1    
    39   18  143 1    
    40   19   20 am   BACKBONE|DICT|INTERRES
    41   19  144 1    
    42   20   21 2    
    43   20   22 1    
    44   22   23 1    
    45   22   24 1    
    46   22  145 1    
    47   23  146 1    
    48   23  147 1    
    49   23  148 1    
    50   24   25 am   BACKBONE|DICT|INTERRES
    51   24  149 1    
    52   25   26 2    
    53   25   27 1    
    54   27   28 1    
    55   27   29 1    
    56   27  150 1    
    57   28  151 1    
    58   28  152 1    
    59   28  153 1    
    60   29   30 am   BACKBONE|DICT|INTERRES
    61   29  154 1    
    62   30   31 2    
    63   30   32 1    
    64   32   33 1    
    65   32   34 1    
    66   32  155 1    
    67   33  156 1    
    68   33  157 1    
    69   33  158 1    
    70   34   35 am   BACKBONE|DICT|INTERRES
    71   34  159 1    
    72   35   36 2    
    73   35   37 1    
    74   37   38 1    
    75   37   39 1    
    76   37  160 1    
    77   38  161 1    
    78   38  162 1    
    79   38  163 1    
    80   39   40 am   BACKBONE|DICT|INTERRES
    81   39  164 1    
    82   40   41 2    
    83   40   42 1    
    84   42   43 1    
    85   42   44 1    
    86   42  165 1    
    87   43  166 1    
    88   43  167 1    
    89   43  168 1    
    90   44   45 am   BACKBONE|DICT|INTERRES
    91   44  169 1    
    92   45   46 2    
    93   45   47 1    
    94   47   48 1    
    95   47   49 1    
    96   47  170 1    
    97   48  171 1    
    98   48  172 1    
    99   48  173 1    
   100   49   50 am   BACKBONE|DICT|INTERRES
   101   49  174 1    
   102   50   51 2    
   103   50   52 1    
   104   52   53 1    
   105   52   54 1    
   106   52  175 1    
   107   53  176 1    
   108   53  177 1    
   109   53  178 1    
   110   54   55 am   BACKBONE|DICT|INTERRES
   111   54  179 1    
   112   55   56 2    
   113   55   57 1    
   114   57   58 1    
   115   57   59 1    
   116   57  180 1    
   117   58  181 1    
   118   58  182 1    
   119   58  183 1    
   120   59   60 am   BACKBONE|DICT|INTERRES
   121   59  184 1    
   122   60   61 2    
   123   60   62 1    
   124   62   63 1    
   125   62   64 1    
   126   62  185 1    
   127   63  186 1    
   128   63  187 1    
   129   63  188 1    
   130   64   65 am   BACKBONE|DICT|INTERRES
   131   64  189 1    
   132   65   66 2    
   133   67   68 2    
   134   67   69 am   BACKBONE|DICT|INTERRES
   135   69   70 1    
   136   69  190 1    
   137   70   71 1    
   138   70   72 1    
   139   70  191 1    
   140   71  192 1    
   141   71  193 1    
   142   71  194 1    
   143   72   73 2    
   144   72   74 am   BACKBONE|DICT|INTERRES
   145   74   75 1    
   146   74  195 1    
   147   75   76 1    
   148   75   77 1    
   149   75  196 1    
   150   76  197 1    
   151   76  198 1    
   152   76  199 1    
   153   77   78 2    
   154   77   79 am   BACKBONE|DICT|INTERRES
   155   79   80 1    
   156   79  200 1    
   157   80   81 1    
   158   80   82 1    
   159   80  201 1    
   160   81  202 1    
   161   81  203 1    
   162   81  204 1    
   163   82   83 2    
   164   82   84 am   BACKBONE|DICT|INTERRES
   165   84   85 1    
   166   84  205 1    
   167   85   86 1    
   168   85   87 1    
   169   85  206 1    
   170   86  207 1    
   171   86  208 1    
   172   86  209 1    
   173   87   88 2    
   174   87   89 am   BACKBONE|DICT|INTERRES
   175   89   90 1    
   176   89  210 1    
   177   90   91 1    
   178   90   92 1    
   179   90  211 1    
   180   91  212 1    
   181   91  213 1    
   182   91  214 1    
   183   92   93 2    
   184   92   94 am   BACKBONE|DICT|INTERRES
   185   94   95 1    
   186   94  215 1    
   187   95   96 1    
   188   95   97 1    
   189   95  216 1    
   190   96  217 1    
   191   96  218 1    
   192   96  219 1    
   193   97   98 2    
   194   97   99 am   BACKBONE|DICT|INTERRES
   195   99  100 1    
   196   99  220 1    
   197  100  101 1    
   198  100  102 1    
   199  100  221 1    
   200  101  222 1    
   201  101  223 1    
   202  101  224 1    
   203  102  103 2    
   204  102  104 am   BACKBONE|DICT|INTERRES
   205  104  105 1    
   206  104  225 1    
   207  105  106 1    
   208  105  107 1    
   209  105  226 1    
   210  106  227 1    
   211  106  228 1    
   212  106  229 1    
   213  107  108 2    
   214  107  109 am   BACKBONE|DICT|INTERRES
   215  109  110 1    
   216  109  230 1    
   217  110  111 1    
   218  110  112 1    
   219  110  231 1    
   220  111  232 1    
   221  111  233 1    
   222  111  234 1    
   223  112  113 2    
   224  112  114 am   BACKBONE|DICT|INTERRES
   225  114  115 1    
   226  114  235 1    
   227  115  116 1    
   228  115  117 1    
   229  115  236 1    
   230  116  237 1    
   231  116  238 1    
   232  116  239 1    
   233  117  118 2    
   234  117  119 am   BACKBONE|DICT|INTERRES
   235  119  120 1    
   236  119  240 1    
   237  120  121 1    
   238  120  124 1    
   239  120  241 1    
   240  121  122 am   BACKBONE|DICT|INTERRES
   241  121  123 2    
   242  122  242 1    
   243  122  243 1    
   244  124  125 1    
   245  124  244 1    
   246  124  245 1    
   247  125  126 1    
   248  126  246 1    
   249  126  247 1    
@<TRIPOS>SUBSTRUCTURE
     1 UNK         1 GROUP             0       ****    0 ROOT    
