@<TRIPOS>MOLECULE
3R540
247   249    1
SMALL
USER_CHARGES


@<TRIPOS>ATOM
      1 CA         -2.4179  -10.6811  -48.3477 C.3       0 UNK        -0.1800 
      2 C          -1.5446  -11.8426  -47.8955 C.2       0 UNK         0.5000 
      3 O          -1.6712  -12.2916  -46.7579 O.2       0 UNK        -0.5000 
      4 N          -0.6637  -12.3235  -48.7839 N.am      1 UNK        -0.5000 
      5 CA          0.2727  -13.4388  -48.5711 C.3       1 UNK         0.1400 
      6 C6         -0.4146  -14.8101  -48.3214 C.3       23 UNK        -0.0398 
      7 S7         -1.5997  -15.2325  -49.6472 S.3       23 UNK        -0.2404 
      8 C8         -2.8493  -16.2047  -48.7364 C.3       23 UNK        -0.0205 
      9 C9         -2.6512  -17.7209  -48.7709 C.ar      23 UNK        -0.0193 
     10 C10        -3.7601  -18.5370  -48.5257 C.ar      23 UNK        -0.1150 
     11 C11        -3.6422  -19.9291  -48.5240 C.ar      23 UNK        -0.0193 
     12 C12        -2.3990  -20.5103  -48.7765 C.ar      23 UNK        -0.1150 
     13 C13        -1.2755  -19.7139  -49.0069 C.ar      23 UNK        -0.0193 
     14 C14        -1.4072  -18.3224  -49.0090 C.ar      23 UNK        -0.1150 
     15 C15         0.0850  -20.3663  -49.2112 C.3       23 UNK        -0.0205 
     16 S16         1.2426  -20.0603  -47.8354 S.3       23 UNK        -0.2404 
     17 C17         0.2423  -20.4030  -46.3465 C.3       23 UNK        -0.0398 
     18 CA          0.4362  -21.8192  -45.7615 C.3       11 UNK         0.1400 
     19 N           0.0912  -21.8351  -44.3380 N.am      11 UNK        -0.5000 
     20 C           0.2287  -22.8714  -43.5009 C.2       10 UNK         0.5000 
     21 O           0.6852  -23.9644  -43.8326 O.2       10 UNK        -0.5000 
     22 CA         -0.2805  -22.6561  -42.0671 C.3       10 UNK         0.1400 
     23 CB          0.7431  -21.8707  -41.2326 C.3       10 UNK        -0.1800 
     24 N          -1.5599  -21.9458  -42.0756 N.am      10 UNK        -0.5000 
     25 C          -2.7448  -22.5379  -42.2802 C.2       9 UNK         0.5000 
     26 O          -2.8878  -23.7555  -42.3918 O.2       9 UNK        -0.5000 
     27 CA         -3.9793  -21.6212  -42.3924 C.3       9 UNK         0.1400 
     28 CB         -4.6247  -21.4181  -41.0134 C.3       9 UNK        -0.1800 
     29 N          -3.6874  -20.3125  -42.9814 N.am      9 UNK        -0.5000 
     30 C          -3.3235  -20.1158  -44.2562 C.2       8 UNK         0.5000 
     31 O          -3.1897  -21.0225  -45.0754 O.2       8 UNK        -0.5000 
     32 CA         -3.0054  -18.6667  -44.6713 C.3       8 UNK         0.1400 
     33 CB         -4.2916  -17.9263  -45.0659 C.3       8 UNK        -0.1800 
     34 N          -2.3000  -17.8874  -43.6490 N.am      8 UNK        -0.5000 
     35 C          -1.1635  -18.2351  -43.0311 C.2       7 UNK         0.5000 
     36 O          -0.5889  -19.3088  -43.2172 O.2       7 UNK        -0.5000 
     37 CA         -0.5790  -17.1989  -42.0540 C.3       7 UNK         0.1400 
     38 CB          0.6209  -17.7445  -41.2597 C.3       7 UNK        -0.1800 
     39 N          -0.1725  -15.9876  -42.7653 N.am      7 UNK        -0.5000 
     40 C          -0.9947  -14.9888  -43.1216 C.2       6 UNK         0.5000 
     41 O          -2.2073  -15.0159  -42.9008 O.2       6 UNK        -0.5000 
     42 CA         -0.3849  -13.7806  -43.8687 C.3       6 UNK         0.1400 
     43 CB         -1.0427  -12.4437  -43.4696 C.3       6 UNK        -0.1800 
     44 N           1.0761  -13.6949  -43.7785 N.am      6 UNK        -0.5000 
     45 C           1.8233  -13.5139  -42.6776 C.2       5 UNK         0.5000 
     46 O           1.3533  -13.2947  -41.5603 O.2       5 UNK        -0.5000 
     47 CA          3.3543  -13.6246  -42.8565 C.3       5 UNK         0.1400 
     48 CB          4.0645  -14.1186  -41.5790 C.3       5 UNK        -0.1800 
     49 N           3.7566  -14.4374  -44.0124 N.am      5 UNK        -0.5000 
     50 C           3.4659  -15.7286  -44.2460 C.2       4 UNK         0.5000 
     51 O           2.8006  -16.4189  -43.4740 O.2       4 UNK        -0.5000 
     52 CA          3.9478  -16.3346  -45.5807 C.3       4 UNK         0.1400 
     53 CB          2.8664  -17.2321  -46.2077 C.3       4 UNK        -0.1800 
     54 N           4.2921  -15.2859  -46.5405 N.am      4 UNK        -0.5000 
     55 C           5.5308  -14.9250  -46.9014 C.2       3 UNK         0.5000 
     56 O           6.5501  -15.5042  -46.5256 O.2       3 UNK        -0.5000 
     57 CA          5.6566  -13.6855  -47.8142 C.3       3 UNK         0.1400 
     58 CB          5.8156  -14.1141  -49.2808 C.3       3 UNK        -0.1800 
     59 N           4.5213  -12.7628  -47.7100 N.am      3 UNK        -0.5000 
     60 C           4.1838  -12.0752  -46.6092 C.2       2 UNK         0.5000 
     61 O           4.8442  -12.0896  -45.5707 O.2       2 UNK        -0.5000 
     62 CA          2.8515  -11.3002  -46.6457 C.3       2 UNK         0.1400 
     63 CB          3.0949   -9.8265  -47.0014 C.3       2 UNK        -0.1800 
     64 N           1.8558  -11.8586  -47.5671 N.am      2 UNK        -0.5000 
     65 C           1.3337  -13.0931  -47.5022 C.2       1 UNK         0.5000 
     66 O           1.6708  -13.9253  -46.6566 O.2       1 UNK        -0.5000 
     67 C          -0.3315  -22.8930  -46.5662 C.2       11 UNK         0.5000 
     68 O           0.2474  -23.5093  -47.4602 O.2       11 UNK        -0.5000 
     69 N          -1.5889  -23.1627  -46.1835 N.am      12 UNK        -0.5000 
     70 CA         -2.4404  -24.2222  -46.7299 C.3       12 UNK         0.1400 
     71 CB         -3.8089  -24.1846  -46.0321 C.3       12 UNK        -0.1800 
     72 C          -1.8487  -25.6425  -46.6233 C.2       12 UNK         0.5000 
     73 O          -2.1781  -26.4899  -47.4525 O.2       12 UNK        -0.5000 
     74 N          -0.9862  -25.8861  -45.6251 N.am      13 UNK        -0.5000 
     75 CA         -0.2787  -27.1571  -45.4594 C.3       13 UNK         0.1400 
     76 CB          0.2230  -27.2835  -44.0129 C.3       13 UNK        -0.1800 
     77 C           0.8854  -27.3167  -46.4563 C.2       13 UNK         0.5000 
     78 O           1.2480  -28.4489  -46.7784 O.2       13 UNK        -0.5000 
     79 N           1.4445  -26.1943  -46.9302 N.am      14 UNK        -0.5000 
     80 CA          2.4814  -26.1597  -47.9583 C.3       14 UNK         0.1400 
     81 CB          3.3687  -24.9196  -47.7598 C.3       14 UNK        -0.1800 
     82 C           1.8602  -26.1780  -49.3645 C.2       14 UNK         0.5000 
     83 O           2.3101  -26.9492  -50.2132 O.2       14 UNK        -0.5000 
     84 N           0.8323  -25.3479  -49.5823 N.am      15 UNK        -0.5000 
     85 CA          0.1192  -25.2207  -50.8472 C.3       15 UNK         0.1400 
     86 CB          0.9380  -24.3662  -51.8348 C.3       15 UNK        -0.1800 
     87 C          -1.2673  -24.6165  -50.5917 C.2       15 UNK         0.5000 
     88 O          -1.3860  -23.4027  -50.4253 O.2       15 UNK        -0.5000 
     89 N          -2.3012  -25.4647  -50.5692 N.am      16 UNK        -0.5000 
     90 CA         -3.6992  -25.0352  -50.5432 C.3       16 UNK         0.1400 
     91 CB         -4.5969  -26.2327  -50.1983 C.3       16 UNK        -0.1800 
     92 C          -4.0951  -24.4240  -51.8994 C.2       16 UNK         0.5000 
     93 O          -3.7556  -24.9913  -52.9408 O.2       16 UNK        -0.5000 
     94 N          -4.7980  -23.2844  -51.8542 N.am      17 UNK        -0.5000 
     95 CA         -5.2409  -22.4773  -52.9970 C.3       17 UNK         0.1400 
     96 CB         -6.3161  -23.2204  -53.8160 C.3       17 UNK        -0.1800 
     97 C          -4.0763  -21.9465  -53.8608 C.2       17 UNK         0.5000 
     98 O          -4.2193  -21.8301  -55.0799 O.2       17 UNK        -0.5000 
     99 N          -2.9488  -21.6129  -53.2132 N.am      18 UNK        -0.5000 
    100 CA        -1.7611  -21.0100  -53.8231 C.3       18 UNK         0.1400 
    101 CB        -0.7010  -20.7785  -52.7376 C.3       18 UNK        -0.1800 
    102 C         -2.1080  -19.6868  -54.5272 C.2       18 UNK         0.5000 
    103 O         -2.5729  -18.7568  -53.8672 O.2       18 UNK        -0.5000 
    104 N         -1.9587  -19.6581  -55.8597 N.am      19 UNK        -0.5000 
    105 CA        -2.3573  -18.5663  -56.7624 C.3       19 UNK         0.1400 
    106 CB        -1.4411  -17.3414  -56.5596 C.3       19 UNK        -0.1800 
    107 C         -3.8600  -18.2019  -56.6713 C.2       19 UNK         0.5000 
    108 O         -4.2350  -17.0661  -56.9659 O.2       19 UNK        -0.5000 
    109 N         -4.6834  -19.1697  -56.2364 N.am      20 UNK        -0.5000 
    110 CA        -6.1096  -19.0693  -55.9155 C.3       20 UNK         0.1400 
    111 CB        -6.9384  -18.7283  -57.1712 C.3       20 UNK        -0.1800 
    112 C         -6.4304  -18.1384  -54.7234 C.2       20 UNK         0.5000 
    113 O         -7.5972  -17.7863  -54.5424 O.2       20 UNK        -0.5000 
    114 N         -5.4271  -17.7849  -53.9011 N.am      21 UNK        -0.5000 
    115 CA        -5.5415  -16.8256  -52.7925 C.3       21 UNK         0.1400 
    116 CB        -4.1428  -16.5172  -52.2408 C.3       21 UNK        -0.1800 
    117 C         -6.4872  -17.2606  -51.6538 C.2       21 UNK         0.5000 
    118 O         -6.9774  -16.4060  -50.9147 O.2       21 UNK        -0.5000 
    119 N         -6.7497  -18.5666  -51.5577 N.am      22 UNK        -0.5000 
    120 CA        -7.7726  -19.1776  -50.6987 C.3       22 UNK         0.1400 
    121 C         -8.6956  -20.1559  -51.4843 C.2       22 UNK         0.5000 
    122 N         -8.8145  -20.0282  -52.8022 N.am      22 UNK        -0.7600 
    123 O         -9.3313  -21.0289  -50.9003 O.2       22 UNK        -0.5000 
    124 C124       -7.1765  -19.7650  -49.3922 C.3       23 UNK        -0.0398 
    125 S125       -5.9149  -21.0620  -49.6473 S.3       23 UNK        -0.2404 
    126 C126       -4.8373  -20.8129  -48.2051 C.3       23 UNK        -0.0205 
    127 H127       -2.2007  -10.3848  -49.3741 H         1 UNK         0.0600 
    128 H128       -2.2562   -9.8176  -47.7025 H         1 UNK         0.0600 
    129 H129       -3.4701  -10.9595  -48.2895 H         1 UNK         0.0600 
    130 H130       -0.6324  -11.9102  -49.7053 H         1 UNK         0.3000 
    131 H131        0.8313  -13.5331  -49.5035 H         1 UNK         0.0600 
    132 H132        0.3297  -15.6065  -48.2705 H         1 UNK         0.0800 
    133 H133       -0.9226  -14.8073  -47.3566 H         1 UNK         0.0800 
    134 H134       -2.9016  -15.8768  -47.6980 H         1 UNK         0.0800 
    135 H135       -3.8217  -15.9683  -49.1699 H         1 UNK         0.0800 
    136 H136       -4.7177  -18.0816  -48.3218 H         1 UNK         0.1150 
    137 H137       -2.2984  -21.5862  -48.7634 H         1 UNK         0.1150 
    138 H138       -0.5276  -17.7199  -49.1784 H         1 UNK         0.1150 
    139 H139       -0.0187  -21.4431  -49.3470 H         1 UNK         0.0800 
    140 H140        0.5319  -19.9868  -50.1303 H         1 UNK         0.0800 
    141 H141       -0.8128  -20.1896  -46.5059 H         1 UNK         0.0800 
    142 H142        0.5681  -19.6630  -45.6146 H         1 UNK         0.0800 
    143 H143        1.4971  -22.0715  -45.8202 H         1 UNK         0.0600 
    144 H144       -0.2628  -20.9608  -43.9563 H         1 UNK         0.3000 
    145 H145       -0.4130  -23.6356  -41.6024 H         1 UNK         0.0600 
    146 H146        0.3903  -21.7249  -40.2116 H         1 UNK         0.0600 
    147 H147        1.6906  -22.4078  -41.1760 H         1 UNK         0.0600 
    148 H148        0.9502  -20.8888  -41.6589 H         1 UNK         0.0600 
    149 H149       -1.5155  -20.9356  -42.0600 H         1 UNK         0.3000 
    150 H150       -4.7030  -22.1251  -43.0368 H         1 UNK         0.0600 
    151 H151       -5.5469  -20.8418  -41.0902 H         1 UNK         0.0600 
    152 H152       -4.8787  -22.3755  -40.5563 H         1 UNK         0.0600 
    153 H153       -3.9562  -20.8944  -40.3289 H         1 UNK         0.0600 
    154 H154       -3.7629  -19.5103  -42.3736 H         1 UNK         0.3000 
    155 H155       -2.3603  -18.7115  -45.5502 H         1 UNK         0.0600 
    156 H156       -4.9408  -17.7607  -44.2054 H         1 UNK         0.0600 
    157 H157       -4.8631  -18.4940  -45.8006 H         1 UNK         0.0600 
    158 H158       -4.0668  -16.9560  -45.5090 H         1 UNK         0.0600 
    159 H159       -2.6702  -16.9651  -43.4457 H         1 UNK         0.3000 
    160 H160       -1.3601  -16.9467  -41.3339 H         1 UNK         0.0600 
    161 H161        1.4266  -18.0745  -41.9163 H         1 UNK         0.0600 
    162 H162        0.3267  -18.5986  -40.6489 H         1 UNK         0.0600 
    163 H163        1.0266  -16.9880  -40.5878 H         1 UNK         0.0600 
    164 H164        0.8090  -15.9310  -43.0159 H         1 UNK         0.3000 
    165 H165       -0.6036  -13.9508  -44.9229 H         1 UNK         0.0600 
    166 H166       -0.6006  -11.6107  -44.0163 H         1 UNK         0.0600 
    167 H167       -2.1080  -12.4494  -43.7026 H         1 UNK         0.0600 
    168 H168       -0.9427  -12.2407  -42.4033 H         1 UNK         0.0600 
    169 H169        1.5567  -13.8688  -44.6557 H         1 UNK         0.3000 
    170 H170        3.7062  -12.6123  -43.0588 H         1 UNK         0.0600 
    171 H171        3.8961  -13.4347  -40.7464 H         1 UNK         0.0600 
    172 H172        3.7067  -15.1017  -41.2715 H         1 UNK         0.0600 
    173 H173        5.1422  -14.1850  -41.7280 H         1 UNK         0.0600 
    174 H174        4.2938  -13.9382  -44.7115 H         1 UNK         0.3000 
    175 H175        4.8194  -16.9529  -45.3585 H         1 UNK         0.0600 
    176 H176        1.9375  -16.6873  -46.3798 H         1 UNK         0.0600 
    177 H177        3.1978  -17.6382  -47.1634 H         1 UNK         0.0600 
    178 H178        2.6344  -18.0794  -45.5613 H         1 UNK         0.0600 
    179 H179        3.5071  -14.7314  -46.8646 H         1 UNK         0.3000 
    180 H180        6.5573  -13.1463  -47.5135 H         1 UNK         0.0600 
    181 H181        4.9333  -14.6431  -49.6433 H         1 UNK         0.0600 
    182 H182        6.6708  -14.7803  -49.4027 H         1 UNK         0.0600 
    183 H183        5.9821  -13.2530  -49.9283 H         1 UNK         0.0600 
    184 H184        3.9233  -12.6885  -48.5196 H         1 UNK         0.3000 
    185 H185        2.4260  -11.3430  -45.6408 H         1 UNK         0.0600 
    186 H186        3.8122   -9.3719  -46.3166 H         1 UNK         0.0600 
    187 H187        3.4904   -9.7165  -48.0120 H         1 UNK         0.0600 
    188 H188        2.1738   -9.2472  -46.9353 H         1 UNK         0.0600 
    189 H189        1.5123  -11.2359  -48.2841 H         1 UNK         0.3000 
    190 H190       -2.0220  -22.5552  -45.4945 H         1 UNK         0.3000 
    191 H191       -2.5833  -24.0027  -47.7882 H         1 UNK         0.0600 
    192 H192       -4.2844  -23.2100  -46.1220 H         1 UNK         0.0600 
    193 H193       -4.4894  -24.9172  -46.4680 H         1 UNK         0.0600 
    194 H194       -3.7204  -24.4105  -44.9690 H         1 UNK         0.0600 
    195 H195       -0.7323  -25.1381  -44.9906 H         1 UNK         0.3000 
    196 H196       -0.9839  -27.9715  -45.6392 H         1 UNK         0.0600 
    197 H197        0.6444  -28.2736  -43.8354 H         1 UNK         0.0600 
    198 H198       -0.5869  -27.1411  -43.2973 H         1 UNK         0.0600 
    199 H199        1.0030  -26.5557  -43.7894 H         1 UNK         0.0600 
    200 H200        1.0481  -25.3020  -46.6628 H         1 UNK         0.3000 
    201 H201        3.1193  -27.0407  -47.8587 H         1 UNK         0.0600 
    202 H202        3.8275  -24.9188  -46.7710 H         1 UNK         0.0600 
    203 H203        2.8082  -23.9910  -47.8685 H         1 UNK         0.0600 
    204 H204        4.1758  -24.9000  -48.4930 H         1 UNK         0.0600 
    205 H205        0.5290  -24.7212  -48.8380 H         1 UNK         0.3000 
    206 H206       -0.0183  -26.2123  -51.2838 H         1 UNK         0.0600 
    207 H207        1.8677  -24.8622  -52.1135 H         1 UNK         0.0600 
    208 H208        0.3784  -24.1865  -52.7536 H         1 UNK         0.0600 
    209 H209        1.1936  -23.3957  -51.4076 H         1 UNK         0.0600 
    210 H210       -2.1367  -26.4506  -50.7089 H         1 UNK         0.3000 
    211 H211       -3.8211  -24.2805  -49.7637 H         1 UNK         0.0600 
    212 H212       -4.5086  -27.0294  -50.9380 H         1 UNK         0.0600 
    213 H213       -5.6454  -25.9347  -50.1595 H         1 UNK         0.0600 
    214 H214       -4.3416  -26.6490  -49.2237 H         1 UNK         0.0600 
    215 H215       -5.0255  -22.8930  -50.9489 H         1 UNK         0.3000 
    216 H216       -5.7183  -21.5915  -52.5777 H         1 UNK         0.0600 
    217 H217       -6.7483  -22.5695  -54.5769 H         1 UNK         0.0600 
    218 H218       -7.1339  -23.5554  -53.1779 H         1 UNK         0.0600 
    219 H219       -5.9075  -24.0930  -54.3262 H         1 UNK         0.0600 
    220 H220       -2.9128  -21.7457  -52.2125 H         1 UNK         0.3000 
    221 H221       -1.3611  -21.7163  -54.5530 H         1 UNK         0.0600 
    222 H222       -1.0684  -20.1030  -51.9643 H         1 UNK         0.0600 
    223 H223       -0.4136  -21.7125  -52.2580 H         1 UNK         0.0600 
    224 H224        0.2027  -20.3369  -53.1588 H         1 UNK         0.0600 
    225 H225       -1.6090  -20.4884  -56.3180 H         1 UNK         0.3000 
    226 H226       -2.1986  -18.9340  -57.7770 H         1 UNK         0.0600 
    227 H227       -0.3896  -17.6188  -56.6334 H         1 UNK         0.0600 
    228 H228       -1.6277  -16.5809  -57.3186 H         1 UNK         0.0600 
    229 H229       -1.5977  -16.8762  -55.5857 H         1 UNK         0.0600 
    230 H230       -4.2706  -20.0701  -56.0097 H         1 UNK         0.3000 
    231 H231       -6.4082  -20.0680  -55.5943 H         1 UNK         0.0600 
    232 H232       -6.7643  -17.7064  -57.5086 H         1 UNK         0.0600 
    233 H233       -6.6999  -19.4001  -57.9957 H         1 UNK         0.0600 
    234 H234       -8.0066  -18.8272  -56.9744 H         1 UNK         0.0600 
    235 H235       -4.4914  -18.1350  -54.0841 H         1 UNK         0.3000 
    236 H236       -5.9476  -15.9019  -53.2093 H         1 UNK         0.0600 
    237 H237       -3.4648  -16.1955  -53.0316 H         1 UNK         0.0600 
    238 H238       -4.1852  -15.7119  -51.5076 H         1 UNK         0.0600 
    239 H239       -3.7006  -17.3868  -51.7521 H         1 UNK         0.0600 
    240 H240       -6.2880  -19.1932  -52.1982 H         1 UNK         0.3000 
    241 H241       -8.4651  -18.3937  -50.3872 H         1 UNK         0.0600 
    242 H242       -8.4006  -19.2434  -53.2906 H         1 UNK         0.3800 
    243 H243       -9.4265  -20.6564  -53.2985 H         1 UNK         0.3800 
    244 H244       -6.7417  -18.9506  -48.8144 H         1 UNK         0.0800 
    245 H245       -7.9669  -20.1745  -48.7613 H         1 UNK         0.0800 
    246 H246       -5.4023  -20.4017  -47.3676 H         1 UNK         0.0800 
    247 H247       -4.4875  -21.7904  -47.8755 H         1 UNK         0.0800 
@<TRIPOS>BOND
     1    1    2 1    
     2    1  127 1    
     3    1  128 1    
     4    1  129 1    
     5    2    3 2    
     6    2    4 am   BACKBONE|DICT|INTERRES
     7    4    5 1    
     8    4  130 1    
     9    5    6 1    
    10    5   65 1    
    11    5  131 1    
    12    6    7 1    
    13    6  132 1    
    14    6  133 1    
    15    7    8 1    
    16    8    9 1    
    17    8  134 1    
    18    8  135 1    
    19    9   10 ar   
    20    9   14 ar   
    21   10   11 ar   
    22   10  136 1    
    23   11   12 ar   
    24   11  126 1    
    25   12   13 ar   
    26   12  137 1    
    27   13   14 ar   
    28   13   15 1    
    29   14  138 1    
    30   15   16 1    
    31   15  139 1    
    32   15  140 1    
    33   16   17 1    
    34   17   18 1    
    35   17  141 1    
    36   17  142 1    
    37   18   19 1    
    38   18   67 1    
    39   18  143 1    
    40   19   20 am   BACKBONE|DICT|INTERRES
    41   19  144 1    
    42   20   21 2    
    43   20   22 1    
    44   22   23 1    
    45   22   24 1    
    46   22  145 1    
    47   23  146 1    
    48   23  147 1    
    49   23  148 1    
    50   24   25 am   BACKBONE|DICT|INTERRES
    51   24  149 1    
    52   25   26 2    
    53   25   27 1    
    54   27   28 1    
    55   27   29 1    
    56   27  150 1    
    57   28  151 1    
    58   28  152 1    
    59   28  153 1    
    60   29   30 am   BACKBONE|DICT|INTERRES
    61   29  154 1    
    62   30   31 2    
    63   30   32 1    
    64   32   33 1    
    65   32   34 1    
    66   32  155 1    
    67   33  156 1    
    68   33  157 1    
    69   33  158 1    
    70   34   35 am   BACKBONE|DICT|INTERRES
    71   34  159 1    
    72   35   36 2    
    73   35   37 1    
    74   37   38 1    
    75   37   39 1    
    76   37  160 1    
    77   38  161 1    
    78   38  162 1    
    79   38  163 1    
    80   39   40 am   BACKBONE|DICT|INTERRES
    81   39  164 1    
    82   40   41 2    
    83   40   42 1    
    84   42   43 1    
    85   42   44 1    
    86   42  165 1    
    87   43  166 1    
    88   43  167 1    
    89   43  168 1    
    90   44   45 am   BACKBONE|DICT|INTERRES
    91   44  169 1    
    92   45   46 2    
    93   45   47 1    
    94   47   48 1    
    95   47   49 1    
    96   47  170 1    
    97   48  171 1    
    98   48  172 1    
    99   48  173 1    
   100   49   50 am   BACKBONE|DICT|INTERRES
   101   49  174 1    
   102   50   51 2    
   103   50   52 1    
   104   52   53 1    
   105   52   54 1    
   106   52  175 1    
   107   53  176 1    
   108   53  177 1    
   109   53  178 1    
   110   54   55 am   BACKBONE|DICT|INTERRES
   111   54  179 1    
   112   55   56 2    
   113   55   57 1    
   114   57   58 1    
   115   57   59 1    
   116   57  180 1    
   117   58  181 1    
   118   58  182 1    
   119   58  183 1    
   120   59   60 am   BACKBONE|DICT|INTERRES
   121   59  184 1    
   122   60   61 2    
   123   60   62 1    
   124   62   63 1    
   125   62   64 1    
   126   62  185 1    
   127   63  186 1    
   128   63  187 1    
   129   63  188 1    
   130   64   65 am   BACKBONE|DICT|INTERRES
   131   64  189 1    
   132   65   66 2    
   133   67   68 2    
   134   67   69 am   BACKBONE|DICT|INTERRES
   135   69   70 1    
   136   69  190 1    
   137   70   71 1    
   138   70   72 1    
   139   70  191 1    
   140   71  192 1    
   141   71  193 1    
   142   71  194 1    
   143   72   73 2    
   144   72   74 am   BACKBONE|DICT|INTERRES
   145   74   75 1    
   146   74  195 1    
   147   75   76 1    
   148   75   77 1    
   149   75  196 1    
   150   76  197 1    
   151   76  198 1    
   152   76  199 1    
   153   77   78 2    
   154   77   79 am   BACKBONE|DICT|INTERRES
   155   79   80 1    
   156   79  200 1    
   157   80   81 1    
   158   80   82 1    
   159   80  201 1    
   160   81  202 1    
   161   81  203 1    
   162   81  204 1    
   163   82   83 2    
   164   82   84 am   BACKBONE|DICT|INTERRES
   165   84   85 1    
   166   84  205 1    
   167   85   86 1    
   168   85   87 1    
   169   85  206 1    
   170   86  207 1    
   171   86  208 1    
   172   86  209 1    
   173   87   88 2    
   174   87   89 am   BACKBONE|DICT|INTERRES
   175   89   90 1    
   176   89  210 1    
   177   90   91 1    
   178   90   92 1    
   179   90  211 1    
   180   91  212 1    
   181   91  213 1    
   182   91  214 1    
   183   92   93 2    
   184   92   94 am   BACKBONE|DICT|INTERRES
   185   94   95 1    
   186   94  215 1    
   187   95   96 1    
   188   95   97 1    
   189   95  216 1    
   190   96  217 1    
   191   96  218 1    
   192   96  219 1    
   193   97   98 2    
   194   97   99 am   BACKBONE|DICT|INTERRES
   195   99  100 1    
   196   99  220 1    
   197  100  101 1    
   198  100  102 1    
   199  100  221 1    
   200  101  222 1    
   201  101  223 1    
   202  101  224 1    
   203  102  103 2    
   204  102  104 am   BACKBONE|DICT|INTERRES
   205  104  105 1    
   206  104  225 1    
   207  105  106 1    
   208  105  107 1    
   209  105  226 1    
   210  106  227 1    
   211  106  228 1    
   212  106  229 1    
   213  107  108 2    
   214  107  109 am   BACKBONE|DICT|INTERRES
   215  109  110 1    
   216  109  230 1    
   217  110  111 1    
   218  110  112 1    
   219  110  231 1    
   220  111  232 1    
   221  111  233 1    
   222  111  234 1    
   223  112  113 2    
   224  112  114 am   BACKBONE|DICT|INTERRES
   225  114  115 1    
   226  114  235 1    
   227  115  116 1    
   228  115  117 1    
   229  115  236 1    
   230  116  237 1    
   231  116  238 1    
   232  116  239 1    
   233  117  118 2    
   234  117  119 am   BACKBONE|DICT|INTERRES
   235  119  120 1    
   236  119  240 1    
   237  120  121 1    
   238  120  124 1    
   239  120  241 1    
   240  121  122 am   BACKBONE|DICT|INTERRES
   241  121  123 2    
   242  122  242 1    
   243  122  243 1    
   244  124  125 1    
   245  124  244 1    
   246  124  245 1    
   247  125  126 1    
   248  126  246 1    
   249  126  247 1    
@<TRIPOS>SUBSTRUCTURE
     1 UNK         1 GROUP             0       ****    0 ROOT    
