@<TRIPOS>MOLECULE
3R540
247   249    1
SMALL
USER_CHARGES


@<TRIPOS>ATOM
      1 CA          7.4680  -11.5404  -46.1935 C.3       0 UNK        -0.1800 
      2 C           6.0705  -12.1406  -46.2054 C.2       0 UNK         0.5000 
      3 O           5.2108  -11.6991  -45.4450 O.2       0 UNK        -0.5000 
      4 N           5.8325  -13.1280  -47.0793 N.am      1 UNK        -0.5000 
      5 CA          4.5763  -13.8814  -47.2314 C.3       1 UNK         0.1400 
      6 C6          4.7541  -15.0067  -48.2822 C.3       23 UNK        -0.0398 
      7 S7          3.5448  -16.3648  -48.1323 S.3       23 UNK        -0.2404 
      8 C8          2.9643  -16.4829  -49.8536 C.3       23 UNK        -0.0205 
      9 C9          1.9960  -17.6400  -50.0438 C.ar      23 UNK        -0.0193 
     10 C10         0.6333  -17.3998  -50.2433 C.ar      23 UNK        -0.1150 
     11 C11        -0.2570  -18.4630  -50.4203 C.ar      23 UNK        -0.0193 
     12 C12         0.2266  -19.7750  -50.3905 C.ar      23 UNK        -0.1150 
     13 C13         1.5893  -20.0305  -50.2056 C.ar      23 UNK        -0.0193 
     14 C14         2.4691  -18.9556  -50.0426 C.ar      23 UNK        -0.1150 
     15 C15         2.1002  -21.4690  -50.2058 C.3       23 UNK        -0.0205 
     16 S16         3.1822  -21.8841  -48.7909 S.3       23 UNK        -0.2404 
     17 C17         2.1749  -21.3864  -47.3518 C.3       23 UNK        -0.0398 
     18 CA          1.3592  -22.5316  -46.7056 C.3       11 UNK         0.1400 
     19 N           0.8238  -22.1289  -45.4039 N.am      11 UNK        -0.5000 
     20 C           0.1591  -22.9198  -44.5508 C.2       10 UNK         0.5000 
     21 O          -0.0225  -24.1240  -44.7303 O.2       10 UNK        -0.5000 
     22 CA         -0.4516  -22.2358  -43.3132 C.3       10 UNK         0.1400 
     23 CB          0.6082  -22.0235  -42.2224 C.3       10 UNK        -0.1800 
     24 N          -1.0921  -20.9589  -43.6381 N.am      10 UNK        -0.5000 
     25 C          -2.1637  -20.8363  -44.4357 C.2       9 UNK         0.5000 
     26 O          -2.7569  -21.7942  -44.9310 O.2       9 UNK        -0.5000 
     27 CA         -2.6281  -19.4076  -44.7740 C.3       9 UNK         0.1400 
     28 CB         -3.4776  -18.8255  -43.6349 C.3       9 UNK        -0.1800 
     29 N          -1.5195  -18.5017  -45.0768 N.am      9 UNK        -0.5000 
     30 C          -0.6652  -18.6621  -46.0981 C.2       8 UNK         0.5000 
     31 O          -0.7367  -19.5882  -46.9030 O.2       8 UNK        -0.5000 
     32 CA          0.5048  -17.6653  -46.1918 C.3       8 UNK         0.1400 
     33 CB          0.0363  -16.3067  -46.7316 C.3       8 UNK        -0.1800 
     34 N           1.1683  -17.4747  -44.9021 N.am      8 UNK        -0.5000 
     35 C           1.7721  -18.4458  -44.2027 C.2       7 UNK         0.5000 
     36 O           1.8953  -19.6033  -44.5989 O.2       7 UNK        -0.5000 
     37 CA          2.2674  -18.0775  -42.7957 C.3       7 UNK         0.1400 
     38 CB          3.6528  -17.4163  -42.8538 C.3       7 UNK        -0.1800 
     39 N           1.3183  -17.2027  -42.1069 N.am      7 UNK        -0.5000 
     40 C           0.1232  -17.6044  -41.6497 C.2       6 UNK         0.5000 
     41 O          -0.2791  -18.7660  -41.7198 O.2       6 UNK        -0.5000 
     42 CA         -0.7899  -16.5189  -41.0488 C.3       6 UNK         0.1400 
     43 CB         -0.4251  -16.2558  -39.5803 C.3       6 UNK        -0.1800 
     44 N          -0.7352  -15.2610  -41.7957 N.am      6 UNK        -0.5000 
     45 C          -1.1936  -15.1052  -43.0458 C.2       5 UNK         0.5000 
     46 O          -1.7644  -15.9945  -43.6748 O.2       5 UNK        -0.5000 
     47 CA         -0.9346  -13.7459  -43.7248 C.3       5 UNK         0.1400 
     48 CB         -2.1043  -12.7844  -43.4707 C.3       5 UNK        -0.1800 
     49 N           0.3157  -13.1018  -43.3144 N.am      5 UNK        -0.5000 
     50 C           1.5400  -13.6287  -43.4402 C.2       4 UNK         0.5000 
     51 O           1.7516  -14.7532  -43.8968 O.2       4 UNK        -0.5000 
     52 CA          2.7087  -12.7470  -42.9612 C.3       4 UNK         0.1400 
     53 CB          4.0328  -13.5250  -42.8625 C.3       4 UNK        -0.1800 
     54 N           2.9037  -11.5969  -43.8399 N.am      4 UNK        -0.5000 
     55 C           2.1566  -10.4854  -43.8585 C.2       3 UNK         0.5000 
     56 O           1.1922  -10.3001  -43.1141 O.2       3 UNK        -0.5000 
     57 CA          2.5447   -9.4099  -44.8856 C.3       3 UNK         0.1400 
     58 CB          3.7427   -8.5893  -44.3819 C.3       3 UNK        -0.1800 
     59 N           2.8828  -10.0126  -46.1748 N.am      3 UNK        -0.5000 
     60 C           2.0456  -10.1037  -47.2173 C.2       2 UNK         0.5000 
     61 O           0.9040   -9.6412  -47.2196 O.2       2 UNK        -0.5000 
     62 CA          2.5639  -10.8268  -48.4785 C.3       2 UNK         0.1400 
     63 CB          3.1380   -9.8128  -49.4797 C.3       2 UNK        -0.1800 
     64 N           3.5805  -11.8420  -48.1966 N.am      2 UNK        -0.5000 
     65 C           3.3490  -12.9893  -47.5421 C.2       1 UNK         0.5000 
     66 O           2.2317  -13.3283  -47.1554 O.2       1 UNK        -0.5000 
     67 C           0.2415  -23.0434  -47.6360 C.2       11 UNK         0.5000 
     68 O           0.3666  -24.1376  -48.1840 O.2       11 UNK        -0.5000 
     69 N          -0.8459  -22.2700  -47.7636 N.am      12 UNK        -0.5000 
     70 CA         -2.0255  -22.6149  -48.5554 C.3       12 UNK         0.1400 
     71 CB         -3.0073  -21.4362  -48.5637 C.3       12 UNK        -0.1800 
     72 C          -2.7225  -23.8983  -48.0767 C.2       12 UNK         0.5000 
     73 O          -3.1097  -24.7163  -48.9107 O.2       12 UNK        -0.5000 
     74 N          -2.8371  -24.0715  -46.7530 N.am      13 UNK        -0.5000 
     75 CA         -3.3760  -25.2750  -46.1209 C.3       13 UNK         0.1400 
     76 CB         -3.5568  -25.0340  -44.6147 C.3       13 UNK        -0.1800 
     77 C          -2.5063  -26.5187  -46.3798 C.2       13 UNK         0.5000 
     78 O          -3.0474  -27.5731  -46.7132 O.2       13 UNK        -0.5000 
     79 N          -1.1796  -26.3676  -46.2576 N.am      14 UNK        -0.5000 
     80 CA         -0.1947  -27.4179  -46.5259 C.3       14 UNK         0.1400 
     81 CB          1.1868  -26.9638  -46.0303 C.3       14 UNK        -0.1800 
     82 C          -0.1367  -27.8208  -48.0116 C.2       14 UNK         0.5000 
     83 O          -0.0414  -29.0101  -48.3169 O.2       14 UNK        -0.5000 
     84 N          -0.2163  -26.8268  -48.9057 N.am      15 UNK        -0.5000 
     85 CA         -0.2405  -27.0035  -50.3589 C.3       15 UNK         0.1400 
     86 CB          0.0883  -25.6566  -51.0238 C.3       15 UNK        -0.1800 
     87 C          -1.5826  -27.5405  -50.8947 C.2       15 UNK         0.5000 
     88 O          -1.6217  -28.0204  -52.0283 O.2       15 UNK        -0.5000 
     89 N          -2.6507  -27.4220  -50.0909 N.am      16 UNK        -0.5000 
     90 CA         -4.0559  -27.6753  -50.4271 C.3       16 UNK         0.1400 
     91 CB         -4.3020  -29.1691  -50.7230 C.3       16 UNK        -0.1800 
     92 C          -4.5491  -26.7356  -51.5482 C.2       16 UNK         0.5000 
     93 O          -5.2225  -27.1682  -52.4866 O.2       16 UNK        -0.5000 
     94 N          -4.1795  -25.4536  -51.4333 N.am      17 UNK        -0.5000 
     95 CA         -4.4639  -24.3866  -52.3888 C.3       17 UNK         0.1400 
     96 CB         -3.4206  -23.2696  -52.2093 C.3       17 UNK        -0.1800 
     97 C          -5.9116  -23.8777  -52.2485 C.2       17 UNK         0.5000 
     98 O          -6.1397  -22.7576  -51.7887 O.2       17 UNK        -0.5000 
     99 N          -6.8698  -24.7298  -52.6326 N.am      18 UNK        -0.5000 
    100 CA        -8.2983  -24.4106  -52.6877 C.3       18 UNK         0.1400 
    101 CB        -9.0995  -25.7193  -52.7645 C.3       18 UNK        -0.1800 
    102 C         -8.6538  -23.4856  -53.8696 C.2       18 UNK         0.5000 
    103 O         -9.6332  -22.7431  -53.7880 O.2       18 UNK        -0.5000 
    104 N         -7.8537  -23.5483  -54.9424 N.am      19 UNK        -0.5000 
    105 CA        -7.9307  -22.6639  -56.1036 C.3       19 UNK         0.1400 
    106 CB        -7.1893  -23.3300  -57.2739 C.3       19 UNK        -0.1800 
    107 C         -7.3263  -21.2794  -55.7997 C.2       19 UNK         0.5000 
    108 O         -6.5044  -21.1522  -54.8888 O.2       19 UNK        -0.5000 
    109 N         -7.7195  -20.2806  -56.6021 N.am      20 UNK        -0.5000 
    110 CA        -7.3273  -18.8702  -56.5068 C.3       20 UNK         0.1400 
    111 CB        -5.8194  -18.6903  -56.8011 C.3       20 UNK        -0.1800 
    112 C         -7.8069  -18.2359  -55.1824 C.2       20 UNK         0.5000 
    113 O         -8.9870  -18.3710  -54.8508 O.2       20 UNK        -0.5000 
    114 N         -6.9156  -17.5468  -54.4635 N.am      21 UNK        -0.5000 
    115 CA        -7.1796  -16.8893  -53.1885 C.3       21 UNK         0.1400 
    116 CB        -7.7451  -15.4794  -53.4406 C.3       21 UNK        -0.1800 
    117 C         -5.8810  -16.8316  -52.3712 C.2       21 UNK         0.5000 
    118 O         -4.7931  -17.0161  -52.9246 O.2       21 UNK        -0.5000 
    119 N         -6.0212  -16.5608  -51.0719 N.am      22 UNK        -0.5000 
    120 CA        -4.9315  -16.4039  -50.1031 C.3       22 UNK         0.1400 
    121 C         -5.3892  -15.5296  -48.9008 C.2       22 UNK         0.5000 
    122 N         -4.4864  -15.1844  -47.9945 N.am      22 UNK        -0.7600 
    123 O         -6.5559  -15.1589  -48.7776 O.2       22 UNK        -0.5000 
    124 C124       -4.3373  -17.7745  -49.6730 C.3       23 UNK        -0.0398 
    125 S125       -2.5909  -17.6629  -49.1577 S.3       23 UNK        -0.2404 
    126 C126       -1.7345  -18.1948  -50.6720 C.3       23 UNK        -0.0205 
    127 H127        7.9188  -11.6644  -45.2089 H         1 UNK         0.0600 
    128 H128        7.4191  -10.4743  -46.4152 H         1 UNK         0.0600 
    129 H129        8.1196  -12.0126  -46.9291 H         1 UNK         0.0600 
    130 H130        6.5875  -13.4243  -47.6815 H         1 UNK         0.3000 
    131 H131        4.3848  -14.3496  -46.2635 H         1 UNK         0.0600 
    132 H132        4.7443  -14.5945  -49.2929 H         1 UNK         0.0800 
    133 H133        5.7353  -15.4690  -48.1651 H         1 UNK         0.0800 
    134 H134        2.4959  -15.5394  -50.1387 H         1 UNK         0.0800 
    135 H135        3.8193  -16.6201  -50.5172 H         1 UNK         0.0800 
    136 H136        0.2609  -16.3852  -50.2600 H         1 UNK         0.1150 
    137 H137       -0.4596  -20.5993  -50.5231 H         1 UNK         0.1150 
    138 H138        3.5243  -19.1426  -49.9010 H         1 UNK         0.1150 
    139 H139        1.2675  -22.1731  -50.2280 H         1 UNK         0.0800 
    140 H140        2.6585  -21.6358  -51.1276 H         1 UNK         0.0800 
    141 H141        1.5354  -20.5437  -47.6087 H         1 UNK         0.0800 
    142 H142        2.8802  -20.9952  -46.6181 H         1 UNK         0.0800 
    143 H143        2.0381  -23.3665  -46.5204 H         1 UNK         0.0600 
    144 H144        0.9651  -21.1548  -45.1482 H         1 UNK         0.3000 
    145 H145       -1.2196  -22.9008  -42.9128 H         1 UNK         0.0600 
    146 H146        0.1650  -21.6030  -41.3195 H         1 UNK         0.0600 
    147 H147        1.0774  -22.9683  -41.9456 H         1 UNK         0.0600 
    148 H148        1.3982  -21.3486  -42.5517 H         1 UNK         0.0600 
    149 H149       -0.6846  -20.1245  -43.2300 H         1 UNK         0.3000 
    150 H150       -3.2545  -19.4669  -45.6663 H         1 UNK         0.0600 
    151 H151       -4.3166  -19.4811  -43.3984 H         1 UNK         0.0600 
    152 H152       -3.8907  -17.8548  -43.9094 H         1 UNK         0.0600 
    153 H153       -2.8941  -18.6947  -42.7233 H         1 UNK         0.0600 
    154 H154       -1.4259  -17.6837  -44.4809 H         1 UNK         0.3000 
    155 H155        1.2415  -18.0730  -46.8870 H         1 UNK         0.0600 
    156 H156       -0.7836  -15.8947  -46.1458 H         1 UNK         0.0600 
    157 H157        0.8481  -15.5803  -46.7310 H         1 UNK         0.0600 
    158 H158       -0.3133  -16.3984  -47.7584 H         1 UNK         0.0600 
    159 H159        1.1658  -16.5346  -44.5181 H         1 UNK         0.3000 
    160 H160        2.3600  -19.0001  -42.2187 H         1 UNK         0.0600 
    161 H161        3.6515  -16.5204  -43.4742 H         1 UNK         0.0600 
    162 H162        4.3884  -18.1009  -43.2776 H         1 UNK         0.0600 
    163 H163        4.0020  -17.1383  -41.8594 H         1 UNK         0.0600 
    164 H164        1.5428  -16.2183  -42.0897 H         1 UNK         0.3000 
    165 H165       -1.8161  -16.8910  -41.0838 H         1 UNK         0.0600 
    166 H166       -1.1145  -15.5451  -39.1242 H         1 UNK         0.0600 
    167 H167       -0.4745  -17.1756  -38.9959 H         1 UNK         0.0600 
    168 H168        0.5850  -15.8566  -39.4796 H         1 UNK         0.0600 
    169 H169       -0.2840  -14.4777  -41.3470 H         1 UNK         0.3000 
    170 H170       -0.8683  -13.9233  -44.7996 H         1 UNK         0.0600 
    171 H171       -3.0492  -13.2249  -43.7922 H         1 UNK         0.0600 
    172 H172       -2.1994  -12.5372  -42.4126 H         1 UNK         0.0600 
    173 H173       -1.9763  -11.8533  -44.0231 H         1 UNK         0.0600 
    174 H174        0.2512  -12.1456  -42.9825 H         1 UNK         0.3000 
    175 H175        2.4627  -12.3866  -41.9602 H         1 UNK         0.0600 
    176 H176        4.3393  -13.9262  -43.8289 H         1 UNK         0.0600 
    177 H177        4.8380  -12.8873  -42.4973 H         1 UNK         0.0600 
    178 H178        3.9429  -14.3624  -42.1699 H         1 UNK         0.0600 
    179 H179        3.6926  -11.6607  -44.4798 H         1 UNK         0.3000 
    180 H180        1.6973   -8.7299  -44.9956 H         1 UNK         0.0600 
    181 H181        4.6316   -9.2074  -44.2493 H         1 UNK         0.0600 
    182 H182        3.5200   -8.1233  -43.4213 H         1 UNK         0.0600 
    183 H183        3.9926   -7.7908  -45.0805 H         1 UNK         0.0600 
    184 H184        3.7845  -10.4717  -46.2307 H         1 UNK         0.3000 
    185 H185        1.7109  -11.3229  -48.9466 H         1 UNK         0.0600 
    186 H186        2.3970   -9.0543  -49.7359 H         1 UNK         0.0600 
    187 H187        4.0094   -9.2966  -49.0748 H         1 UNK         0.0600 
    188 H188        3.4363  -10.2998  -50.4083 H         1 UNK         0.0600 
    189 H189        4.5279  -11.6274  -48.4716 H         1 UNK         0.3000 
    190 H190       -0.8552  -21.3562  -47.3121 H         1 UNK         0.3000 
    191 H191       -1.6886  -22.7860  -49.5794 H         1 UNK         0.0600 
    192 H192       -3.3262  -21.1685  -47.5565 H         1 UNK         0.0600 
    193 H193       -3.9028  -21.6670  -49.1416 H         1 UNK         0.0600 
    194 H194       -2.5481  -20.5573  -49.0109 H         1 UNK         0.0600 
    195 H195       -2.5461  -23.3204  -46.1334 H         1 UNK         0.3000 
    196 H196       -4.3610  -25.4639  -46.5526 H         1 UNK         0.0600 
    197 H197       -3.9742  -25.9147  -44.1252 H         1 UNK         0.0600 
    198 H198       -4.2388  -24.2042  -44.4286 H         1 UNK         0.0600 
    199 H199       -2.6103  -24.8033  -44.1257 H         1 UNK         0.0600 
    200 H200       -0.8144  -25.4730  -45.9432 H         1 UNK         0.3000 
    201 H201       -0.4847  -28.3021  -45.9544 H         1 UNK         0.0600 
    202 H202        1.1725  -26.7584  -44.9598 H         1 UNK         0.0600 
    203 H203        1.5199  -26.0584  -46.5387 H         1 UNK         0.0600 
    204 H204        1.9382  -27.7349  -46.2042 H         1 UNK         0.0600 
    205 H205       -0.2153  -25.8662  -48.5684 H         1 UNK         0.3000 
    206 H206        0.5358  -27.7205  -50.6334 H         1 UNK         0.0600 
    207 H207        1.0646  -25.2881  -50.7083 H         1 UNK         0.0600 
    208 H208        0.1111  -25.7486  -52.1103 H         1 UNK         0.0600 
    209 H209       -0.6528  -24.8962  -50.7736 H         1 UNK         0.0600 
    210 H210       -2.5003  -26.9752  -49.1957 H         1 UNK         0.3000 
    211 H211       -4.6314  -27.4170  -49.5369 H         1 UNK         0.0600 
    212 H212       -3.8077  -29.4915  -51.6396 H         1 UNK         0.0600 
    213 H213       -5.3673  -29.3711  -50.8399 H         1 UNK         0.0600 
    214 H214       -3.9403  -29.7958  -49.9078 H         1 UNK         0.0600 
    215 H215       -3.6886  -25.1783  -50.5847 H         1 UNK         0.3000 
    216 H216       -4.3499  -24.7820  -53.4004 H         1 UNK         0.0600 
    217 H217       -3.4810  -22.8209  -51.2189 H         1 UNK         0.0600 
    218 H218       -3.5730  -22.4735  -52.9393 H         1 UNK         0.0600 
    219 H219       -2.4075  -23.6481  -52.3458 H         1 UNK         0.0600 
    220 H220       -6.5897  -25.6626  -52.9167 H         1 UNK         0.3000 
    221 H221       -8.5751  -23.8940  -51.7662 H         1 UNK         0.0600 
    222 H222       -8.9010  -26.3542  -51.9007 H         1 UNK         0.0600 
    223 H223       -8.8561  -26.2884  -53.6625 H         1 UNK         0.0600 
    224 H224      -10.1718  -25.5203  -52.7817 H         1 UNK         0.0600 
    225 H225       -7.0552  -24.1627  -54.8995 H         1 UNK         0.3000 
    226 H226       -8.9797  -22.5355  -56.3794 H         1 UNK         0.0600 
    227 H227       -7.6195  -24.3034  -57.5109 H         1 UNK         0.0600 
    228 H228       -7.2515  -22.7212  -58.1767 H         1 UNK         0.0600 
    229 H229       -6.1317  -23.4757  -57.0497 H         1 UNK         0.0600 
    230 H230       -8.4111  -20.4838  -57.3102 H         1 UNK         0.3000 
    231 H231       -7.8728  -18.3520  -57.2967 H         1 UNK         0.0600 
    232 H232       -5.1901  -19.1348  -56.0293 H         1 UNK         0.0600 
    233 H233       -5.5563  -17.6346  -56.8768 H         1 UNK         0.0600 
    234 H234       -5.5510  -19.1528  -57.7509 H         1 UNK         0.0600 
    235 H235       -5.9439  -17.5284  -54.7474 H         1 UNK         0.3000 
    236 H236       -7.9044  -17.4771  -52.6208 H         1 UNK         0.0600 
    237 H237       -7.9541  -14.9637  -52.5026 H         1 UNK         0.0600 
    238 H238       -7.0452  -14.8630  -54.0061 H         1 UNK         0.0600 
    239 H239       -8.6800  -15.5220  -53.9995 H         1 UNK         0.0600 
    240 H240       -6.9382  -16.3632  -50.6919 H         1 UNK         0.3000 
    241 H241       -4.1555  -15.8252  -50.6084 H         1 UNK         0.0600 
    242 H242       -4.7668  -14.6183  -47.2094 H         1 UNK         0.3800 
    243 H243       -3.5338  -15.5091  -48.0657 H         1 UNK         0.3800 
    244 H244       -4.4036  -18.4959  -50.4880 H         1 UNK         0.0800 
    245 H245       -4.9169  -18.2120  -48.8584 H         1 UNK         0.0800 
    246 H246       -2.2136  -19.0915  -51.0676 H         1 UNK         0.0800 
    247 H247       -1.8449  -17.4249  -51.4372 H         1 UNK         0.0800 
@<TRIPOS>BOND
     1    1    2 1    
     2    1  127 1    
     3    1  128 1    
     4    1  129 1    
     5    2    3 2    
     6    2    4 am   BACKBONE|DICT|INTERRES
     7    4    5 1    
     8    4  130 1    
     9    5    6 1    
    10    5   65 1    
    11    5  131 1    
    12    6    7 1    
    13    6  132 1    
    14    6  133 1    
    15    7    8 1    
    16    8    9 1    
    17    8  134 1    
    18    8  135 1    
    19    9   10 ar   
    20    9   14 ar   
    21   10   11 ar   
    22   10  136 1    
    23   11   12 ar   
    24   11  126 1    
    25   12   13 ar   
    26   12  137 1    
    27   13   14 ar   
    28   13   15 1    
    29   14  138 1    
    30   15   16 1    
    31   15  139 1    
    32   15  140 1    
    33   16   17 1    
    34   17   18 1    
    35   17  141 1    
    36   17  142 1    
    37   18   19 1    
    38   18   67 1    
    39   18  143 1    
    40   19   20 am   BACKBONE|DICT|INTERRES
    41   19  144 1    
    42   20   21 2    
    43   20   22 1    
    44   22   23 1    
    45   22   24 1    
    46   22  145 1    
    47   23  146 1    
    48   23  147 1    
    49   23  148 1    
    50   24   25 am   BACKBONE|DICT|INTERRES
    51   24  149 1    
    52   25   26 2    
    53   25   27 1    
    54   27   28 1    
    55   27   29 1    
    56   27  150 1    
    57   28  151 1    
    58   28  152 1    
    59   28  153 1    
    60   29   30 am   BACKBONE|DICT|INTERRES
    61   29  154 1    
    62   30   31 2    
    63   30   32 1    
    64   32   33 1    
    65   32   34 1    
    66   32  155 1    
    67   33  156 1    
    68   33  157 1    
    69   33  158 1    
    70   34   35 am   BACKBONE|DICT|INTERRES
    71   34  159 1    
    72   35   36 2    
    73   35   37 1    
    74   37   38 1    
    75   37   39 1    
    76   37  160 1    
    77   38  161 1    
    78   38  162 1    
    79   38  163 1    
    80   39   40 am   BACKBONE|DICT|INTERRES
    81   39  164 1    
    82   40   41 2    
    83   40   42 1    
    84   42   43 1    
    85   42   44 1    
    86   42  165 1    
    87   43  166 1    
    88   43  167 1    
    89   43  168 1    
    90   44   45 am   BACKBONE|DICT|INTERRES
    91   44  169 1    
    92   45   46 2    
    93   45   47 1    
    94   47   48 1    
    95   47   49 1    
    96   47  170 1    
    97   48  171 1    
    98   48  172 1    
    99   48  173 1    
   100   49   50 am   BACKBONE|DICT|INTERRES
   101   49  174 1    
   102   50   51 2    
   103   50   52 1    
   104   52   53 1    
   105   52   54 1    
   106   52  175 1    
   107   53  176 1    
   108   53  177 1    
   109   53  178 1    
   110   54   55 am   BACKBONE|DICT|INTERRES
   111   54  179 1    
   112   55   56 2    
   113   55   57 1    
   114   57   58 1    
   115   57   59 1    
   116   57  180 1    
   117   58  181 1    
   118   58  182 1    
   119   58  183 1    
   120   59   60 am   BACKBONE|DICT|INTERRES
   121   59  184 1    
   122   60   61 2    
   123   60   62 1    
   124   62   63 1    
   125   62   64 1    
   126   62  185 1    
   127   63  186 1    
   128   63  187 1    
   129   63  188 1    
   130   64   65 am   BACKBONE|DICT|INTERRES
   131   64  189 1    
   132   65   66 2    
   133   67   68 2    
   134   67   69 am   BACKBONE|DICT|INTERRES
   135   69   70 1    
   136   69  190 1    
   137   70   71 1    
   138   70   72 1    
   139   70  191 1    
   140   71  192 1    
   141   71  193 1    
   142   71  194 1    
   143   72   73 2    
   144   72   74 am   BACKBONE|DICT|INTERRES
   145   74   75 1    
   146   74  195 1    
   147   75   76 1    
   148   75   77 1    
   149   75  196 1    
   150   76  197 1    
   151   76  198 1    
   152   76  199 1    
   153   77   78 2    
   154   77   79 am   BACKBONE|DICT|INTERRES
   155   79   80 1    
   156   79  200 1    
   157   80   81 1    
   158   80   82 1    
   159   80  201 1    
   160   81  202 1    
   161   81  203 1    
   162   81  204 1    
   163   82   83 2    
   164   82   84 am   BACKBONE|DICT|INTERRES
   165   84   85 1    
   166   84  205 1    
   167   85   86 1    
   168   85   87 1    
   169   85  206 1    
   170   86  207 1    
   171   86  208 1    
   172   86  209 1    
   173   87   88 2    
   174   87   89 am   BACKBONE|DICT|INTERRES
   175   89   90 1    
   176   89  210 1    
   177   90   91 1    
   178   90   92 1    
   179   90  211 1    
   180   91  212 1    
   181   91  213 1    
   182   91  214 1    
   183   92   93 2    
   184   92   94 am   BACKBONE|DICT|INTERRES
   185   94   95 1    
   186   94  215 1    
   187   95   96 1    
   188   95   97 1    
   189   95  216 1    
   190   96  217 1    
   191   96  218 1    
   192   96  219 1    
   193   97   98 2    
   194   97   99 am   BACKBONE|DICT|INTERRES
   195   99  100 1    
   196   99  220 1    
   197  100  101 1    
   198  100  102 1    
   199  100  221 1    
   200  101  222 1    
   201  101  223 1    
   202  101  224 1    
   203  102  103 2    
   204  102  104 am   BACKBONE|DICT|INTERRES
   205  104  105 1    
   206  104  225 1    
   207  105  106 1    
   208  105  107 1    
   209  105  226 1    
   210  106  227 1    
   211  106  228 1    
   212  106  229 1    
   213  107  108 2    
   214  107  109 am   BACKBONE|DICT|INTERRES
   215  109  110 1    
   216  109  230 1    
   217  110  111 1    
   218  110  112 1    
   219  110  231 1    
   220  111  232 1    
   221  111  233 1    
   222  111  234 1    
   223  112  113 2    
   224  112  114 am   BACKBONE|DICT|INTERRES
   225  114  115 1    
   226  114  235 1    
   227  115  116 1    
   228  115  117 1    
   229  115  236 1    
   230  116  237 1    
   231  116  238 1    
   232  116  239 1    
   233  117  118 2    
   234  117  119 am   BACKBONE|DICT|INTERRES
   235  119  120 1    
   236  119  240 1    
   237  120  121 1    
   238  120  124 1    
   239  120  241 1    
   240  121  122 am   BACKBONE|DICT|INTERRES
   241  121  123 2    
   242  122  242 1    
   243  122  243 1    
   244  124  125 1    
   245  124  244 1    
   246  124  245 1    
   247  125  126 1    
   248  126  246 1    
   249  126  247 1    
@<TRIPOS>SUBSTRUCTURE
     1 UNK         1 GROUP             0       ****    0 ROOT    
