@<TRIPOS>MOLECULE
3R540
247   249    1
SMALL
USER_CHARGES


@<TRIPOS>ATOM
      1 CA          6.2399  -13.9646  -45.2099 C.3       0 UNK        -0.1800 
      2 C           5.2787  -12.9225  -45.7600 C.2       0 UNK         0.5000 
      3 O           5.7029  -11.9730  -46.4192 O.2       0 UNK        -0.5000 
      4 N           3.9865  -13.0892  -45.4579 N.am      1 UNK        -0.5000 
      5 CA          2.8418  -12.2606  -45.8535 C.3       1 UNK         0.1400 
      6 C6          2.6511  -12.0786  -47.3841 C.3       23 UNK        -0.0398 
      7 S7          2.5583  -13.6510  -48.3040 S.3       23 UNK        -0.2404 
      8 C8          0.8682  -14.1965  -47.8943 C.3       23 UNK        -0.0205 
      9 C9          0.3541  -15.3241  -48.7843 C.ar      23 UNK        -0.0193 
     10 C10        -0.9879  -15.3209  -49.1819 C.ar      23 UNK        -0.1150 
     11 C11        -1.5037  -16.3662  -49.9512 C.ar      23 UNK        -0.0193 
     12 C12        -0.6573  -17.3926  -50.3710 C.ar      23 UNK        -0.1150 
     13 C13         0.6748  -17.4304  -49.9567 C.ar      23 UNK        -0.0193 
     14 C14         1.1754  -16.3958  -49.1607 C.ar      23 UNK        -0.1150 
     15 C15         1.5508  -18.6131  -50.3440 C.3       23 UNK        -0.0205 
     16 S16         1.5295  -19.9269  -49.0792 S.3       23 UNK        -0.2404 
     17 C17        -0.2500  -20.3240  -48.9877 C.3       23 UNK        -0.0398 
     18 CA         -0.5398  -21.6007  -48.1686 C.3       11 UNK         0.1400 
     19 N          -0.2699  -21.4241  -46.7362 N.am      11 UNK        -0.5000 
     20 C          -0.3001  -22.4119  -45.8298 C.2       10 UNK         0.5000 
     21 O          -0.5508  -23.5836  -46.1076 O.2       10 UNK        -0.5000 
     22 CA         -0.0583  -22.0303  -44.3585 C.3       10 UNK         0.1400 
     23 CB          1.4262  -21.7346  -44.0968 C.3       10 UNK        -0.1800 
     24 N          -0.8747  -20.8968  -43.9288 N.am      10 UNK        -0.5000 
     25 C          -2.2151  -20.8890  -43.8983 C.2       9 UNK         0.5000 
     26 O          -2.9153  -21.8567  -44.1929 O.2       9 UNK        -0.5000 
     27 CA         -2.8903  -19.5544  -43.5358 C.3       9 UNK         0.1400 
     28 CB         -2.9068  -19.3327  -42.0158 C.3       9 UNK        -0.1800 
     29 N          -2.2551  -18.4155  -44.1984 N.am      9 UNK        -0.5000 
     30 C          -2.2018  -18.2544  -45.5284 C.2       8 UNK         0.5000 
     31 O          -2.7086  -19.0352  -46.3316 O.2       8 UNK        -0.5000 
     32 CA         -1.3946  -17.0527  -46.0412 C.3       8 UNK         0.1400 
     33 CB         -2.2152  -15.7583  -45.9340 C.3       8 UNK        -0.1800 
     34 N          -0.1287  -16.9008  -45.3229 N.am      8 UNK        -0.5000 
     35 C           0.8823  -17.7798  -45.4073 C.2       7 UNK         0.5000 
     36 O           0.8444  -18.7962  -46.0967 O.2       7 UNK        -0.5000 
     37 CA          2.1170  -17.5188  -44.5240 C.3       7 UNK         0.1400 
     38 CB          3.0662  -16.5278  -45.2135 C.3       7 UNK        -0.1800 
     39 N           1.7653  -17.0159  -43.1954 N.am      7 UNK        -0.5000 
     40 C           0.9788  -17.6628  -42.3200 C.2       6 UNK         0.5000 
     41 O           0.5621  -18.8065  -42.5016 O.2       6 UNK        -0.5000 
     42 CA          0.5355  -16.9021  -41.0534 C.3       6 UNK         0.1400 
     43 CB          1.3371  -17.3822  -39.8345 C.3       6 UNK        -0.1800 
     44 N           0.6527  -15.4459  -41.1528 N.am      6 UNK        -0.5000 
     45 C           0.0522  -14.6595  -42.0589 C.2       5 UNK         0.5000 
     46 O          -0.7412  -15.0743  -42.9044 O.2       5 UNK        -0.5000 
     47 CA          0.4611  -13.1724  -42.0601 C.3       5 UNK         0.1400 
     48 CB         -0.5930  -12.3236  -41.3349 C.3       5 UNK        -0.1800 
     49 N           1.7782  -12.9230  -41.4594 N.am      5 UNK        -0.5000 
     50 C           2.9371  -13.3934  -41.9381 C.2       4 UNK         0.5000 
     51 O           3.0271  -14.0890  -42.9529 O.2       4 UNK        -0.5000 
     52 CA          4.2021  -13.0498  -41.1464 C.3       4 UNK         0.1400 
     53 CB          5.0251  -14.3170  -40.8422 C.3       4 UNK        -0.1800 
     54 N           4.9878  -12.0988  -41.9232 N.am      4 UNK        -0.5000 
     55 C           5.9609  -11.3206  -41.4329 C.2       3 UNK         0.5000 
     56 O           6.3039  -11.3189  -40.2500 O.2       3 UNK        -0.5000 
     57 CA          6.6763  -10.3837  -42.4242 C.3       3 UNK         0.1400 
     58 CB          7.9438  -11.0538  -42.9756 C.3       3 UNK        -0.1800 
     59 N           5.8232   -9.9814  -43.5433 N.am      3 UNK        -0.5000 
     60 C           4.8784   -9.0322  -43.4722 C.2       2 UNK         0.5000 
     61 O           4.6342   -8.3807  -42.4564 O.2       2 UNK        -0.5000 
     62 CA          4.0600   -8.7848  -44.7516 C.3       2 UNK         0.1400 
     63 CB          4.7974   -7.8191  -45.6915 C.3       2 UNK        -0.1800 
     64 N           3.7924  -10.0364  -45.4579 N.am      2 UNK        -0.5000 
     65 C           2.8489  -10.9166  -45.1038 C.2       1 UNK         0.5000 
     66 O           2.0359  -10.7205  -44.2008 O.2       1 UNK        -0.5000 
     67 C          -1.9763  -22.0928  -48.4403 C.2       11 UNK         0.5000 
     68 O          -2.1597  -22.9654  -49.2900 O.2       11 UNK        -0.5000 
     69 N          -2.9623  -21.5554  -47.7085 N.am      12 UNK        -0.5000 
     70 CA         -4.3592  -21.9788  -47.7832 C.3       12 UNK         0.1400 
     71 CB         -5.2483  -20.9892  -47.0173 C.3       12 UNK        -0.1800 
     72 C          -4.5679  -23.4173  -47.2774 C.2       12 UNK         0.5000 
     73 O          -5.2545  -24.1920  -47.9432 O.2       12 UNK        -0.5000 
     74 N          -3.9493  -23.7595  -46.1371 N.am      13 UNK        -0.5000 
     75 CA         -3.9939  -25.0933  -45.5313 C.3       13 UNK         0.1400 
     76 CB         -3.3930  -25.0413  -44.1186 C.3       13 UNK        -0.1800 
     77 C          -3.2855  -26.1644  -46.3798 C.2       13 UNK         0.5000 
     78 O          -3.7944  -27.2795  -46.4987 O.2       13 UNK        -0.5000 
     79 N          -2.1419  -25.8008  -46.9763 N.am      14 UNK        -0.5000 
     80 CA         -1.3860  -26.6362  -47.9122 C.3       14 UNK         0.1400 
     81 CB          0.0220  -26.0447  -48.0842 C.3       14 UNK        -0.1800 
     82 C          -2.0674  -26.7816  -49.2871 C.2       14 UNK         0.5000 
     83 O          -1.7131  -27.6935  -50.0350 O.2       14 UNK        -0.5000 
     84 N          -3.0102  -25.8773  -49.5922 N.am      15 UNK        -0.5000 
     85 CA         -3.7222  -25.7130  -50.8591 C.3       15 UNK         0.1400 
     86 CB         -4.6399  -26.9195  -51.1414 C.3       15 UNK        -0.1800 
     87 C          -2.7459  -25.3977  -52.0070 C.2       15 UNK         0.5000 
     88 O          -2.7001  -26.1166  -53.0070 O.2       15 UNK        -0.5000 
     89 N          -1.9638  -24.3257  -51.8204 N.am      16 UNK        -0.5000 
     90 CA         -0.9256  -23.8395  -52.7332 C.3       16 UNK         0.1400 
     91 CB         -0.3000  -22.5678  -52.1398 C.3       16 UNK        -0.1800 
     92 C          -1.4082  -23.5762  -54.1741 C.2       16 UNK         0.5000 
     93 O          -0.6444  -23.7983  -55.1145 O.2       16 UNK        -0.5000 
     94 N          -2.6649  -23.1397  -54.3201 N.am      17 UNK        -0.5000 
     95 CA         -3.3383  -22.9101  -55.5979 C.3       17 UNK         0.1400 
     96 CB         -3.9115  -21.4867  -55.5982 C.3       17 UNK        -0.1800 
     97 C          -4.4289  -23.9673  -55.8688 C.2       17 UNK         0.5000 
     98 O          -5.3570  -23.6988  -56.6347 O.2       17 UNK        -0.5000 
     99 N          -4.3103  -25.1486  -55.2422 N.am      18 UNK        -0.5000 
    100 CA        -5.1986  -26.3081  -55.3568 C.3       18 UNK         0.1400 
    101 CB        -5.0463  -26.9660  -56.7468 C.3       18 UNK        -0.1800 
    102 C         -6.6498  -25.9482  -54.9809 C.2       18 UNK         0.5000 
    103 O         -6.9002  -25.5975  -53.8272 O.2       18 UNK        -0.5000 
    104 N         -7.5705  -25.9994  -55.9530 N.am      19 UNK        -0.5000 
    105 CA        -8.9890  -25.6640  -55.8018 C.3       19 UNK         0.1400 
    106 CB        -9.7195  -25.9944  -57.1123 C.3       19 UNK        -0.1800 
    107 C         -9.2558  -24.2011  -55.3900 C.2       19 UNK         0.5000 
    108 O        -10.2992  -23.9271  -54.7960 O.2       19 UNK        -0.5000 
    109 N         -8.3115  -23.2960  -55.6847 N.am      20 UNK        -0.5000 
    110 CA        -8.3503  -21.8922  -55.2695 C.3       20 UNK         0.1400 
    111 CB        -7.6659  -21.0341  -56.3452 C.3       20 UNK        -0.1800 
    112 C         -7.7322  -21.6568  -53.8737 C.2       20 UNK         0.5000 
    113 O         -7.6833  -20.5058  -53.4347 O.2       20 UNK        -0.5000 
    114 N         -7.2762  -22.7287  -53.2028 N.am      21 UNK        -0.5000 
    115 CA        -6.6815  -22.7734  -51.8643 C.3       21 UNK         0.1400 
    116 CB        -7.7433  -22.4847  -50.7813 C.3       21 UNK        -0.1800 
    117 C         -5.4335  -21.8793  -51.7599 C.2       21 UNK         0.5000 
    118 O         -4.3530  -22.3135  -52.1588 O.2       21 UNK        -0.5000 
    119 N         -5.6116  -20.6548  -51.2485 N.am      22 UNK        -0.5000 
    120 CA        -4.5936  -19.5952  -51.2179 C.3       22 UNK         0.1400 
    121 C         -4.1676  -19.1106  -52.6337 C.2       22 UNK         0.5000 
    122 N         -5.0794  -19.0594  -53.5982 N.am      22 UNK        -0.7600 
    123 O         -3.0067  -18.7842  -52.8590 O.2       22 UNK        -0.5000 
    124 C124       -5.0619  -18.3929  -50.3465 C.3       23 UNK        -0.0398 
    125 S125       -3.7519  -17.7520  -49.2590 S.3       23 UNK        -0.2404 
    126 C126       -2.9857  -16.4462  -50.2721 C.3       23 UNK        -0.0205 
    127 H127        6.1761  -14.8799  -45.7981 H         1 UNK         0.0600 
    128 H128        6.0046  -14.2031  -44.1725 H         1 UNK         0.0600 
    129 H129        7.2676  -13.6047  -45.2529 H         1 UNK         0.0600 
    130 H130        3.7385  -13.8332  -44.8137 H         1 UNK         0.3000 
    131 H131        1.9670  -12.7998  -45.4866 H         1 UNK         0.0600 
    132 H132        1.7467  -11.5035  -47.5895 H         1 UNK         0.0800 
    133 H133        3.4712  -11.5019  -47.8134 H         1 UNK         0.0800 
    134 H134        0.8423  -14.5329  -46.8578 H         1 UNK         0.0800 
    135 H135        0.1981  -13.3383  -47.9623 H         1 UNK         0.0800 
    136 H136       -1.6437  -14.5253  -48.8574 H         1 UNK         0.1150 
    137 H137       -1.0588  -18.1991  -50.9687 H         1 UNK         0.1150 
    138 H138        2.2019  -16.4347  -48.8249 H         1 UNK         0.1150 
    139 H139        1.2267  -19.0277  -51.3000 H         1 UNK         0.0800 
    140 H140        2.5788  -18.2785  -50.4896 H         1 UNK         0.0800 
    141 H141       -0.6161  -20.4278  -50.0103 H         1 UNK         0.0800 
    142 H142       -0.7818  -19.4767  -48.5507 H         1 UNK         0.0800 
    143 H143        0.1286  -22.3871  -48.5256 H         1 UNK         0.0600 
    144 H144       -0.0147  -20.4850  -46.4397 H         1 UNK         0.3000 
    145 H145       -0.3417  -22.8881  -43.7452 H         1 UNK         0.0600 
    146 H146        1.6067  -21.5301  -43.0413 H         1 UNK         0.0600 
    147 H147        1.7750  -20.8740  -44.6671 H         1 UNK         0.0600 
    148 H148        2.0478  -22.5863  -44.3754 H         1 UNK         0.0600 
    149 H149       -0.3761  -20.0635  -43.6298 H         1 UNK         0.3000 
    150 H150       -3.9250  -19.6026  -43.8816 H         1 UNK         0.0600 
    151 H151       -3.4264  -20.1484  -41.5117 H         1 UNK         0.0600 
    152 H152       -3.4243  -18.4089  -41.7569 H         1 UNK         0.0600 
    153 H153       -1.9006  -19.2820  -41.6002 H         1 UNK         0.0600 
    154 H154       -1.7817  -17.7448  -43.6113 H         1 UNK         0.3000 
    155 H155       -1.1672  -17.2335  -47.0931 H         1 UNK         0.0600 
    156 H156       -3.1165  -15.8228  -46.5449 H         1 UNK         0.0600 
    157 H157       -1.6473  -14.8964  -46.2822 H         1 UNK         0.0600 
    158 H158       -2.5270  -15.5588  -44.9084 H         1 UNK         0.0600 
    159 H159       -0.0675  -16.1347  -44.6635 H         1 UNK         0.3000 
    160 H160        2.6433  -18.4664  -44.3932 H         1 UNK         0.0600 
    161 H161        2.5871  -15.5615  -45.3694 H         1 UNK         0.0600 
    162 H162        3.3764  -16.8992  -46.1912 H         1 UNK         0.0600 
    163 H163        3.9686  -16.3663  -44.6235 H         1 UNK         0.0600 
    164 H164        2.0774  -16.0788  -42.9715 H         1 UNK         0.3000 
    165 H165       -0.5178  -17.1369  -40.8881 H         1 UNK         0.0600 
    166 H166        0.9745  -16.9207  -38.9159 H         1 UNK         0.0600 
    167 H167        1.2495  -18.4624  -39.7094 H         1 UNK         0.0600 
    168 H168        2.3978  -17.1481  -39.9338 H         1 UNK         0.0600 
    169 H169        1.2861  -15.0060  -40.5023 H         1 UNK         0.3000 
    170 H170        0.5026  -12.8498  -43.1025 H         1 UNK         0.0600 
    171 H171       -0.6616  -12.5829  -40.2777 H         1 UNK         0.0600 
    172 H172       -0.3602  -11.2610  -41.4076 H         1 UNK         0.0600 
    173 H173       -1.5811  -12.4686  -41.7740 H         1 UNK         0.0600 
    174 H174        1.7879  -12.3464  -40.6302 H         1 UNK         0.3000 
    175 H175        3.9113  -12.5858  -40.2014 H         1 UNK         0.0600 
    176 H176        5.3950  -14.7869  -41.7543 H         1 UNK         0.0600 
    177 H177        5.8851  -14.0922  -40.2116 H         1 UNK         0.0600 
    178 H178        4.4223  -15.0565  -40.3135 H         1 UNK         0.0600 
    179 H179        4.7343  -12.0155  -42.8966 H         1 UNK         0.3000 
    180 H180        6.9797   -9.4894  -41.8756 H         1 UNK         0.0600 
    181 H181        8.4874  -10.3834  -43.6416 H         1 UNK         0.0600 
    182 H182        7.7114  -11.9628  -43.5296 H         1 UNK         0.0600 
    183 H183        8.6227  -11.3282  -42.1671 H         1 UNK         0.0600 
    184 H184        5.9710  -10.4537  -44.4240 H         1 UNK         0.3000 
    185 H185        3.1117   -8.3246  -44.4650 H         1 UNK         0.0600 
    186 H186        4.2003   -7.5995  -46.5767 H         1 UNK         0.0600 
    187 H187        5.0015   -6.8702  -45.1938 H         1 UNK         0.0600 
    188 H188        5.7523   -8.2280  -46.0244 H         1 UNK         0.0600 
    189 H189        4.4666  -10.3238  -46.1589 H         1 UNK         0.3000 
    190 H190       -2.7514  -20.7934  -47.0681 H         1 UNK         0.3000 
    191 H191       -4.6572  -21.9522  -48.8325 H         1 UNK         0.0600 
    192 H192       -5.1644  -19.9846  -47.4319 H         1 UNK         0.0600 
    193 H193       -4.9774  -20.9377  -45.9623 H         1 UNK         0.0600 
    194 H194       -6.2980  -21.2793  -47.0763 H         1 UNK         0.0600 
    195 H195       -3.4292  -23.0511  -45.6255 H         1 UNK         0.3000 
    196 H196       -5.0427  -25.3837  -45.4418 H         1 UNK         0.0600 
    197 H197       -3.9521  -24.3588  -43.4783 H         1 UNK         0.0600 
    198 H198       -2.3544  -24.7088  -44.1356 H         1 UNK         0.0600 
    199 H199       -3.4172  -26.0237  -43.6454 H         1 UNK         0.0600 
    200 H200       -1.7462  -24.8869  -46.7669 H         1 UNK         0.3000 
    201 H201       -1.2891  -27.6354  -47.4829 H         1 UNK         0.0600 
    202 H202        0.5451  -25.9863  -47.1296 H         1 UNK         0.0600 
    203 H203       -0.0156  -25.0405  -48.5087 H         1 UNK         0.0600 
    204 H204        0.6285  -26.6603  -48.7496 H         1 UNK         0.0600 
    205 H205       -3.1907  -25.1563  -48.9062 H         1 UNK         0.3000 
    206 H206       -4.3577  -24.8351  -50.7392 H         1 UNK         0.0600 
    207 H207       -4.0735  -27.8362  -51.3072 H         1 UNK         0.0600 
    208 H208       -5.3255  -27.0932  -50.3121 H         1 UNK         0.0600 
    209 H209       -5.2447  -26.7455  -52.0309 H         1 UNK         0.0600 
    210 H210       -2.0798  -23.7994  -50.9566 H         1 UNK         0.3000 
    211 H211       -0.1546  -24.6105  -52.7831 H         1 UNK         0.0600 
    212 H212       -1.0430  -21.7771  -52.0250 H         1 UNK         0.0600 
    213 H213        0.4941  -22.1831  -52.7810 H         1 UNK         0.0600 
    214 H214        0.1392  -22.7629  -51.1614 H         1 UNK         0.0600 
    215 H215       -3.2191  -22.9587  -53.4843 H         1 UNK         0.3000 
    216 H216       -2.6250  -22.9800  -56.4209 H         1 UNK         0.0600 
    217 H217       -4.2748  -21.2101  -56.5881 H         1 UNK         0.0600 
    218 H218       -3.1555  -20.7539  -55.3154 H         1 UNK         0.0600 
    219 H219       -4.7427  -21.4010  -54.8992 H         1 UNK         0.0600 
    220 H220       -3.5435  -25.2693  -54.5875 H         1 UNK         0.3000 
    221 H221       -4.8626  -27.0311  -54.6123 H         1 UNK         0.0600 
    222 H222       -5.3255  -26.2936  -57.5587 H         1 UNK         0.0600 
    223 H223       -4.0139  -27.2716  -56.9172 H         1 UNK         0.0600 
    224 H224       -5.6608  -27.8635  -56.8278 H         1 UNK         0.0600 
    225 H225       -7.2689  -26.2646  -56.8794 H         1 UNK         0.3000 
    226 H226       -9.3956  -26.3007  -55.0135 H         1 UNK         0.0600 
    227 H227       -9.6155  -27.0490  -57.3679 H         1 UNK         0.0600 
    228 H228      -10.7870  -25.7859  -57.0287 H         1 UNK         0.0600 
    229 H229       -9.3344  -25.4058  -57.9460 H         1 UNK         0.0600 
    230 H230       -7.4669  -23.6014  -56.1566 H         1 UNK         0.3000 
    231 H231       -9.3895  -21.5632  -55.2064 H         1 UNK         0.0600 
    232 H232       -7.6767  -19.9769  -56.0773 H         1 UNK         0.0600 
    233 H233       -8.1763  -21.1288  -57.3037 H         1 UNK         0.0600 
    234 H234       -6.6284  -21.3255  -56.4933 H         1 UNK         0.0600 
    235 H235       -7.3301  -23.6322  -53.6609 H         1 UNK         0.3000 
    236 H236       -6.3386  -23.7982  -51.7167 H         1 UNK         0.0600 
    237 H237       -8.2144  -21.5094  -50.9058 H         1 UNK         0.0600 
    238 H238       -8.5339  -23.2347  -50.8079 H         1 UNK         0.0600 
    239 H239       -7.3033  -22.5182  -49.7834 H         1 UNK         0.0600 
    240 H240       -6.5527  -20.3783  -51.0107 H         1 UNK         0.3000 
    241 H241       -3.7097  -20.0429  -50.7577 H         1 UNK         0.0600 
    242 H242       -4.8084  -18.7392  -54.5132 H         1 UNK         0.3800 
    243 H243       -6.0258  -19.3890  -53.4384 H         1 UNK         0.3800 
    244 H244       -5.4855  -17.5814  -50.9419 H         1 UNK         0.0800 
    245 H245       -5.8669  -18.7022  -49.6785 H         1 UNK         0.0800 
    246 H246       -3.4843  -15.4961  -50.0753 H         1 UNK         0.0800 
    247 H247       -3.1128  -16.6499  -51.3347 H         1 UNK         0.0800 
@<TRIPOS>BOND
     1    1    2 1    
     2    1  127 1    
     3    1  128 1    
     4    1  129 1    
     5    2    3 2    
     6    2    4 am   BACKBONE|DICT|INTERRES
     7    4    5 1    
     8    4  130 1    
     9    5    6 1    
    10    5   65 1    
    11    5  131 1    
    12    6    7 1    
    13    6  132 1    
    14    6  133 1    
    15    7    8 1    
    16    8    9 1    
    17    8  134 1    
    18    8  135 1    
    19    9   10 ar   
    20    9   14 ar   
    21   10   11 ar   
    22   10  136 1    
    23   11   12 ar   
    24   11  126 1    
    25   12   13 ar   
    26   12  137 1    
    27   13   14 ar   
    28   13   15 1    
    29   14  138 1    
    30   15   16 1    
    31   15  139 1    
    32   15  140 1    
    33   16   17 1    
    34   17   18 1    
    35   17  141 1    
    36   17  142 1    
    37   18   19 1    
    38   18   67 1    
    39   18  143 1    
    40   19   20 am   BACKBONE|DICT|INTERRES
    41   19  144 1    
    42   20   21 2    
    43   20   22 1    
    44   22   23 1    
    45   22   24 1    
    46   22  145 1    
    47   23  146 1    
    48   23  147 1    
    49   23  148 1    
    50   24   25 am   BACKBONE|DICT|INTERRES
    51   24  149 1    
    52   25   26 2    
    53   25   27 1    
    54   27   28 1    
    55   27   29 1    
    56   27  150 1    
    57   28  151 1    
    58   28  152 1    
    59   28  153 1    
    60   29   30 am   BACKBONE|DICT|INTERRES
    61   29  154 1    
    62   30   31 2    
    63   30   32 1    
    64   32   33 1    
    65   32   34 1    
    66   32  155 1    
    67   33  156 1    
    68   33  157 1    
    69   33  158 1    
    70   34   35 am   BACKBONE|DICT|INTERRES
    71   34  159 1    
    72   35   36 2    
    73   35   37 1    
    74   37   38 1    
    75   37   39 1    
    76   37  160 1    
    77   38  161 1    
    78   38  162 1    
    79   38  163 1    
    80   39   40 am   BACKBONE|DICT|INTERRES
    81   39  164 1    
    82   40   41 2    
    83   40   42 1    
    84   42   43 1    
    85   42   44 1    
    86   42  165 1    
    87   43  166 1    
    88   43  167 1    
    89   43  168 1    
    90   44   45 am   BACKBONE|DICT|INTERRES
    91   44  169 1    
    92   45   46 2    
    93   45   47 1    
    94   47   48 1    
    95   47   49 1    
    96   47  170 1    
    97   48  171 1    
    98   48  172 1    
    99   48  173 1    
   100   49   50 am   BACKBONE|DICT|INTERRES
   101   49  174 1    
   102   50   51 2    
   103   50   52 1    
   104   52   53 1    
   105   52   54 1    
   106   52  175 1    
   107   53  176 1    
   108   53  177 1    
   109   53  178 1    
   110   54   55 am   BACKBONE|DICT|INTERRES
   111   54  179 1    
   112   55   56 2    
   113   55   57 1    
   114   57   58 1    
   115   57   59 1    
   116   57  180 1    
   117   58  181 1    
   118   58  182 1    
   119   58  183 1    
   120   59   60 am   BACKBONE|DICT|INTERRES
   121   59  184 1    
   122   60   61 2    
   123   60   62 1    
   124   62   63 1    
   125   62   64 1    
   126   62  185 1    
   127   63  186 1    
   128   63  187 1    
   129   63  188 1    
   130   64   65 am   BACKBONE|DICT|INTERRES
   131   64  189 1    
   132   65   66 2    
   133   67   68 2    
   134   67   69 am   BACKBONE|DICT|INTERRES
   135   69   70 1    
   136   69  190 1    
   137   70   71 1    
   138   70   72 1    
   139   70  191 1    
   140   71  192 1    
   141   71  193 1    
   142   71  194 1    
   143   72   73 2    
   144   72   74 am   BACKBONE|DICT|INTERRES
   145   74   75 1    
   146   74  195 1    
   147   75   76 1    
   148   75   77 1    
   149   75  196 1    
   150   76  197 1    
   151   76  198 1    
   152   76  199 1    
   153   77   78 2    
   154   77   79 am   BACKBONE|DICT|INTERRES
   155   79   80 1    
   156   79  200 1    
   157   80   81 1    
   158   80   82 1    
   159   80  201 1    
   160   81  202 1    
   161   81  203 1    
   162   81  204 1    
   163   82   83 2    
   164   82   84 am   BACKBONE|DICT|INTERRES
   165   84   85 1    
   166   84  205 1    
   167   85   86 1    
   168   85   87 1    
   169   85  206 1    
   170   86  207 1    
   171   86  208 1    
   172   86  209 1    
   173   87   88 2    
   174   87   89 am   BACKBONE|DICT|INTERRES
   175   89   90 1    
   176   89  210 1    
   177   90   91 1    
   178   90   92 1    
   179   90  211 1    
   180   91  212 1    
   181   91  213 1    
   182   91  214 1    
   183   92   93 2    
   184   92   94 am   BACKBONE|DICT|INTERRES
   185   94   95 1    
   186   94  215 1    
   187   95   96 1    
   188   95   97 1    
   189   95  216 1    
   190   96  217 1    
   191   96  218 1    
   192   96  219 1    
   193   97   98 2    
   194   97   99 am   BACKBONE|DICT|INTERRES
   195   99  100 1    
   196   99  220 1    
   197  100  101 1    
   198  100  102 1    
   199  100  221 1    
   200  101  222 1    
   201  101  223 1    
   202  101  224 1    
   203  102  103 2    
   204  102  104 am   BACKBONE|DICT|INTERRES
   205  104  105 1    
   206  104  225 1    
   207  105  106 1    
   208  105  107 1    
   209  105  226 1    
   210  106  227 1    
   211  106  228 1    
   212  106  229 1    
   213  107  108 2    
   214  107  109 am   BACKBONE|DICT|INTERRES
   215  109  110 1    
   216  109  230 1    
   217  110  111 1    
   218  110  112 1    
   219  110  231 1    
   220  111  232 1    
   221  111  233 1    
   222  111  234 1    
   223  112  113 2    
   224  112  114 am   BACKBONE|DICT|INTERRES
   225  114  115 1    
   226  114  235 1    
   227  115  116 1    
   228  115  117 1    
   229  115  236 1    
   230  116  237 1    
   231  116  238 1    
   232  116  239 1    
   233  117  118 2    
   234  117  119 am   BACKBONE|DICT|INTERRES
   235  119  120 1    
   236  119  240 1    
   237  120  121 1    
   238  120  124 1    
   239  120  241 1    
   240  121  122 am   BACKBONE|DICT|INTERRES
   241  121  123 2    
   242  122  242 1    
   243  122  243 1    
   244  124  125 1    
   245  124  244 1    
   246  124  245 1    
   247  125  126 1    
   248  126  246 1    
   249  126  247 1    
@<TRIPOS>SUBSTRUCTURE
     1 UNK         1 GROUP             0       ****    0 ROOT    
