@<TRIPOS>MOLECULE
3R540
247   249    1
SMALL
USER_CHARGES


@<TRIPOS>ATOM
      1 CA          4.6839   -8.1521  -49.0213 C.3       0 UNK        -0.1800 
      2 C           4.5110   -9.6106  -48.6212 C.2       0 UNK         0.5000 
      3 O           5.3074  -10.1283  -47.8382 O.2       0 UNK        -0.5000 
      4 N           3.4785  -10.2731  -49.1599 N.am      1 UNK        -0.5000 
      5 CA          3.1308  -11.6700  -48.8727 C.3       1 UNK         0.1400 
      6 C6          2.1117  -12.2064  -49.9113 C.3       23 UNK        -0.0398 
      7 S7          1.6978  -13.9785  -49.7490 S.3       23 UNK        -0.2404 
      8 C8          3.0966  -14.7422  -50.6227 C.3       23 UNK        -0.0205 
      9 C9          2.8386  -16.2185  -50.8717 C.ar      23 UNK        -0.0193 
     10 C10         2.1899  -16.6212  -52.0408 C.ar      23 UNK        -0.1150 
     11 C11         1.9385  -17.9729  -52.2792 C.ar      23 UNK        -0.0193 
     12 C12         2.3519  -18.9248  -51.3440 C.ar      23 UNK        -0.1150 
     13 C13         3.0023  -18.5416  -50.1615 C.ar      23 UNK        -0.0193 
     14 C14         3.2379  -17.1801  -49.9381 C.ar      23 UNK        -0.1150 
     15 C15         3.4529  -19.5374  -49.0852 C.3       23 UNK        -0.0205 
     16 S16         3.3305  -21.3122  -49.4995 S.3       23 UNK        -0.2404 
     17 C17         1.5228  -21.5479  -49.4874 C.3       23 UNK        -0.0398 
     18 CA          1.0345  -22.5829  -48.4509 C.3       11 UNK         0.1400 
     19 N           1.3401  -22.2258  -47.0651 N.am      11 UNK        -0.5000 
     20 C           1.4597  -23.1278  -46.0801 C.2       10 UNK         0.5000 
     21 O           1.4594  -24.3455  -46.2639 O.2       10 UNK        -0.5000 
     22 CA          1.5689  -22.5914  -44.6396 C.3       10 UNK         0.1400 
     23 CB          3.0412  -22.3582  -44.2679 C.3       10 UNK        -0.1800 
     24 N           0.8121  -21.3607  -44.4063 N.am      10 UNK        -0.5000 
     25 C          -0.5082  -21.2101  -44.5874 C.2       9 UNK         0.5000 
     26 O          -1.2633  -22.1203  -44.9277 O.2       9 UNK        -0.5000 
     27 CA         -1.0745  -19.7892  -44.4108 C.3       9 UNK         0.1400 
     28 CB         -1.5214  -19.5655  -42.9606 C.3       9 UNK        -0.1800 
     29 N          -0.1439  -18.7314  -44.8122 N.am      9 UNK        -0.5000 
     30 C           0.3797  -18.5879  -46.0402 C.2       8 UNK         0.5000 
     31 O           0.1595  -19.3607  -46.9762 O.2       8 UNK        -0.5000 
     32 CA          1.3433  -17.4060  -46.2351 C.3       8 UNK         0.1400 
     33 CB          0.5726  -16.0943  -46.4197 C.3       8 UNK        -0.1800 
     34 N           2.2557  -17.2815  -45.1004 N.am      8 UNK        -0.5000 
     35 C           3.3803  -17.9963  -44.9599 C.2       7 UNK         0.5000 
     36 O           3.8027  -18.7832  -45.8059 O.2       7 UNK        -0.5000 
     37 CA          4.1589  -17.8210  -43.6425 C.3       7 UNK         0.1400 
     38 CB          5.1414  -16.6450  -43.7507 C.3       7 UNK        -0.1800 
     39 N           3.2951  -17.6185  -42.4787 N.am      7 UNK        -0.5000 
     40 C           2.4203  -18.5177  -42.0064 C.2       6 UNK         0.5000 
     41 O           2.2491  -19.6321  -42.4982 O.2       6 UNK        -0.5000 
     42 CA          1.5625  -18.0807  -40.8038 C.3       6 UNK         0.1400 
     43 CB          2.2765  -18.4194  -39.4869 C.3       6 UNK        -0.1800 
     44 N           1.2097  -16.6582  -40.8091 N.am      6 UNK        -0.5000 
     45 C           0.5509  -16.0206  -41.7865 C.2       5 UNK         0.5000 
     46 O           0.1972  -16.5554  -42.8416 O.2       5 UNK        -0.5000 
     47 CA          0.3160  -14.5195  -41.5523 C.3       5 UNK         0.1400 
     48 CB          1.5971  -13.7281  -41.8636 C.3       5 UNK        -0.1800 
     49 N          -0.7839  -14.0024  -42.3660 N.am      5 UNK        -0.5000 
     50 C          -2.0816  -14.1523  -42.0636 C.2       4 UNK         0.5000 
     51 O          -2.4740  -14.7546  -41.0626 O.2       4 UNK        -0.5000 
     52 CA         -3.1283  -13.4965  -42.9900 C.3       4 UNK         0.1400 
     53 CB         -3.7535  -12.2708  -42.3042 C.3       4 UNK        -0.1800 
     54 N          -2.5892  -13.0756  -44.2830 N.am      4 UNK        -0.5000 
     55 C          -2.4454  -13.8764  -45.3461 C.2       3 UNK         0.5000 
     56 O          -2.8039  -15.0540  -45.3655 O.2       3 UNK        -0.5000 
     57 CA         -1.7918  -13.2652  -46.6055 C.3       3 UNK         0.1400 
     58 CB         -2.8722  -12.8306  -47.6077 C.3       3 UNK        -0.1800 
     59 N          -0.8775  -12.1372  -46.3799 N.am      3 UNK        -0.5000 
     60 C           0.1781  -12.1264  -45.5538 C.2       2 UNK         0.5000 
     61 O           0.4420  -13.0382  -44.7728 O.2       2 UNK        -0.5000 
     62 CA          1.1054  -10.9004  -45.6630 C.3       2 UNK         0.1400 
     63 CB          2.0925  -10.7817  -44.4826 C.3       2 UNK        -0.1800 
     64 N           1.8146  -10.8978  -46.9474 N.am      2 UNK        -0.5000 
     65 C           2.6346  -11.8525  -47.4214 C.2       1 UNK         0.5000 
     66 O           3.0100  -12.8328  -46.7776 O.2       1 UNK        -0.5000 
     67 C          -0.4797  -22.7951  -48.6049 C.2       11 UNK         0.5000 
     68 O          -0.8941  -23.8465  -49.0909 O.2       11 UNK        -0.5000 
     69 N          -1.2730  -21.8008  -48.1730 N.am      12 UNK        -0.5000 
     70 CA         -2.7237  -21.7271  -48.3761 C.3       12 UNK         0.1400 
     71 CB         -3.2587  -20.4268  -47.7605 C.3       12 UNK        -0.1800 
     72 C          -3.5082  -22.9393  -47.8432 C.2       12 UNK         0.5000 
     73 O          -4.5129  -23.3223  -48.4430 O.2       12 UNK        -0.5000 
     74 N          -3.0115  -23.5605  -46.7649 N.am      13 UNK        -0.5000 
     75 CA         -3.5247  -24.8017  -46.1830 C.3       13 UNK         0.1400 
     76 CB         -2.6716  -25.1716  -44.9610 C.3       13 UNK        -0.1800 
     77 C          -3.5925  -25.9879  -47.1680 C.2       13 UNK         0.5000 
     78 O          -4.4812  -26.8284  -47.0268 O.2       13 UNK        -0.5000 
     79 N          -2.7066  -26.0182  -48.1764 N.am      14 UNK        -0.5000 
     80 CA         -2.7091  -27.0209  -49.2473 C.3       14 UNK         0.1400 
     81 CB         -1.3765  -26.9614  -50.0086 C.3       14 UNK        -0.1800 
     82 C          -3.8969  -26.8695  -50.2205 C.2       14 UNK         0.5000 
     83 O          -4.2618  -27.8426  -50.8808 O.2       14 UNK        -0.5000 
     84 N          -4.4929  -25.6711  -50.2696 N.am      15 UNK        -0.5000 
     85 CA         -5.7137  -25.3509  -51.0086 C.3       15 UNK         0.1400 
     86 CB         -5.4528  -24.1060  -51.8746 C.3       15 UNK        -0.1800 
     87 C          -6.9022  -25.1375  -50.0480 C.2       15 UNK         0.5000 
     88 O          -7.8872  -24.5080  -50.4341 O.2       15 UNK        -0.5000 
     89 N          -6.7853  -25.6276  -48.8019 N.am      16 UNK        -0.5000 
     90 CA         -7.7648  -25.5331  -47.7106 C.3       16 UNK         0.1400 
     91 CB         -8.9936  -26.4129  -48.0201 C.3       16 UNK        -0.1800 
     92 C          -8.1513  -24.0822  -47.3421 C.2       16 UNK         0.5000 
     93 O          -9.2706  -23.8403  -46.8879 O.2       16 UNK        -0.5000 
     94 N          -7.2205  -23.1435  -47.5698 N.am      17 UNK        -0.5000 
     95 CA         -7.3450  -21.6913  -47.4194 C.3       17 UNK         0.1400 
     96 CB         -7.6061  -21.3019  -45.9500 C.3       17 UNK        -0.1800 
     97 C          -8.3369  -21.0287  -48.4018 C.2       17 UNK         0.5000 
     98 O          -8.6765  -19.8595  -48.2136 O.2       17 UNK        -0.5000 
     99 N          -8.7610  -21.7504  -49.4512 N.am      18 UNK        -0.5000 
    100 CA        -9.6070  -21.2218  -50.5263 C.3       18 UNK         0.1400 
    101 CB       -10.3491  -22.3840  -51.2040 C.3       18 UNK        -0.1800 
    102 C         -8.8010  -20.4161  -51.5651 C.2       18 UNK         0.5000 
    103 O         -9.3861  -19.6372  -52.3188 O.2       18 UNK        -0.5000 
    104 N         -7.4792  -20.6121  -51.5813 N.am      19 UNK        -0.5000 
    105 CA        -6.5005  -19.9224  -52.4094 C.3       19 UNK         0.1400 
    106 CB        -6.4197  -20.6010  -53.7894 C.3       19 UNK        -0.1800 
    107 C         -5.1490  -19.9683  -51.6808 C.2       19 UNK         0.5000 
    108 O         -5.0180  -20.6729  -50.6772 O.2       19 UNK        -0.5000 
    109 N         -4.1587  -19.2380  -52.2086 N.am      20 UNK        -0.5000 
    110 CA        -2.7871  -19.2054  -51.6872 C.3       20 UNK         0.1400 
    111 CB        -2.0987  -17.9247  -52.1832 C.3       20 UNK        -0.1800 
    112 C         -1.9562  -20.4559  -52.0516 C.2       20 UNK         0.5000 
    113 O         -0.8781  -20.6389  -51.4910 O.2       20 UNK        -0.5000 
    114 N         -2.4695  -21.2835  -52.9747 N.am      21 UNK        -0.5000 
    115 CA        -1.9344  -22.5742  -53.4303 C.3       21 UNK         0.1400 
    116 CB        -1.7113  -23.5425  -52.2504 C.3       21 UNK        -0.1800 
    117 C         -0.6979  -22.4836  -54.3518 C.2       21 UNK         0.5000 
    118 O         -0.0654  -23.5099  -54.6078 O.2       21 UNK        -0.5000 
    119 N         -0.3937  -21.2893  -54.8761 N.am      22 UNK        -0.5000 
    120 CA         0.5773  -21.0959  -55.9672 C.3       22 UNK         0.1400 
    121 C         -0.0190  -21.5349  -57.3341 C.2       22 UNK         0.5000 
    122 N          0.7918  -22.0960  -58.2205 N.am      22 UNK        -0.7600 
    123 O         -1.1995  -21.3356  -57.6138 O.2       22 UNK        -0.5000 
    124 C124        1.0855  -19.6332  -56.0439 C.3       23 UNK        -0.0398 
    125 S125        2.2750  -19.2365  -54.7194 S.3       23 UNK        -0.2404 
    126 C126        1.1882  -18.4058  -53.5281 C.3       23 UNK        -0.0205 
    127 H127        4.6290   -7.5127  -48.1402 H         1 UNK         0.0600 
    128 H128        3.9151   -7.8296  -49.7238 H         1 UNK         0.0600 
    129 H129        5.6565   -8.0045  -49.4908 H         1 UNK         0.0600 
    130 H130        2.8717   -9.7895  -49.8070 H         1 UNK         0.3000 
    131 H131        4.0463  -12.2569  -48.9751 H         1 UNK         0.0600 
    132 H132        2.4872  -12.0339  -50.9209 H         1 UNK         0.0800 
    133 H133        1.1786  -11.6442  -49.8466 H         1 UNK         0.0800 
    134 H134        3.2630  -14.2327  -51.5732 H         1 UNK         0.0800 
    135 H135        4.0074  -14.6114  -50.0365 H         1 UNK         0.0800 
    136 H136        1.8693  -15.8788  -52.7583 H         1 UNK         0.1150 
    137 H137        2.1488  -19.9623  -51.5575 H         1 UNK         0.1150 
    138 H138        3.7305  -16.8651  -49.0284 H         1 UNK         0.1150 
    139 H139        4.4906  -19.3259  -48.8237 H         1 UNK         0.0800 
    140 H140        2.8689  -19.3665  -48.1826 H         1 UNK         0.0800 
    141 H141        1.2429  -21.8749  -50.4905 H         1 UNK         0.0800 
    142 H142        1.0263  -20.5876  -49.3355 H         1 UNK         0.0800 
    143 H143        1.5240  -23.5303  -48.6881 H         1 UNK         0.0600 
    144 H144        1.3087  -21.2417  -46.8319 H         1 UNK         0.3000 
    145 H145        1.1634  -23.3560  -43.9742 H         1 UNK         0.0600 
    146 H146        3.6391  -23.2522  -44.4496 H         1 UNK         0.0600 
    147 H147        3.4778  -21.5452  -44.8497 H         1 UNK         0.0600 
    148 H148        3.1465  -22.1092  -43.2120 H         1 UNK         0.0600 
    149 H149        1.3397  -20.5719  -44.0464 H         1 UNK         0.3000 
    150 H150       -1.9531  -19.6960  -45.0479 H         1 UNK         0.0600 
    151 H151       -1.8970  -18.5532  -42.8086 H         1 UNK         0.0600 
    152 H152       -0.7024  -19.7333  -42.2635 H         1 UNK         0.0600 
    153 H153       -2.3223  -20.2554  -42.6919 H         1 UNK         0.0600 
    154 H154        0.0696  -18.0288  -44.1097 H         1 UNK         0.3000 
    155 H155        1.9175  -17.5767  -47.1463 H         1 UNK         0.0600 
    156 H156       -0.1111  -16.1659  -47.2663 H         1 UNK         0.0600 
    157 H157        1.2497  -15.2623  -46.6169 H         1 UNK         0.0600 
    158 H158       -0.0156  -15.8429  -45.5364 H         1 UNK         0.0600 
    159 H159        1.9485  -16.6949  -44.3362 H         1 UNK         0.3000 
    160 H160        4.7341  -18.7343  -43.4760 H         1 UNK         0.0600 
    161 H161        5.8153  -16.7766  -44.5983 H         1 UNK         0.0600 
    162 H162        5.7589  -16.5624  -42.8560 H         1 UNK         0.0600 
    163 H163        4.6207  -15.6965  -43.8896 H         1 UNK         0.0600 
    164 H164        3.3620  -16.7264  -42.0120 H         1 UNK         0.3000 
    165 H165        0.6318  -18.6467  -40.8338 H         1 UNK         0.0600 
    166 H166        1.6423  -18.2044  -38.6267 H         1 UNK         0.0600 
    167 H167        2.5321  -19.4791  -39.4428 H         1 UNK         0.0600 
    168 H168        3.2020  -17.8536  -39.3727 H         1 UNK         0.0600 
    169 H169        1.4767  -16.1353  -39.9874 H         1 UNK         0.3000 
    170 H170        0.0685  -14.3663  -40.4996 H         1 UNK         0.0600 
    171 H171        1.4301  -12.6542  -41.7803 H         1 UNK         0.0600 
    172 H172        2.3959  -13.9857  -41.1674 H         1 UNK         0.0600 
    173 H173        1.9665  -13.9333  -42.8690 H         1 UNK         0.0600 
    174 H174       -0.5182  -13.5795  -43.2516 H         1 UNK         0.3000 
    175 H175       -3.9206  -14.2298  -43.1550 H         1 UNK         0.0600 
    176 H176       -3.0100  -11.4975  -42.1068 H         1 UNK         0.0600 
    177 H177       -4.5397  -11.8326  -42.9194 H         1 UNK         0.0600 
    178 H178       -4.2051  -12.5432  -41.3493 H         1 UNK         0.0600 
    179 H179       -2.2617  -12.1236  -44.3521 H         1 UNK         0.3000 
    180 H180       -1.2054  -14.0544  -47.0757 H         1 UNK         0.0600 
    181 H181       -2.4308  -12.5173  -48.5540 H         1 UNK         0.0600 
    182 H182       -3.4673  -12.0021  -47.2217 H         1 UNK         0.0600 
    183 H183       -3.5561  -13.6516  -47.8279 H         1 UNK         0.0600 
    184 H184       -1.0129  -11.3400  -46.9843 H         1 UNK         0.3000 
    185 H185        0.4694  -10.0140  -45.6484 H         1 UNK         0.0600 
    186 H186        2.7500  -11.6482  -44.4060 H         1 UNK         0.0600 
    187 H187        2.7189   -9.8953  -44.5813 H         1 UNK         0.0600 
    188 H188        1.5558  -10.6983  -43.5370 H         1 UNK         0.0600 
    189 H189        1.5987  -10.1247  -47.5605 H         1 UNK         0.3000 
    190 H190       -0.8375  -20.9821  -47.7616 H         1 UNK         0.3000 
    191 H191       -2.8840  -21.6896  -49.4543 H         1 UNK         0.0600 
    192 H192       -3.2745  -20.4776  -46.6730 H         1 UNK         0.0600 
    193 H193       -4.2794  -20.2342  -48.0900 H         1 UNK         0.0600 
    194 H194       -2.6575  -19.5657  -48.0533 H         1 UNK         0.0600 
    195 H195       -2.2120  -23.1417  -46.2972 H         1 UNK         0.3000 
    196 H196       -4.5434  -24.6040  -45.8435 H         1 UNK         0.0600 
    197 H197       -3.0198  -26.0984  -44.5030 H         1 UNK         0.0600 
    198 H198       -2.7206  -24.3951  -44.1974 H         1 UNK         0.0600 
    199 H199       -1.6236  -25.3089  -45.2314 H         1 UNK         0.0600 
    200 H200       -2.0331  -25.2628  -48.2704 H         1 UNK         0.3000 
    201 H201       -2.7884  -28.0069  -48.7846 H         1 UNK         0.0600 
    202 H202       -0.5282  -27.0696  -49.3326 H         1 UNK         0.0600 
    203 H203       -1.2608  -26.0194  -50.5444 H         1 UNK         0.0600 
    204 H204       -1.3122  -27.7640  -50.7442 H         1 UNK         0.0600 
    205 H205       -4.1529  -24.9330  -49.6622 H         1 UNK         0.3000 
    206 H206       -5.9898  -26.1727  -51.6716 H         1 UNK         0.0600 
    207 H207       -6.3388  -23.8232  -52.4441 H         1 UNK         0.0600 
    208 H208       -5.1642  -23.2506  -51.2642 H         1 UNK         0.0600 
    209 H209       -4.6554  -24.2899  -52.5940 H         1 UNK         0.0600 
    210 H210       -5.9281  -26.1109  -48.5646 H         1 UNK         0.3000 
    211 H211       -7.2758  -25.9467  -46.8275 H         1 UNK         0.0600 
    212 H212       -9.5690  -26.0216  -48.8598 H         1 UNK         0.0600 
    213 H213       -9.6638  -26.4686  -47.1616 H         1 UNK         0.0600 
    214 H214       -8.6965  -27.4330  -48.2633 H         1 UNK         0.0600 
    215 H215       -6.3292  -23.4431  -47.9588 H         1 UNK         0.3000 
    216 H216       -6.3677  -21.2909  -47.6885 H         1 UNK         0.0600 
    217 H217       -7.5240  -20.2235  -45.8105 H         1 UNK         0.0600 
    218 H218       -6.8802  -21.7687  -45.2842 H         1 UNK         0.0600 
    219 H219       -8.6030  -21.5966  -45.6220 H         1 UNK         0.0600 
    220 H220       -8.4425  -22.7080  -49.5594 H         1 UNK         0.3000 
    221 H221      -10.3537  -20.5533  -50.0928 H         1 UNK         0.0600 
    222 H222       -9.6639  -23.0467  -51.7330 H         1 UNK         0.0600 
    223 H223      -10.9002  -22.9805  -50.4767 H         1 UNK         0.0600 
    224 H224      -11.0693  -22.0118  -51.9336 H         1 UNK         0.0600 
    225 H225       -7.0651  -21.2231  -50.8882 H         1 UNK         0.3000 
    226 H226       -6.7928  -18.8767  -52.5240 H         1 UNK         0.0600 
    227 H227       -7.3883  -20.5948  -54.2897 H         1 UNK         0.0600 
    228 H228       -5.7179  -20.0852  -54.4453 H         1 UNK         0.0600 
    229 H229       -6.0946  -21.6388  -53.7083 H         1 UNK         0.0600 
    230 H230       -4.3434  -18.6741  -53.0261 H         1 UNK         0.3000 
    231 H231       -2.8330  -19.1587  -50.5972 H         1 UNK         0.0600 
    232 H232       -1.9783  -17.9228  -53.2671 H         1 UNK         0.0600 
    233 H233       -2.6691  -17.0378  -51.9067 H         1 UNK         0.0600 
    234 H234       -1.1092  -17.8179  -51.7370 H         1 UNK         0.0600 
    235 H235       -3.3538  -21.0188  -53.3829 H         1 UNK         0.3000 
    236 H236       -2.7244  -23.0046  -54.0471 H         1 UNK         0.0600 
    237 H237       -0.8005  -23.2987  -51.7039 H         1 UNK         0.0600 
    238 H238       -2.5404  -23.5199  -51.5435 H         1 UNK         0.0600 
    239 H239       -1.6109  -24.5694  -52.6025 H         1 UNK         0.0600 
    240 H240       -0.9868  -20.5057  -54.6534 H         1 UNK         0.3000 
    241 H241        1.4390  -21.7375  -55.7696 H         1 UNK         0.0600 
    242 H242        0.4216  -22.3726  -59.1169 H         1 UNK         0.3800 
    243 H243        1.7656  -22.2635  -58.0169 H         1 UNK         0.3800 
    244 H244        1.6122  -19.4598  -56.9844 H         1 UNK         0.0800 
    245 H245        0.2535  -18.9272  -56.0363 H         1 UNK         0.0800 
    246 H246        0.3929  -19.0916  -53.2436 H         1 UNK         0.0800 
    247 H247        0.7090  -17.5497  -54.0057 H         1 UNK         0.0800 
@<TRIPOS>BOND
     1    1    2 1    
     2    1  127 1    
     3    1  128 1    
     4    1  129 1    
     5    2    3 2    
     6    2    4 am   BACKBONE|DICT|INTERRES
     7    4    5 1    
     8    4  130 1    
     9    5    6 1    
    10    5   65 1    
    11    5  131 1    
    12    6    7 1    
    13    6  132 1    
    14    6  133 1    
    15    7    8 1    
    16    8    9 1    
    17    8  134 1    
    18    8  135 1    
    19    9   10 ar   
    20    9   14 ar   
    21   10   11 ar   
    22   10  136 1    
    23   11   12 ar   
    24   11  126 1    
    25   12   13 ar   
    26   12  137 1    
    27   13   14 ar   
    28   13   15 1    
    29   14  138 1    
    30   15   16 1    
    31   15  139 1    
    32   15  140 1    
    33   16   17 1    
    34   17   18 1    
    35   17  141 1    
    36   17  142 1    
    37   18   19 1    
    38   18   67 1    
    39   18  143 1    
    40   19   20 am   BACKBONE|DICT|INTERRES
    41   19  144 1    
    42   20   21 2    
    43   20   22 1    
    44   22   23 1    
    45   22   24 1    
    46   22  145 1    
    47   23  146 1    
    48   23  147 1    
    49   23  148 1    
    50   24   25 am   BACKBONE|DICT|INTERRES
    51   24  149 1    
    52   25   26 2    
    53   25   27 1    
    54   27   28 1    
    55   27   29 1    
    56   27  150 1    
    57   28  151 1    
    58   28  152 1    
    59   28  153 1    
    60   29   30 am   BACKBONE|DICT|INTERRES
    61   29  154 1    
    62   30   31 2    
    63   30   32 1    
    64   32   33 1    
    65   32   34 1    
    66   32  155 1    
    67   33  156 1    
    68   33  157 1    
    69   33  158 1    
    70   34   35 am   BACKBONE|DICT|INTERRES
    71   34  159 1    
    72   35   36 2    
    73   35   37 1    
    74   37   38 1    
    75   37   39 1    
    76   37  160 1    
    77   38  161 1    
    78   38  162 1    
    79   38  163 1    
    80   39   40 am   BACKBONE|DICT|INTERRES
    81   39  164 1    
    82   40   41 2    
    83   40   42 1    
    84   42   43 1    
    85   42   44 1    
    86   42  165 1    
    87   43  166 1    
    88   43  167 1    
    89   43  168 1    
    90   44   45 am   BACKBONE|DICT|INTERRES
    91   44  169 1    
    92   45   46 2    
    93   45   47 1    
    94   47   48 1    
    95   47   49 1    
    96   47  170 1    
    97   48  171 1    
    98   48  172 1    
    99   48  173 1    
   100   49   50 am   BACKBONE|DICT|INTERRES
   101   49  174 1    
   102   50   51 2    
   103   50   52 1    
   104   52   53 1    
   105   52   54 1    
   106   52  175 1    
   107   53  176 1    
   108   53  177 1    
   109   53  178 1    
   110   54   55 am   BACKBONE|DICT|INTERRES
   111   54  179 1    
   112   55   56 2    
   113   55   57 1    
   114   57   58 1    
   115   57   59 1    
   116   57  180 1    
   117   58  181 1    
   118   58  182 1    
   119   58  183 1    
   120   59   60 am   BACKBONE|DICT|INTERRES
   121   59  184 1    
   122   60   61 2    
   123   60   62 1    
   124   62   63 1    
   125   62   64 1    
   126   62  185 1    
   127   63  186 1    
   128   63  187 1    
   129   63  188 1    
   130   64   65 am   BACKBONE|DICT|INTERRES
   131   64  189 1    
   132   65   66 2    
   133   67   68 2    
   134   67   69 am   BACKBONE|DICT|INTERRES
   135   69   70 1    
   136   69  190 1    
   137   70   71 1    
   138   70   72 1    
   139   70  191 1    
   140   71  192 1    
   141   71  193 1    
   142   71  194 1    
   143   72   73 2    
   144   72   74 am   BACKBONE|DICT|INTERRES
   145   74   75 1    
   146   74  195 1    
   147   75   76 1    
   148   75   77 1    
   149   75  196 1    
   150   76  197 1    
   151   76  198 1    
   152   76  199 1    
   153   77   78 2    
   154   77   79 am   BACKBONE|DICT|INTERRES
   155   79   80 1    
   156   79  200 1    
   157   80   81 1    
   158   80   82 1    
   159   80  201 1    
   160   81  202 1    
   161   81  203 1    
   162   81  204 1    
   163   82   83 2    
   164   82   84 am   BACKBONE|DICT|INTERRES
   165   84   85 1    
   166   84  205 1    
   167   85   86 1    
   168   85   87 1    
   169   85  206 1    
   170   86  207 1    
   171   86  208 1    
   172   86  209 1    
   173   87   88 2    
   174   87   89 am   BACKBONE|DICT|INTERRES
   175   89   90 1    
   176   89  210 1    
   177   90   91 1    
   178   90   92 1    
   179   90  211 1    
   180   91  212 1    
   181   91  213 1    
   182   91  214 1    
   183   92   93 2    
   184   92   94 am   BACKBONE|DICT|INTERRES
   185   94   95 1    
   186   94  215 1    
   187   95   96 1    
   188   95   97 1    
   189   95  216 1    
   190   96  217 1    
   191   96  218 1    
   192   96  219 1    
   193   97   98 2    
   194   97   99 am   BACKBONE|DICT|INTERRES
   195   99  100 1    
   196   99  220 1    
   197  100  101 1    
   198  100  102 1    
   199  100  221 1    
   200  101  222 1    
   201  101  223 1    
   202  101  224 1    
   203  102  103 2    
   204  102  104 am   BACKBONE|DICT|INTERRES
   205  104  105 1    
   206  104  225 1    
   207  105  106 1    
   208  105  107 1    
   209  105  226 1    
   210  106  227 1    
   211  106  228 1    
   212  106  229 1    
   213  107  108 2    
   214  107  109 am   BACKBONE|DICT|INTERRES
   215  109  110 1    
   216  109  230 1    
   217  110  111 1    
   218  110  112 1    
   219  110  231 1    
   220  111  232 1    
   221  111  233 1    
   222  111  234 1    
   223  112  113 2    
   224  112  114 am   BACKBONE|DICT|INTERRES
   225  114  115 1    
   226  114  235 1    
   227  115  116 1    
   228  115  117 1    
   229  115  236 1    
   230  116  237 1    
   231  116  238 1    
   232  116  239 1    
   233  117  118 2    
   234  117  119 am   BACKBONE|DICT|INTERRES
   235  119  120 1    
   236  119  240 1    
   237  120  121 1    
   238  120  124 1    
   239  120  241 1    
   240  121  122 am   BACKBONE|DICT|INTERRES
   241  121  123 2    
   242  122  242 1    
   243  122  243 1    
   244  124  125 1    
   245  124  244 1    
   246  124  245 1    
   247  125  126 1    
   248  126  246 1    
   249  126  247 1    
@<TRIPOS>SUBSTRUCTURE
     1 UNK         1 GROUP             0       ****    0 ROOT    
