@<TRIPOS>MOLECULE
3R540
247   249    1
SMALL
USER_CHARGES


@<TRIPOS>ATOM
      1 CA          6.7615  -12.8277  -52.0226 C.3       0 UNK        -0.1800 
      2 C           5.3039  -13.2458  -51.8889 C.2       0 UNK         0.5000 
      3 O           4.6758  -13.6104  -52.8830 O.2       0 UNK        -0.5000 
      4 N           4.7640  -13.1952  -50.6680 N.am      1 UNK        -0.5000 
      5 CA          3.3959  -13.5758  -50.3321 C.3       1 UNK         0.1400 
      6 C6          2.3886  -12.4519  -50.6824 C.3       23 UNK        -0.0398 
      7 S7          0.6360  -12.8497  -50.3696 S.3       23 UNK        -0.2404 
      8 C8          0.2702  -14.0631  -51.6797 C.3       23 UNK        -0.0205 
      9 C9          0.2797  -15.4825  -51.1324 C.ar      23 UNK        -0.0193 
     10 C10         1.2710  -16.3960  -51.5060 C.ar      23 UNK        -0.1150 
     11 C11         1.2796  -17.6906  -50.9753 C.ar      23 UNK        -0.0193 
     12 C12         0.2760  -18.0719  -50.0799 C.ar      23 UNK        -0.1150 
     13 C13        -0.7248  -17.1695  -49.7079 C.ar      23 UNK        -0.0193 
     14 C14        -0.7186  -15.8800  -50.2400 C.ar      23 UNK        -0.1150 
     15 C15        -1.8172  -17.5913  -48.7414 C.3       23 UNK        -0.0205 
     16 S16        -1.1726  -17.7815  -47.0525 S.3       23 UNK        -0.2404 
     17 C17        -2.1276  -19.2322  -46.5166 C.3       23 UNK        -0.0398 
     18 CA         -1.4654  -20.5530  -46.9772 C.3       11 UNK         0.1400 
     19 N          -0.1404  -20.7727  -46.3833 N.am      11 UNK        -0.5000 
     20 C           0.7319  -21.7023  -46.7988 C.2       10 UNK         0.5000 
     21 O           0.5299  -22.4345  -47.7630 O.2       10 UNK        -0.5000 
     22 CA          2.0191  -21.8912  -45.9783 C.3       10 UNK         0.1400 
     23 CB          3.1345  -20.9761  -46.4993 C.3       10 UNK        -0.1800 
     24 N           1.7996  -21.6547  -44.5522 N.am      10 UNK        -0.5000 
     25 C           1.1209  -22.4924  -43.7527 C.2       9 UNK         0.5000 
     26 O           0.6794  -23.5781  -44.1310 O.2       9 UNK        -0.5000 
     27 CA          0.8313  -22.0143  -42.3128 C.3       9 UNK         0.1400 
     28 CB          1.9768  -22.4116  -41.3712 C.3       9 UNK        -0.1800 
     29 N           0.6177  -20.5678  -42.2257 N.am      9 UNK        -0.5000 
     30 C          -0.3469  -19.9051  -42.8797 C.2       8 UNK         0.5000 
     31 O          -1.2574  -20.4771  -43.4791 O.2       8 UNK        -0.5000 
     32 CA         -0.2627  -18.3635  -42.9391 C.3       8 UNK         0.1400 
     33 CB         -1.3632  -17.7349  -42.0717 C.3       8 UNK        -0.1800 
     34 N           1.0301  -17.7847  -42.5610 N.am      8 UNK        -0.5000 
     35 C           2.2275  -18.0651  -43.0984 C.2       7 UNK         0.5000 
     36 O           2.3973  -18.8840  -44.0014 O.2       7 UNK        -0.5000 
     37 CA          3.4540  -17.3759  -42.4692 C.3       7 UNK         0.1400 
     38 CB          3.8257  -16.1041  -43.2444 C.3       7 UNK        -0.1800 
     39 N           3.2704  -17.0399  -41.0556 N.am      7 UNK        -0.5000 
     40 C           3.0605  -17.9106  -40.0595 C.2       6 UNK         0.5000 
     41 O           3.0343  -19.1314  -40.2218 O.2       6 UNK        -0.5000 
     42 CA          2.7835  -17.3295  -38.6564 C.3       6 UNK         0.1400 
     43 CB          4.0934  -17.0673  -37.8890 C.3       6 UNK        -0.1800 
     44 N           1.9000  -16.1517  -38.6551 N.am      6 UNK        -0.5000 
     45 C           2.1393  -14.9220  -39.1313 C.2       5 UNK         0.5000 
     46 O           3.2200  -14.5596  -39.6026 O.2       5 UNK        -0.5000 
     47 CA          0.9497  -13.9427  -39.1179 C.3       5 UNK         0.1400 
     48 CB          1.0599  -12.9752  -37.9300 C.3       5 UNK        -0.1800 
     49 N           0.8566  -13.1710  -40.3605 N.am      5 UNK        -0.5000 
     50 C           0.7171  -13.6985  -41.5843 C.2       4 UNK         0.5000 
     51 O           0.6026  -14.9089  -41.7982 O.2       4 UNK        -0.5000 
     52 CA          0.7197  -12.7061  -42.7578 C.3       4 UNK         0.1400 
     53 CB          2.1204  -12.1055  -42.9790 C.3       4 UNK        -0.1800 
     54 N           0.2907  -13.3939  -43.9698 N.am      4 UNK        -0.5000 
     55 C          -0.2872  -12.8412  -45.0391 C.2       3 UNK         0.5000 
     56 O          -0.5249  -11.6355  -45.1360 O.2       3 UNK        -0.5000 
     57 CA         -0.6317  -13.8026  -46.1992 C.3       3 UNK         0.1400 
     58 CB         -1.5419  -13.1536  -47.2562 C.3       3 UNK        -0.1800 
     59 N           0.5696  -14.3145  -46.8625 N.am      3 UNK        -0.5000 
     60 C           1.3970  -15.2363  -46.3511 C.2       2 UNK         0.5000 
     61 O           1.2131  -15.7660  -45.2558 O.2       2 UNK        -0.5000 
     62 CA          2.6291  -15.6446  -47.1796 C.3       2 UNK         0.1400 
     63 CB          2.7076  -17.1706  -47.3326 C.3       2 UNK        -0.1800 
     64 N           2.6570  -15.0396  -48.5126 N.am      2 UNK        -0.5000 
     65 C           3.3918  -13.9722  -48.8463 C.2       1 UNK         0.5000 
     66 O           4.0696  -13.3231  -48.0451 O.2       1 UNK        -0.5000 
     67 C          -2.4065  -21.7466  -46.7318 C.2       11 UNK         0.5000 
     68 O          -3.1681  -22.1109  -47.6287 O.2       11 UNK        -0.5000 
     69 N          -2.3123  -22.3585  -45.5433 N.am      12 UNK        -0.5000 
     70 CA         -3.0073  -23.5988  -45.2035 C.3       12 UNK         0.1400 
     71 CB         -2.8656  -23.8786  -43.6998 C.3       12 UNK        -0.1800 
     72 C          -2.5080  -24.7881  -46.0459 C.2       12 UNK         0.5000 
     73 O          -3.3278  -25.5447  -46.5662 O.2       12 UNK        -0.5000 
     74 N          -1.1808  -24.9030  -46.2054 N.am      13 UNK        -0.5000 
     75 CA         -0.5264  -25.9249  -47.0277 C.3       13 UNK         0.1400 
     76 CB          0.9875  -25.8992  -46.7694 C.3       13 UNK        -0.1800 
     77 C          -0.8273  -25.7787  -48.5331 C.2       13 UNK         0.5000 
     78 O          -1.0654  -26.7826  -49.2049 O.2       13 UNK        -0.5000 
     79 N          -0.8396  -24.5333  -49.0284 N.am      14 UNK        -0.5000 
     80 CA         -1.1744  -24.1720  -50.4091 C.3       14 UNK         0.1400 
     81 CB         -0.6512  -22.7550  -50.6977 C.3       14 UNK        -0.1800 
     82 C          -2.6814  -24.2595  -50.7250 C.2       14 UNK         0.5000 
     83 O          -3.0485  -24.1653  -51.8961 O.2       14 UNK        -0.5000 
     84 N          -3.5147  -24.4274  -49.6879 N.am      15 UNK        -0.5000 
     85 CA         -4.9737  -24.5206  -49.7150 C.3       15 UNK         0.1400 
     86 CB         -5.4345  -25.7847  -50.4698 C.3       15 UNK        -0.1800 
     87 C          -5.6233  -23.2240  -50.2316 C.2       15 UNK         0.5000 
     88 O          -6.3150  -23.2272  -51.2527 O.2       15 UNK        -0.5000 
     89 N          -5.3782  -22.1227  -49.5096 N.am      16 UNK        -0.5000 
     90 CA         -6.0000  -20.8154  -49.7281 C.3       16 UNK         0.1400 
     91 CB         -5.4962  -19.8321  -48.6644 C.3       16 UNK        -0.1800 
     92 C          -7.5397  -20.8723  -49.7439 C.2       16 UNK         0.5000 
     93 O          -8.1359  -21.6532  -48.9986 O.2       16 UNK        -0.5000 
     94 N          -8.1414  -20.0726  -50.6348 N.am      17 UNK        -0.5000 
     95 CA         -9.5656  -20.0022  -50.9960 C.3       17 UNK         0.1400 
     96 CB        -10.4486  -19.6513  -49.7832 C.3       17 UNK        -0.1800 
     97 C         -10.0992  -21.2475  -51.7370 C.2       17 UNK         0.5000 
     98 O         -10.8576  -21.0916  -52.6938 O.2       17 UNK        -0.5000 
     99 N          -9.6887  -22.4485  -51.3105 N.am      18 UNK        -0.5000 
    100 CA       -10.0667  -23.7324  -51.9020 C.3       18 UNK         0.1400 
    101 CB        -9.7141  -24.8649  -50.9249 C.3       18 UNK        -0.1800 
    102 C         -9.4113  -23.9577  -53.2763 C.2       18 UNK         0.5000 
    103 O        -10.1148  -24.2216  -54.2520 O.2       18 UNK        -0.5000 
    104 N         -8.0805  -23.8228  -53.3261 N.am      19 UNK        -0.5000 
    105 CA        -7.2589  -23.9171  -54.5359 C.3       19 UNK         0.1400 
    106 CB        -6.1001  -24.8915  -54.2675 C.3       19 UNK        -0.1800 
    107 C         -6.7184  -22.5384  -54.9656 C.2       19 UNK         0.5000 
    108 O         -5.9716  -22.4628  -55.9413 O.2       19 UNK        -0.5000 
    109 N         -7.0980  -21.4819  -54.2294 N.am      20 UNK        -0.5000 
    110 CA        -6.7008  -20.0784  -54.3974 C.3       20 UNK         0.1400 
    111 CB        -7.1333  -19.5296  -55.7735 C.3       20 UNK        -0.1800 
    112 C         -5.2141  -19.8083  -54.0740 C.2       20 UNK         0.5000 
    113 O         -4.6525  -18.8276  -54.5638 O.2       20 UNK        -0.5000 
    114 N         -4.6280  -20.6536  -53.2127 N.am      21 UNK        -0.5000 
    115 CA        -3.2558  -20.5893  -52.7000 C.3       21 UNK         0.1400 
    116 CB        -3.0447  -19.3252  -51.8330 C.3       21 UNK        -0.1800 
    117 C         -2.1874  -20.7595  -53.8040 C.2       21 UNK         0.5000 
    118 O         -2.4036  -21.5085  -54.7589 O.2       21 UNK        -0.5000 
    119 N         -1.0344  -20.1058  -53.6187 N.am      22 UNK        -0.5000 
    120 CA         0.1351  -20.1358  -54.5061 C.3       22 UNK         0.1400 
    121 C         -0.1545  -19.5409  -55.9123 C.2       22 UNK         0.5000 
    122 N          0.3310  -20.1719  -56.9731 N.am      22 UNK        -0.7600 
    123 O         -0.7708  -18.4863  -56.0464 O.2       22 UNK        -0.5000 
    124 C124        1.3450  -19.4149  -53.8582 C.3       23 UNK        -0.0398 
    125 S125        1.8019  -20.1282  -52.2394 S.3       23 UNK        -0.2404 
    126 C126        2.3956  -18.6635  -51.3326 C.3       23 UNK        -0.0205 
    127 H127        7.1871  -12.5293  -51.0642 H         1 UNK         0.0600 
    128 H128        7.3543  -13.6537  -52.4157 H         1 UNK         0.0600 
    129 H129        6.8488  -11.9863  -52.7101 H         1 UNK         0.0600 
    130 H130        5.3188  -12.9149  -49.8681 H         1 UNK         0.3000 
    131 H131        3.1505  -14.4645  -50.9131 H         1 UNK         0.0600 
    132 H132        2.6307  -11.5475  -50.1217 H         1 UNK         0.0800 
    133 H133        2.4857  -12.1792  -51.7340 H         1 UNK         0.0800 
    134 H134        0.9716  -13.9548  -52.5085 H         1 UNK         0.0800 
    135 H135       -0.7185  -13.8497  -52.0884 H         1 UNK         0.0800 
    136 H136        2.0420  -16.0970  -52.2025 H         1 UNK         0.1150 
    137 H137        0.2816  -19.0693  -49.6620 H         1 UNK         0.1150 
    138 H138       -1.4895  -15.1775  -49.9574 H         1 UNK         0.1150 
    139 H139       -2.2466  -18.5289  -49.0910 H         1 UNK         0.0800 
    140 H140       -2.6337  -16.8677  -48.7302 H         1 UNK         0.0800 
    141 H141       -3.1429  -19.1393  -46.9026 H         1 UNK         0.0800 
    142 H142       -2.2270  -19.1971  -45.4329 H         1 UNK         0.0800 
    143 H143       -1.3244  -20.4962  -48.0584 H         1 UNK         0.0600 
    144 H144        0.0919  -20.2141  -45.5762 H         1 UNK         0.3000 
    145 H145        2.3498  -22.9238  -46.1059 H         1 UNK         0.0600 
    146 H146        4.0560  -21.1116  -45.9331 H         1 UNK         0.0600 
    147 H147        3.3572  -21.1901  -47.5454 H         1 UNK         0.0600 
    148 H148        2.8512  -19.9275  -46.4346 H         1 UNK         0.0600 
    149 H149        2.0950  -20.7491  -44.1949 H         1 UNK         0.3000 
    150 H150       -0.0813  -22.5099  -41.9755 H         1 UNK         0.0600 
    151 H151        2.9109  -21.9191  -41.6450 H         1 UNK         0.0600 
    152 H152        2.1505  -23.4881  -41.3987 H         1 UNK         0.0600 
    153 H153        1.7492  -22.1446  -40.3390 H         1 UNK         0.0600 
    154 H154        1.3333  -20.0316  -41.7530 H         1 UNK         0.3000 
    155 H155       -0.4428  -18.0772  -43.9768 H         1 UNK         0.0600 
    156 H156       -2.3436  -18.1427  -42.3217 H         1 UNK         0.0600 
    157 H157       -1.4170  -16.6570  -42.2244 H         1 UNK         0.0600 
    158 H158       -1.1903  -17.9170  -41.0105 H         1 UNK         0.0600 
    159 H159        0.9933  -17.0262  -41.8906 H         1 UNK         0.3000 
    160 H160        4.2904  -18.0742  -42.5372 H         1 UNK         0.0600 
    161 H161        3.0312  -15.3594  -43.1931 H         1 UNK         0.0600 
    162 H162        3.9994  -16.3274  -44.2975 H         1 UNK         0.0600 
    163 H163        4.7364  -15.6519  -42.8517 H         1 UNK         0.0600 
    164 H164        3.2797  -16.0536  -40.8130 H         1 UNK         0.3000 
    165 H165        2.2388  -18.0998  -38.1079 H         1 UNK         0.0600 
    166 H166        3.8943  -16.6956  -36.8840 H         1 UNK         0.0600 
    167 H167        4.7295  -16.3417  -38.3962 H         1 UNK         0.0600 
    168 H168        4.6715  -17.9866  -37.7871 H         1 UNK         0.0600 
    169 H169        0.9681  -16.3376  -38.3103 H         1 UNK         0.3000 
    170 H170        0.0241  -14.5131  -39.0159 H         1 UNK         0.0600 
    171 H171        1.1073  -13.5195  -36.9859 H         1 UNK         0.0600 
    172 H172        1.9560  -12.3567  -37.9974 H         1 UNK         0.0600 
    173 H173        0.1963  -12.3119  -37.8784 H         1 UNK         0.0600 
    174 H174        0.9735  -12.1724  -40.2723 H         1 UNK         0.3000 
    175 H175        0.0106  -11.9091  -42.5251 H         1 UNK         0.0600 
    176 H176        2.8538  -12.8772  -43.2154 H         1 UNK         0.0600 
    177 H177        2.1177  -11.3866  -43.7984 H         1 UNK         0.0600 
    178 H178        2.4718  -11.5795  -42.0908 H         1 UNK         0.0600 
    179 H179        0.4710  -14.3955  -43.9767 H         1 UNK         0.3000 
    180 H180       -1.1773  -14.6469  -45.7719 H         1 UNK         0.0600 
    181 H181       -1.0482  -12.3213  -47.7591 H         1 UNK         0.0600 
    182 H182       -2.4559  -12.7690  -46.8021 H         1 UNK         0.0600 
    183 H183       -1.8390  -13.8763  -48.0153 H         1 UNK         0.0600 
    184 H184        0.7949  -13.9142  -47.7612 H         1 UNK         0.3000 
    185 H185        3.5057  -15.3289  -46.6105 H         1 UNK         0.0600 
    186 H186        2.8027  -17.6443  -46.3564 H         1 UNK         0.0600 
    187 H187        1.8154  -17.5770  -47.8070 H         1 UNK         0.0600 
    188 H188        3.5728  -17.4701  -47.9240 H         1 UNK         0.0600 
    189 H189        2.0983  -15.5003  -49.2187 H         1 UNK         0.3000 
    190 H190       -1.7135  -21.9518  -44.8327 H         1 UNK         0.3000 
    191 H191       -4.0684  -23.4583  -45.4209 H         1 UNK         0.0600 
    192 H192       -3.4244  -24.7714  -43.4167 H         1 UNK         0.0600 
    193 H193       -3.2529  -23.0498  -43.1070 H         1 UNK         0.0600 
    194 H194       -1.8272  -24.0381  -43.4110 H         1 UNK         0.0600 
    195 H195       -0.5735  -24.2619  -45.7076 H         1 UNK         0.3000 
    196 H196       -0.9052  -26.8980  -46.7083 H         1 UNK         0.0600 
    197 H197        1.4336  -24.9550  -47.0810 H         1 UNK         0.0600 
    198 H198        1.2109  -26.0425  -45.7119 H         1 UNK         0.0600 
    199 H199        1.4899  -26.6955  -47.3198 H         1 UNK         0.0600 
    200 H200       -0.5423  -23.7668  -48.4281 H         1 UNK         0.3000 
    201 H201       -0.6608  -24.8658  -51.0776 H         1 UNK         0.0600 
    202 H202       -1.1583  -22.0063  -50.0881 H         1 UNK         0.0600 
    203 H203       -0.8010  -22.4886  -51.7438 H         1 UNK         0.0600 
    204 H204        0.4184  -22.6795  -50.5014 H         1 UNK         0.0600 
    205 H205       -3.1002  -24.4530  -48.7660 H         1 UNK         0.3000 
    206 H206       -5.2914  -24.6302  -48.6770 H         1 UNK         0.0600 
    207 H207       -4.9956  -26.6817  -50.0331 H         1 UNK         0.0600 
    208 H208       -5.1583  -25.7591  -51.5230 H         1 UNK         0.0600 
    209 H209       -6.5172  -25.8971  -50.4194 H         1 UNK         0.0600 
    210 H210       -4.7363  -22.1914  -48.7242 H         1 UNK         0.3000 
    211 H211       -5.6726  -20.4662  -50.7056 H         1 UNK         0.0600 
    212 H212       -4.4164  -19.7127  -48.7350 H         1 UNK         0.0600 
    213 H213       -5.7336  -20.1741  -47.6562 H         1 UNK         0.0600 
    214 H214       -5.9415  -18.8449  -48.7940 H         1 UNK         0.0600 
    215 H215       -7.5507  -19.4559  -51.1735 H         1 UNK         0.3000 
    216 H216       -9.6433  -19.1711  -51.6991 H         1 UNK         0.0600 
    217 H217      -10.4725  -20.4537  -49.0456 H         1 UNK         0.0600 
    218 H218      -11.4780  -19.4695  -50.0945 H         1 UNK         0.0600 
    219 H219      -10.0953  -18.7480  -49.2860 H         1 UNK         0.0600 
    220 H220       -9.0773  -22.4732  -50.4999 H         1 UNK         0.3000 
    221 H221      -11.1495  -23.7373  -52.0448 H         1 UNK         0.0600 
    222 H222      -10.2735  -24.7678  -49.9944 H         1 UNK         0.0600 
    223 H223       -8.6532  -24.8665  -50.6757 H         1 UNK         0.0600 
    224 H224       -9.9558  -25.8399  -51.3500 H         1 UNK         0.0600 
    225 H225       -7.5662  -23.6235  -52.4680 H         1 UNK         0.3000 
    226 H226       -7.8476  -24.3083  -55.3678 H         1 UNK         0.0600 
    227 H227       -5.4065  -24.4938  -53.5259 H         1 UNK         0.0600 
    228 H228       -6.4651  -25.8532  -53.9067 H         1 UNK         0.0600 
    229 H229       -5.5292  -25.0808  -55.1772 H         1 UNK         0.0600 
    230 H230       -7.7220  -21.6752  -53.4600 H         1 UNK         0.3000 
    231 H231       -7.2654  -19.5246  -53.6465 H         1 UNK         0.0600 
    232 H232       -8.1850  -19.7386  -55.9693 H         1 UNK         0.0600 
    233 H233       -6.5473  -19.9597  -56.5860 H         1 UNK         0.0600 
    234 H234       -7.0054  -18.4476  -55.8202 H         1 UNK         0.0600 
    235 H235       -5.1560  -21.4668  -52.9275 H         1 UNK         0.3000 
    236 H236       -3.1510  -21.4522  -52.0424 H         1 UNK         0.0600 
    237 H237       -3.8450  -19.1895  -51.1093 H         1 UNK         0.0600 
    238 H238       -2.1167  -19.3962  -51.2666 H         1 UNK         0.0600 
    239 H239       -2.9958  -18.4185  -52.4375 H         1 UNK         0.0600 
    240 H240       -0.9443  -19.5067  -52.8121 H         1 UNK         0.3000 
    241 H241        0.4020  -21.1868  -54.6347 H         1 UNK         0.0600 
    242 H242        0.8469  -21.0343  -56.8873 H         1 UNK         0.3800 
    243 H243        0.1647  -19.7866  -57.8901 H         1 UNK         0.3800 
    244 H244        1.1294  -18.3516  -53.7410 H         1 UNK         0.0800 
    245 H245        2.2198  -19.4789  -54.5076 H         1 UNK         0.0800 
    246 H246        2.8751  -18.9960  -50.4108 H         1 UNK         0.0800 
    247 H247        3.1727  -18.1704  -51.9188 H         1 UNK         0.0800 
@<TRIPOS>BOND
     1    1    2 1    
     2    1  127 1    
     3    1  128 1    
     4    1  129 1    
     5    2    3 2    
     6    2    4 am   BACKBONE|DICT|INTERRES
     7    4    5 1    
     8    4  130 1    
     9    5    6 1    
    10    5   65 1    
    11    5  131 1    
    12    6    7 1    
    13    6  132 1    
    14    6  133 1    
    15    7    8 1    
    16    8    9 1    
    17    8  134 1    
    18    8  135 1    
    19    9   10 ar   
    20    9   14 ar   
    21   10   11 ar   
    22   10  136 1    
    23   11   12 ar   
    24   11  126 1    
    25   12   13 ar   
    26   12  137 1    
    27   13   14 ar   
    28   13   15 1    
    29   14  138 1    
    30   15   16 1    
    31   15  139 1    
    32   15  140 1    
    33   16   17 1    
    34   17   18 1    
    35   17  141 1    
    36   17  142 1    
    37   18   19 1    
    38   18   67 1    
    39   18  143 1    
    40   19   20 am   BACKBONE|DICT|INTERRES
    41   19  144 1    
    42   20   21 2    
    43   20   22 1    
    44   22   23 1    
    45   22   24 1    
    46   22  145 1    
    47   23  146 1    
    48   23  147 1    
    49   23  148 1    
    50   24   25 am   BACKBONE|DICT|INTERRES
    51   24  149 1    
    52   25   26 2    
    53   25   27 1    
    54   27   28 1    
    55   27   29 1    
    56   27  150 1    
    57   28  151 1    
    58   28  152 1    
    59   28  153 1    
    60   29   30 am   BACKBONE|DICT|INTERRES
    61   29  154 1    
    62   30   31 2    
    63   30   32 1    
    64   32   33 1    
    65   32   34 1    
    66   32  155 1    
    67   33  156 1    
    68   33  157 1    
    69   33  158 1    
    70   34   35 am   BACKBONE|DICT|INTERRES
    71   34  159 1    
    72   35   36 2    
    73   35   37 1    
    74   37   38 1    
    75   37   39 1    
    76   37  160 1    
    77   38  161 1    
    78   38  162 1    
    79   38  163 1    
    80   39   40 am   BACKBONE|DICT|INTERRES
    81   39  164 1    
    82   40   41 2    
    83   40   42 1    
    84   42   43 1    
    85   42   44 1    
    86   42  165 1    
    87   43  166 1    
    88   43  167 1    
    89   43  168 1    
    90   44   45 am   BACKBONE|DICT|INTERRES
    91   44  169 1    
    92   45   46 2    
    93   45   47 1    
    94   47   48 1    
    95   47   49 1    
    96   47  170 1    
    97   48  171 1    
    98   48  172 1    
    99   48  173 1    
   100   49   50 am   BACKBONE|DICT|INTERRES
   101   49  174 1    
   102   50   51 2    
   103   50   52 1    
   104   52   53 1    
   105   52   54 1    
   106   52  175 1    
   107   53  176 1    
   108   53  177 1    
   109   53  178 1    
   110   54   55 am   BACKBONE|DICT|INTERRES
   111   54  179 1    
   112   55   56 2    
   113   55   57 1    
   114   57   58 1    
   115   57   59 1    
   116   57  180 1    
   117   58  181 1    
   118   58  182 1    
   119   58  183 1    
   120   59   60 am   BACKBONE|DICT|INTERRES
   121   59  184 1    
   122   60   61 2    
   123   60   62 1    
   124   62   63 1    
   125   62   64 1    
   126   62  185 1    
   127   63  186 1    
   128   63  187 1    
   129   63  188 1    
   130   64   65 am   BACKBONE|DICT|INTERRES
   131   64  189 1    
   132   65   66 2    
   133   67   68 2    
   134   67   69 am   BACKBONE|DICT|INTERRES
   135   69   70 1    
   136   69  190 1    
   137   70   71 1    
   138   70   72 1    
   139   70  191 1    
   140   71  192 1    
   141   71  193 1    
   142   71  194 1    
   143   72   73 2    
   144   72   74 am   BACKBONE|DICT|INTERRES
   145   74   75 1    
   146   74  195 1    
   147   75   76 1    
   148   75   77 1    
   149   75  196 1    
   150   76  197 1    
   151   76  198 1    
   152   76  199 1    
   153   77   78 2    
   154   77   79 am   BACKBONE|DICT|INTERRES
   155   79   80 1    
   156   79  200 1    
   157   80   81 1    
   158   80   82 1    
   159   80  201 1    
   160   81  202 1    
   161   81  203 1    
   162   81  204 1    
   163   82   83 2    
   164   82   84 am   BACKBONE|DICT|INTERRES
   165   84   85 1    
   166   84  205 1    
   167   85   86 1    
   168   85   87 1    
   169   85  206 1    
   170   86  207 1    
   171   86  208 1    
   172   86  209 1    
   173   87   88 2    
   174   87   89 am   BACKBONE|DICT|INTERRES
   175   89   90 1    
   176   89  210 1    
   177   90   91 1    
   178   90   92 1    
   179   90  211 1    
   180   91  212 1    
   181   91  213 1    
   182   91  214 1    
   183   92   93 2    
   184   92   94 am   BACKBONE|DICT|INTERRES
   185   94   95 1    
   186   94  215 1    
   187   95   96 1    
   188   95   97 1    
   189   95  216 1    
   190   96  217 1    
   191   96  218 1    
   192   96  219 1    
   193   97   98 2    
   194   97   99 am   BACKBONE|DICT|INTERRES
   195   99  100 1    
   196   99  220 1    
   197  100  101 1    
   198  100  102 1    
   199  100  221 1    
   200  101  222 1    
   201  101  223 1    
   202  101  224 1    
   203  102  103 2    
   204  102  104 am   BACKBONE|DICT|INTERRES
   205  104  105 1    
   206  104  225 1    
   207  105  106 1    
   208  105  107 1    
   209  105  226 1    
   210  106  227 1    
   211  106  228 1    
   212  106  229 1    
   213  107  108 2    
   214  107  109 am   BACKBONE|DICT|INTERRES
   215  109  110 1    
   216  109  230 1    
   217  110  111 1    
   218  110  112 1    
   219  110  231 1    
   220  111  232 1    
   221  111  233 1    
   222  111  234 1    
   223  112  113 2    
   224  112  114 am   BACKBONE|DICT|INTERRES
   225  114  115 1    
   226  114  235 1    
   227  115  116 1    
   228  115  117 1    
   229  115  236 1    
   230  116  237 1    
   231  116  238 1    
   232  116  239 1    
   233  117  118 2    
   234  117  119 am   BACKBONE|DICT|INTERRES
   235  119  120 1    
   236  119  240 1    
   237  120  121 1    
   238  120  124 1    
   239  120  241 1    
   240  121  122 am   BACKBONE|DICT|INTERRES
   241  121  123 2    
   242  122  242 1    
   243  122  243 1    
   244  124  125 1    
   245  124  244 1    
   246  124  245 1    
   247  125  126 1    
   248  126  246 1    
   249  126  247 1    
@<TRIPOS>SUBSTRUCTURE
     1 UNK         1 GROUP             0       ****    0 ROOT    
