@<TRIPOS>MOLECULE
3R540
247   249    1
SMALL
USER_CHARGES


@<TRIPOS>ATOM
      1 CA          2.6850  -13.4833  -43.3791 C.3       0 UNK        -0.1800 
      2 C           2.0874  -13.0441  -44.7057 C.2       0 UNK         0.5000 
      3 O           1.1581  -12.2373  -44.7220 O.2       0 UNK        -0.5000 
      4 N           2.6089  -13.5633  -45.8262 N.am      1 UNK        -0.5000 
      5 CA          2.1837  -13.2006  -47.1876 C.3       1 UNK         0.1400 
      6 C6          2.8171  -14.1035  -48.2708 C.3       23 UNK        -0.0398 
      7 S7          2.2966  -15.8455  -48.1309 S.3       23 UNK        -0.2404 
      8 C8          3.7879  -16.6967  -48.7417 C.3       23 UNK        -0.0205 
      9 C9          3.4489  -17.9729  -49.4982 C.ar      23 UNK        -0.0193 
     10 C10         2.8019  -17.8903  -50.7340 C.ar      23 UNK        -0.1150 
     11 C11         2.5146  -19.0444  -51.4644 C.ar      23 UNK        -0.0193 
     12 C12         2.8875  -20.2896  -50.9504 C.ar      23 UNK        -0.1150 
     13 C13         3.5571  -20.3959  -49.7265 C.ar      23 UNK        -0.0193 
     14 C14         3.8269  -19.2252  -49.0004 C.ar      23 UNK        -0.1150 
     15 C15         4.0028  -21.7923  -49.2754 C.3       23 UNK        -0.0205 
     16 S16         4.6174  -21.9448  -47.5599 S.3       23 UNK        -0.2404 
     17 C17         3.0670  -21.7269  -46.6285 C.3       23 UNK        -0.0398 
     18 CA          2.5203  -22.9842  -45.9112 C.3       11 UNK         0.1400 
     19 N           1.3572  -22.6163  -45.1004 N.am      11 UNK        -0.5000 
     20 C           0.6396  -23.4090  -44.2933 C.2       10 UNK         0.5000 
     21 O           0.8457  -24.6133  -44.1438 O.2       10 UNK        -0.5000 
     22 CA         -0.5134  -22.7316  -43.5337 C.3       10 UNK         0.1400 
     23 CB          0.0168  -21.9987  -42.2915 C.3       10 UNK        -0.1800 
     24 N          -1.2127  -21.7754  -44.3919 N.am      10 UNK        -0.5000 
     25 C          -2.3197  -22.0556  -45.0913 C.2       9 UNK         0.5000 
     26 O          -2.9249  -23.1240  -45.0173 O.2       9 UNK        -0.5000 
     27 CA         -2.8439  -20.9684  -46.0487 C.3       9 UNK         0.1400 
     28 CB         -3.9213  -20.1129  -45.3666 C.3       9 UNK        -0.1800 
     29 N          -1.8124  -20.0872  -46.5900 N.am      9 UNK        -0.5000 
     30 C          -0.7978  -20.4759  -47.3746 C.2       8 UNK         0.5000 
     31 O          -0.5709  -21.6455  -47.6864 O.2       8 UNK        -0.5000 
     32 CA          0.1609  -19.3598  -47.8293 C.3       8 UNK         0.1400 
     33 CB         -0.4640  -18.5651  -48.9839 C.3       8 UNK        -0.1800 
     34 N           0.5266  -18.4170  -46.7700 N.am      8 UNK        -0.5000 
     35 C           0.8795  -18.6865  -45.5040 C.2       7 UNK         0.5000 
     36 O           0.9748  -19.8211  -45.0364 O.2       7 UNK        -0.5000 
     37 CA          1.1150  -17.4744  -44.5849 C.3       7 UNK         0.1400 
     38 CB          2.6167  -17.1753  -44.4684 C.3       7 UNK        -0.1800 
     39 N           0.4008  -16.2647  -45.0121 N.am      7 UNK        -0.5000 
     40 C          -0.9342  -16.1464  -45.0538 C.2       6 UNK         0.5000 
     41 O          -1.7136  -17.0577  -44.7630 O.2       6 UNK        -0.5000 
     42 CA         -1.4841  -14.8005  -45.5470 C.3       6 UNK         0.1400 
     43 CB         -1.5952  -14.8043  -47.0800 C.3       6 UNK        -0.1800 
     44 N          -2.8178  -14.5983  -44.9817 N.am      6 UNK        -0.5000 
     45 C          -3.2355  -13.7214  -44.0551 C.2       5 UNK         0.5000 
     46 O          -4.3582  -13.8242  -43.5631 O.2       5 UNK        -0.5000 
     47 CA         -2.3479  -12.5423  -43.5905 C.3       5 UNK         0.1400 
     48 CB         -1.2896  -12.9908  -42.5679 C.3       5 UNK        -0.1800 
     49 N          -1.7216  -11.7799  -44.6705 N.am      5 UNK        -0.5000 
     50 C          -2.3770  -11.0959  -45.6197 C.2       4 UNK         0.5000 
     51 O          -3.6055  -11.0318  -45.6909 O.2       4 UNK        -0.5000 
     52 CA         -1.5008  -10.3493  -46.6497 C.3       4 UNK         0.1400 
     53 CB         -2.2678   -9.2619  -47.4303 C.3       4 UNK        -0.1800 
     54 N          -0.2747   -9.8041  -46.0585 N.am      4 UNK        -0.5000 
     55 C          -0.1686   -8.9014  -45.0695 C.2       3 UNK         0.5000 
     56 O          -1.1288   -8.3115  -44.5728 O.2       3 UNK        -0.5000 
     57 CA          1.2448   -8.6293  -44.5141 C.3       3 UNK         0.1400 
     58 CB          1.3425   -9.0869  -43.0489 C.3       3 UNK        -0.1800 
     59 N           2.2867   -9.3144  -45.2805 N.am      3 UNK        -0.5000 
     60 C           2.9320   -8.8009  -46.3363 C.2       2 UNK         0.5000 
     61 O           2.7725   -7.6499  -46.7433 O.2       2 UNK        -0.5000 
     62 CA          3.9046   -9.7417  -47.0769 C.3       2 UNK         0.1400 
     63 CB          5.3376   -9.5495  -46.5578 C.3       2 UNK        -0.1800 
     64 N           3.5414  -11.1579  -46.9624 N.am      2 UNK        -0.5000 
     65 C           2.4502  -11.7145  -47.5094 C.2       1 UNK         0.5000 
     66 O           1.6404  -11.0917  -48.1952 O.2       1 UNK        -0.5000 
     67 C           2.2286  -24.1456  -46.8876 C.2       11 UNK         0.5000 
     68 O           3.0467  -25.0606  -46.9959 O.2       11 UNK        -0.5000 
     69 N           1.0619  -24.1123  -47.5444 N.am      12 UNK        -0.5000 
     70 CA          0.5863  -25.1680  -48.4353 C.3       12 UNK         0.1400 
     71 CB          0.7724  -24.7411  -49.9010 C.3       12 UNK        -0.1800 
     72 C          -0.8602  -25.5348  -48.0724 C.2       12 UNK         0.5000 
     73 O          -1.7438  -25.5312  -48.9326 O.2       12 UNK        -0.5000 
     74 N          -1.0700  -25.8655  -46.7891 N.am      13 UNK        -0.5000 
     75 CA         -2.3479  -26.2876  -46.2044 C.3       13 UNK         0.1400 
     76 CB         -2.1360  -26.6520  -44.7276 C.3       13 UNK        -0.1800 
     77 C          -3.0228  -27.4485  -46.9584 C.2       13 UNK         0.5000 
     78 O          -4.2228  -27.3868  -47.2311 O.2       13 UNK        -0.5000 
     79 N          -2.2159  -28.4517  -47.3309 N.am      14 UNK        -0.5000 
     80 CA         -2.6279  -29.6459  -48.0713 C.3       14 UNK         0.1400 
     81 CB         -1.4693  -30.6547  -48.0633 C.3       14 UNK        -0.1800 
     82 C          -3.0887  -29.3705  -49.5170 C.2       14 UNK         0.5000 
     83 O          -3.8174  -30.1888  -50.0782 O.2       14 UNK        -0.5000 
     84 N          -2.6905  -28.2265  -50.0901 N.am      15 UNK        -0.5000 
     85 CA         -3.0712  -27.7757  -51.4298 C.3       15 UNK         0.1400 
     86 CB         -1.8706  -27.0579  -52.0729 C.3       15 UNK        -0.1800 
     87 C          -4.3270  -26.8823  -51.3770 C.2       15 UNK         0.5000 
     88 O          -4.3823  -25.8619  -52.0643 O.2       15 UNK        -0.5000 
     89 N          -5.3006  -27.2594  -50.5335 N.am      16 UNK        -0.5000 
     90 CA         -6.5471  -26.5416  -50.2418 C.3       16 UNK         0.1400 
     91 CB         -7.4911  -26.5757  -51.4621 C.3       16 UNK        -0.1800 
     92 C          -6.2819  -25.1129  -49.7249 C.2       16 UNK         0.5000 
     93 O          -6.8753  -24.1517  -50.2203 O.2       16 UNK        -0.5000 
     94 N          -5.3448  -25.0057  -48.7693 N.am      17 UNK        -0.5000 
     95 CA         -4.8237  -23.7588  -48.2005 C.3       17 UNK         0.1400 
     96 CB         -5.9081  -23.0687  -47.3443 C.3       17 UNK        -0.1800 
     97 C          -4.2216  -22.8386  -49.2806 C.2       17 UNK         0.5000 
     98 O          -4.5710  -21.6620  -49.3421 O.2       17 UNK        -0.5000 
     99 N          -3.3637  -23.4101  -50.1380 N.am      18 UNK        -0.5000 
    100 CA        -2.7592  -22.7964  -51.3272 C.3       18 UNK         0.1400 
    101 CB        -1.7570  -21.7017  -50.9184 C.3       18 UNK        -0.1800 
    102 C         -3.8098  -22.2742  -52.3319 C.2       18 UNK         0.5000 
    103 O         -3.6621  -21.1723  -52.8620 O.2       18 UNK        -0.5000 
    104 N         -4.8652  -23.0729  -52.5470 N.am      19 UNK        -0.5000 
    105 CA        -6.0693  -22.7656  -53.3243 C.3       19 UNK         0.1400 
    106 CB        -5.7444  -22.7213  -54.8317 C.3       19 UNK        -0.1800 
    107 C         -6.7858  -21.4958  -52.8130 C.2       19 UNK         0.5000 
    108 O         -7.0696  -20.5854  -53.5939 O.2       19 UNK        -0.5000 
    109 N         -7.0500  -21.4717  -51.4982 N.am      20 UNK        -0.5000 
    110 CA        -7.6370  -20.3694  -50.7278 C.3       20 UNK         0.1400 
    111 CB        -9.0962  -20.1081  -51.1578 C.3       20 UNK        -0.1800 
    112 C         -6.7561  -19.0985  -50.7292 C.2       20 UNK         0.5000 
    113 O         -7.2433  -18.0025  -51.0141 O.2       20 UNK        -0.5000 
    114 N         -5.4824  -19.2956  -50.3647 N.am      21 UNK        -0.5000 
    115 CA        -4.3805  -18.3445  -50.2067 C.3       21 UNK         0.1400 
    116 CB        -4.7327  -17.2377  -49.1937 C.3       21 UNK        -0.1800 
    117 C         -3.8418  -17.7543  -51.5249 C.2       21 UNK         0.5000 
    118 O         -4.5768  -17.5753  -52.4975 O.2       21 UNK        -0.5000 
    119 N         -2.5442  -17.4253  -51.5053 N.am      22 UNK        -0.5000 
    120 CA        -1.8083  -16.7978  -52.6169 C.3       22 UNK         0.1400 
    121 C         -2.0379  -15.2626  -52.7544 C.2       22 UNK         0.5000 
    122 N         -2.7330  -14.6015  -51.8362 N.am      22 UNK        -0.7600 
    123 O         -1.5819  -14.6582  -53.7212 O.2       22 UNK        -0.5000 
    124 C124       -0.2927  -17.1247  -52.5492 C.3       23 UNK        -0.0398 
    125 S125        0.0368  -18.9108  -52.7201 S.3       23 UNK        -0.2404 
    126 C126        1.8521  -18.9469  -52.8316 C.3       23 UNK        -0.0205 
    127 H127        1.9742  -14.1048  -42.8351 H         1 UNK         0.0600 
    128 H128        2.9144  -12.6113  -42.7668 H         1 UNK         0.0600 
    129 H129        3.6052  -14.0507  -43.5185 H         1 UNK         0.0600 
    130 H130        3.3792  -14.2143  -45.7651 H         1 UNK         0.3000 
    131 H131        1.1011  -13.3325  -47.2345 H         1 UNK         0.0600 
    132 H132        2.5349  -13.7649  -49.2697 H         1 UNK         0.0800 
    133 H133        3.9055  -14.0392  -48.2212 H         1 UNK         0.0800 
    134 H134        4.3426  -16.0424  -49.4157 H         1 UNK         0.0800 
    135 H135        4.4494  -16.9034  -47.8992 H         1 UNK         0.0800 
    136 H136        2.5312  -16.9220  -51.1304 H         1 UNK         0.1150 
    137 H137        2.6787  -21.1828  -51.5229 H         1 UNK         0.1150 
    138 H138        4.3519  -19.2742  -48.0581 H         1 UNK         0.1150 
    139 H139        3.1792  -22.4949  -49.4116 H         1 UNK         0.0800 
    140 H140        4.7982  -22.1230  -49.9444 H         1 UNK         0.0800 
    141 H141        2.3047  -21.3341  -47.2955 H         1 UNK         0.0800 
    142 H142        3.2546  -20.9416  -45.8952 H         1 UNK         0.0800 
    143 H143        3.2865  -23.3336  -45.2163 H         1 UNK         0.0600 
    144 H144        1.1177  -21.6280  -45.1198 H         1 UNK         0.3000 
    145 H145       -1.2007  -23.5101  -43.1963 H         1 UNK         0.0600 
    146 H146       -0.7987  -21.5550  -41.7202 H         1 UNK         0.0600 
    147 H147        0.5424  -22.6864  -41.6277 H         1 UNK         0.0600 
    148 H148        0.7120  -21.2009  -42.5562 H         1 UNK         0.0600 
    149 H149       -0.7530  -20.8861  -44.5467 H         1 UNK         0.3000 
    150 H150       -3.2977  -21.4811  -46.8951 H         1 UNK         0.0600 
    151 H151       -4.7104  -20.7363  -44.9443 H         1 UNK         0.0600 
    152 H152       -4.3910  -19.4325  -46.0773 H         1 UNK         0.0600 
    153 H153       -3.5041  -19.5158  -44.5545 H         1 UNK         0.0600 
    154 H154       -1.8739  -19.1120  -46.3309 H         1 UNK         0.3000 
    155 H155        1.0738  -19.8166  -48.2048 H         1 UNK         0.0600 
    156 H156       -0.7044  -19.2231  -49.8175 H         1 UNK         0.0600 
    157 H157        0.2267  -17.8116  -49.3605 H         1 UNK         0.0600 
    158 H158       -1.3791  -18.0583  -48.6759 H         1 UNK         0.0600 
    159 H159        0.5305  -17.4449  -47.0412 H         1 UNK         0.3000 
    160 H160        0.7458  -17.7477  -43.5941 H         1 UNK         0.0600 
    161 H161        3.0407  -16.8418  -45.4153 H         1 UNK         0.0600 
    162 H162        3.1684  -18.0646  -44.1603 H         1 UNK         0.0600 
    163 H163        2.8080  -16.4069  -43.7208 H         1 UNK         0.0600 
    164 H164        0.9756  -15.4911  -45.3104 H         1 UNK         0.3000 
    165 H165       -0.7827  -14.0265  -45.2511 H         1 UNK         0.0600 
    166 H166       -1.9567  -13.8444  -47.4493 H         1 UNK         0.0600 
    167 H167       -0.6296  -14.9903  -47.5500 H         1 UNK         0.0600 
    168 H168       -2.2808  -15.5761  -47.4306 H         1 UNK         0.0600 
    169 H169       -3.4492  -15.3569  -45.1943 H         1 UNK         0.3000 
    170 H170       -3.0073  -11.8434  -43.0714 H         1 UNK         0.0600 
    171 H171       -0.5682  -13.6871  -42.9922 H         1 UNK         0.0600 
    172 H172       -0.7352  -12.1372  -42.1773 H         1 UNK         0.0600 
    173 H173       -1.7588  -13.4885  -41.7184 H         1 UNK         0.0600 
    174 H174       -0.7053  -11.7821  -44.6905 H         1 UNK         0.3000 
    175 H175       -1.1786  -11.1028  -47.3698 H         1 UNK         0.0600 
    176 H176       -1.6191   -8.7641  -48.1511 H         1 UNK         0.0600 
    177 H177       -2.6808   -8.5007  -46.7680 H         1 UNK         0.0600 
    178 H178       -3.0989   -9.6947  -47.9883 H         1 UNK         0.0600 
    179 H179        0.5819  -10.2167  -46.4022 H         1 UNK         0.3000 
    180 H180        1.4103   -7.5504  -44.5466 H         1 UNK         0.0600 
    181 H181        2.3306   -8.8822  -42.6367 H         1 UNK         0.0600 
    182 H182        1.1503  -10.1555  -42.9455 H         1 UNK         0.0600 
    183 H183        0.6172   -8.5629  -42.4253 H         1 UNK         0.0600 
    184 H184        2.4552  -10.2790  -45.0312 H         1 UNK         0.3000 
    185 H185        3.8840   -9.4702  -48.1345 H         1 UNK         0.0600 
    186 H186        5.6511   -8.5089  -46.6526 H         1 UNK         0.0600 
    187 H187        5.4254   -9.8241  -45.5059 H         1 UNK         0.0600 
    188 H188        6.0469  -10.1535  -47.1239 H         1 UNK         0.0600 
    189 H189        4.1497  -11.7371  -46.4020 H         1 UNK         0.3000 
    190 H190        0.4353  -23.3209  -47.4149 H         1 UNK         0.3000 
    191 H191        1.1648  -26.0818  -48.2861 H         1 UNK         0.0600 
    192 H192        0.4676  -25.5363  -50.5811 H         1 UNK         0.0600 
    193 H193        0.1865  -23.8576  -50.1412 H         1 UNK         0.0600 
    194 H194        1.8173  -24.5179  -50.1155 H         1 UNK         0.0600 
    195 H195       -0.2877  -25.8092  -46.1509 H         1 UNK         0.3000 
    196 H196       -3.0268  -25.4393  -46.2366 H         1 UNK         0.0600 
    197 H197       -3.0700  -26.9755  -44.2662 H         1 UNK         0.0600 
    198 H198       -1.7781  -25.7932  -44.1600 H         1 UNK         0.0600 
    199 H199       -1.4117  -27.4585  -44.6084 H         1 UNK         0.0600 
    200 H200       -1.2406  -28.3964  -47.0765 H         1 UNK         0.3000 
    201 H201       -3.4729  -30.0912  -47.5420 H         1 UNK         0.0600 
    202 H202       -1.1889  -30.9266  -47.0455 H         1 UNK         0.0600 
    203 H203       -0.5849  -30.2551  -48.5613 H         1 UNK         0.0600 
    204 H204       -1.7478  -31.5754  -48.5779 H         1 UNK         0.0600 
    205 H205       -2.1624  -27.5622  -49.5377 H         1 UNK         0.3000 
    206 H206       -3.3149  -28.6366  -52.0555 H         1 UNK         0.0600 
    207 H207       -0.9802  -27.6865  -52.0620 H         1 UNK         0.0600 
    208 H208       -2.0774  -26.8070  -53.1139 H         1 UNK         0.0600 
    209 H209       -1.6336  -26.1289  -51.5550 H         1 UNK         0.0600 
    210 H210       -5.1494  -28.1061  -50.0026 H         1 UNK         0.3000 
    211 H211       -7.0355  -27.0785  -49.4274 H         1 UNK         0.0600 
    212 H212       -7.0802  -26.0281  -52.3107 H         1 UNK         0.0600 
    213 H213       -8.4562  -26.1284  -51.2215 H         1 UNK         0.0600 
    214 H214       -7.6799  -27.5994  -51.7847 H         1 UNK         0.0600 
    215 H215       -4.9182  -25.8596  -48.4244 H         1 UNK         0.3000 
    216 H216       -3.9979  -24.0193  -47.5436 H         1 UNK         0.0600 
    217 H217       -5.5185  -22.1817  -46.8475 H         1 UNK         0.0600 
    218 H218       -6.2758  -23.7372  -46.5660 H         1 UNK         0.0600 
    219 H219       -6.7615  -22.7511  -47.9439 H         1 UNK         0.0600 
    220 H220       -3.0931  -24.3718  -49.9623 H         1 UNK         0.3000 
    221 H221       -2.2051  -23.5879  -51.8336 H         1 UNK         0.0600 
    222 H222       -2.2638  -20.8245  -50.5186 H         1 UNK         0.0600 
    223 H223       -1.0618  -22.0540  -50.1623 H         1 UNK         0.0600 
    224 H224       -1.1667  -21.3822  -51.7760 H         1 UNK         0.0600 
    225 H225       -4.8530  -23.9908  -52.1097 H         1 UNK         0.3000 
    226 H226       -6.7588  -23.5949  -53.1606 H         1 UNK         0.0600 
    227 H227       -5.2705  -23.6469  -55.1585 H         1 UNK         0.0600 
    228 H228       -6.6524  -22.5951  -55.4223 H         1 UNK         0.0600 
    229 H229       -5.0756  -21.8964  -55.0792 H         1 UNK         0.0600 
    230 H230       -6.7935  -22.2934  -50.9572 H         1 UNK         0.3000 
    231 H231       -7.6644  -20.7142  -49.6929 H         1 UNK         0.0600 
    232 H232       -9.1592  -19.7163  -52.1732 H         1 UNK         0.0600 
    233 H233       -9.5705  -19.3802  -50.4987 H         1 UNK         0.0600 
    234 H234       -9.6897  -21.0212  -51.1125 H         1 UNK         0.0600 
    235 H235       -5.2158  -20.2540  -50.1368 H         1 UNK         0.3000 
    236 H236       -3.5747  -18.9358  -49.7698 H         1 UNK         0.0600 
    237 H237       -5.0679  -17.6620  -48.2471 H         1 UNK         0.0600 
    238 H238       -3.8650  -16.6141  -48.9788 H         1 UNK         0.0600 
    239 H239       -5.5188  -16.5803  -49.5655 H         1 UNK         0.0600 
    240 H240       -2.0020  -17.6028  -50.6747 H         1 UNK         0.3000 
    241 H241       -2.1883  -17.2273  -53.5460 H         1 UNK         0.0600 
    242 H242       -3.1317  -15.0817  -51.0473 H         1 UNK         0.3800 
    243 H243       -2.8770  -13.6100  -51.9457 H         1 UNK         0.3800 
    244 H244        0.2451  -16.6134  -53.3496 H         1 UNK         0.0800 
    245 H245        0.1353  -16.7666  -51.6121 H         1 UNK         0.0800 
    246 H246        2.1414  -19.8047  -53.4405 H         1 UNK         0.0800 
    247 H247        2.2146  -18.0676  -53.3660 H         1 UNK         0.0800 
@<TRIPOS>BOND
     1    1    2 1    
     2    1  127 1    
     3    1  128 1    
     4    1  129 1    
     5    2    3 2    
     6    2    4 am   BACKBONE|DICT|INTERRES
     7    4    5 1    
     8    4  130 1    
     9    5    6 1    
    10    5   65 1    
    11    5  131 1    
    12    6    7 1    
    13    6  132 1    
    14    6  133 1    
    15    7    8 1    
    16    8    9 1    
    17    8  134 1    
    18    8  135 1    
    19    9   10 ar   
    20    9   14 ar   
    21   10   11 ar   
    22   10  136 1    
    23   11   12 ar   
    24   11  126 1    
    25   12   13 ar   
    26   12  137 1    
    27   13   14 ar   
    28   13   15 1    
    29   14  138 1    
    30   15   16 1    
    31   15  139 1    
    32   15  140 1    
    33   16   17 1    
    34   17   18 1    
    35   17  141 1    
    36   17  142 1    
    37   18   19 1    
    38   18   67 1    
    39   18  143 1    
    40   19   20 am   BACKBONE|DICT|INTERRES
    41   19  144 1    
    42   20   21 2    
    43   20   22 1    
    44   22   23 1    
    45   22   24 1    
    46   22  145 1    
    47   23  146 1    
    48   23  147 1    
    49   23  148 1    
    50   24   25 am   BACKBONE|DICT|INTERRES
    51   24  149 1    
    52   25   26 2    
    53   25   27 1    
    54   27   28 1    
    55   27   29 1    
    56   27  150 1    
    57   28  151 1    
    58   28  152 1    
    59   28  153 1    
    60   29   30 am   BACKBONE|DICT|INTERRES
    61   29  154 1    
    62   30   31 2    
    63   30   32 1    
    64   32   33 1    
    65   32   34 1    
    66   32  155 1    
    67   33  156 1    
    68   33  157 1    
    69   33  158 1    
    70   34   35 am   BACKBONE|DICT|INTERRES
    71   34  159 1    
    72   35   36 2    
    73   35   37 1    
    74   37   38 1    
    75   37   39 1    
    76   37  160 1    
    77   38  161 1    
    78   38  162 1    
    79   38  163 1    
    80   39   40 am   BACKBONE|DICT|INTERRES
    81   39  164 1    
    82   40   41 2    
    83   40   42 1    
    84   42   43 1    
    85   42   44 1    
    86   42  165 1    
    87   43  166 1    
    88   43  167 1    
    89   43  168 1    
    90   44   45 am   BACKBONE|DICT|INTERRES
    91   44  169 1    
    92   45   46 2    
    93   45   47 1    
    94   47   48 1    
    95   47   49 1    
    96   47  170 1    
    97   48  171 1    
    98   48  172 1    
    99   48  173 1    
   100   49   50 am   BACKBONE|DICT|INTERRES
   101   49  174 1    
   102   50   51 2    
   103   50   52 1    
   104   52   53 1    
   105   52   54 1    
   106   52  175 1    
   107   53  176 1    
   108   53  177 1    
   109   53  178 1    
   110   54   55 am   BACKBONE|DICT|INTERRES
   111   54  179 1    
   112   55   56 2    
   113   55   57 1    
   114   57   58 1    
   115   57   59 1    
   116   57  180 1    
   117   58  181 1    
   118   58  182 1    
   119   58  183 1    
   120   59   60 am   BACKBONE|DICT|INTERRES
   121   59  184 1    
   122   60   61 2    
   123   60   62 1    
   124   62   63 1    
   125   62   64 1    
   126   62  185 1    
   127   63  186 1    
   128   63  187 1    
   129   63  188 1    
   130   64   65 am   BACKBONE|DICT|INTERRES
   131   64  189 1    
   132   65   66 2    
   133   67   68 2    
   134   67   69 am   BACKBONE|DICT|INTERRES
   135   69   70 1    
   136   69  190 1    
   137   70   71 1    
   138   70   72 1    
   139   70  191 1    
   140   71  192 1    
   141   71  193 1    
   142   71  194 1    
   143   72   73 2    
   144   72   74 am   BACKBONE|DICT|INTERRES
   145   74   75 1    
   146   74  195 1    
   147   75   76 1    
   148   75   77 1    
   149   75  196 1    
   150   76  197 1    
   151   76  198 1    
   152   76  199 1    
   153   77   78 2    
   154   77   79 am   BACKBONE|DICT|INTERRES
   155   79   80 1    
   156   79  200 1    
   157   80   81 1    
   158   80   82 1    
   159   80  201 1    
   160   81  202 1    
   161   81  203 1    
   162   81  204 1    
   163   82   83 2    
   164   82   84 am   BACKBONE|DICT|INTERRES
   165   84   85 1    
   166   84  205 1    
   167   85   86 1    
   168   85   87 1    
   169   85  206 1    
   170   86  207 1    
   171   86  208 1    
   172   86  209 1    
   173   87   88 2    
   174   87   89 am   BACKBONE|DICT|INTERRES
   175   89   90 1    
   176   89  210 1    
   177   90   91 1    
   178   90   92 1    
   179   90  211 1    
   180   91  212 1    
   181   91  213 1    
   182   91  214 1    
   183   92   93 2    
   184   92   94 am   BACKBONE|DICT|INTERRES
   185   94   95 1    
   186   94  215 1    
   187   95   96 1    
   188   95   97 1    
   189   95  216 1    
   190   96  217 1    
   191   96  218 1    
   192   96  219 1    
   193   97   98 2    
   194   97   99 am   BACKBONE|DICT|INTERRES
   195   99  100 1    
   196   99  220 1    
   197  100  101 1    
   198  100  102 1    
   199  100  221 1    
   200  101  222 1    
   201  101  223 1    
   202  101  224 1    
   203  102  103 2    
   204  102  104 am   BACKBONE|DICT|INTERRES
   205  104  105 1    
   206  104  225 1    
   207  105  106 1    
   208  105  107 1    
   209  105  226 1    
   210  106  227 1    
   211  106  228 1    
   212  106  229 1    
   213  107  108 2    
   214  107  109 am   BACKBONE|DICT|INTERRES
   215  109  110 1    
   216  109  230 1    
   217  110  111 1    
   218  110  112 1    
   219  110  231 1    
   220  111  232 1    
   221  111  233 1    
   222  111  234 1    
   223  112  113 2    
   224  112  114 am   BACKBONE|DICT|INTERRES
   225  114  115 1    
   226  114  235 1    
   227  115  116 1    
   228  115  117 1    
   229  115  236 1    
   230  116  237 1    
   231  116  238 1    
   232  116  239 1    
   233  117  118 2    
   234  117  119 am   BACKBONE|DICT|INTERRES
   235  119  120 1    
   236  119  240 1    
   237  120  121 1    
   238  120  124 1    
   239  120  241 1    
   240  121  122 am   BACKBONE|DICT|INTERRES
   241  121  123 2    
   242  122  242 1    
   243  122  243 1    
   244  124  125 1    
   245  124  244 1    
   246  124  245 1    
   247  125  126 1    
   248  126  246 1    
   249  126  247 1    
@<TRIPOS>SUBSTRUCTURE
     1 UNK         1 GROUP             0       ****    0 ROOT    
