@<TRIPOS>MOLECULE
3R540
247   249    1
SMALL
USER_CHARGES


@<TRIPOS>ATOM
      1 CA          1.2377  -15.0522  -49.6252 C.3       0 UNK        -0.1800 
      2 C           2.6500  -14.8218  -49.1039 C.2       0 UNK         0.5000 
      3 O           3.3996  -14.0467  -49.6973 O.2       0 UNK        -0.5000 
      4 N           3.0166  -15.4956  -48.0076 N.am      1 UNK        -0.5000 
      5 CA          4.3144  -15.3559  -47.3433 C.3       1 UNK         0.1400 
      6 C6          4.7463  -16.6525  -46.6170 C.3       23 UNK        -0.0398 
      7 S7          5.0177  -18.0285  -47.7873 S.3       23 UNK        -0.2404 
      8 C8          3.5126  -19.0173  -47.5276 C.3       23 UNK        -0.0205 
      9 C9          2.9904  -19.6115  -48.8253 C.ar      23 UNK        -0.0193 
     10 C10         2.4660  -18.7764  -49.8157 C.ar      23 UNK        -0.1150 
     11 C11         1.9336  -19.3111  -50.9910 C.ar      23 UNK        -0.0193 
     12 C12         1.9371  -20.6949  -51.1785 C.ar      23 UNK        -0.1150 
     13 C13         2.4445  -21.5420  -50.1890 C.ar      23 UNK        -0.0193 
     14 C14         2.9795  -20.9951  -49.0184 C.ar      23 UNK        -0.1150 
     15 C15         2.3491  -23.0510  -50.3520 C.3       23 UNK        -0.0205 
     16 S16         0.6224  -23.6344  -50.4592 S.3       23 UNK        -0.2404 
     17 C17        -0.1875  -22.7863  -49.0551 C.3       23 UNK        -0.0398 
     18 CA          0.0762  -23.4890  -47.7007 C.3       11 UNK         0.1400 
     19 N           0.1165  -22.5286  -46.5974 N.am      11 UNK        -0.5000 
     20 C           0.7010  -22.7573  -45.4120 C.2       10 UNK         0.5000 
     21 O           1.2861  -23.8047  -45.1355 O.2       10 UNK        -0.5000 
     22 CA          0.6015  -21.6461  -44.3449 C.3       10 UNK         0.1400 
     23 CB          1.8978  -20.8241  -44.3008 C.3       10 UNK        -0.1800 
     24 N          -0.5237  -20.7311  -44.5425 N.am      10 UNK        -0.5000 
     25 C          -1.8159  -21.0826  -44.5510 C.2       9 UNK         0.5000 
     26 O          -2.2121  -22.2277  -44.3365 O.2       9 UNK        -0.5000 
     27 CA         -2.8315  -19.9885  -44.9209 C.3       9 UNK         0.1400 
     28 CB         -3.5076  -19.4319  -43.6611 C.3       9 UNK        -0.1800 
     29 N          -2.2765  -18.8869  -45.7185 N.am      9 UNK        -0.5000 
     30 C          -1.7845  -19.0155  -46.9619 C.2       8 UNK         0.5000 
     31 O          -1.5948  -20.1065  -47.5012 O.2       8 UNK        -0.5000 
     32 CA         -1.4692  -17.7284  -47.7477 C.3       8 UNK         0.1400 
     33 CB         -2.5778  -17.4625  -48.7769 C.3       8 UNK        -0.1800 
     34 N          -1.3402  -16.5459  -46.8938 N.am      8 UNK        -0.5000 
     35 C          -0.1992  -16.1572  -46.3121 C.2       7 UNK         0.5000 
     36 O           0.8717  -16.7480  -46.4523 O.2       7 UNK        -0.5000 
     37 CA         -0.2497  -14.8869  -45.4390 C.3       7 UNK         0.1400 
     38 CB          0.1052  -13.6534  -46.2838 C.3       7 UNK        -0.1800 
     39 N          -1.5244  -14.6305  -44.7562 N.am      7 UNK        -0.5000 
     40 C          -2.1728  -15.4740  -43.9397 C.2       6 UNK         0.5000 
     41 O          -1.8034  -16.6281  -43.7262 O.2       6 UNK        -0.5000 
     42 CA         -3.4297  -14.9202  -43.2431 C.3       6 UNK         0.1400 
     43 CB         -3.9204  -15.8085  -42.0851 C.3       6 UNK        -0.1800 
     44 N          -3.1530  -13.5814  -42.7289 N.am      6 UNK        -0.5000 
     45 C          -3.9029  -12.4906  -42.9269 C.2       5 UNK         0.5000 
     46 O          -4.9609  -12.4905  -43.5571 O.2       5 UNK        -0.5000 
     47 CA         -3.3776  -11.1693  -42.3252 C.3       5 UNK         0.1400 
     48 CB         -4.1217  -10.8415  -41.0214 C.3       5 UNK        -0.1800 
     49 N          -1.9338  -11.1732  -42.0598 N.am      5 UNK        -0.5000 
     50 C          -0.9875  -11.2073  -43.0068 C.2       4 UNK         0.5000 
     51 O          -1.2361  -11.2347  -44.2142 O.2       4 UNK        -0.5000 
     52 CA          0.4688  -11.2859  -42.5086 C.3       4 UNK         0.1400 
     53 CB          0.8119  -12.7211  -42.0777 C.3       4 UNK        -0.1800 
     54 N           1.4283  -10.8681  -43.5299 N.am      4 UNK        -0.5000 
     55 C           1.6034   -9.6075  -43.9483 C.2       3 UNK         0.5000 
     56 O           1.0103   -8.6421  -43.4632 O.2       3 UNK        -0.5000 
     57 CA          2.6312   -9.3988  -45.0765 C.3       3 UNK         0.1400 
     58 CB          3.2209   -7.9759  -45.0983 C.3       3 UNK        -0.1800 
     59 N           3.7184  -10.3736  -44.9690 N.am      3 UNK        -0.5000 
     60 C           4.2495  -11.0574  -45.9882 C.2       2 UNK         0.5000 
     61 O           3.8898  -10.9203  -47.1596 O.2       2 UNK        -0.5000 
     62 CA          5.3912  -12.0477  -45.6611 C.3       2 UNK         0.1400 
     63 CB          5.5723  -12.3403  -44.1528 C.3       2 UNK        -0.1800 
     64 N           5.2645  -13.2941  -46.4242 N.am      2 UNK        -0.5000 
     65 C           4.2524  -14.1710  -46.3620 C.2       1 UNK         0.5000 
     66 O           3.3121  -14.0861  -45.5681 O.2       1 UNK        -0.5000 
     67 C          -0.9314  -24.6353  -47.4748 C.2       11 UNK         0.5000 
     68 O          -0.8193  -25.6523  -48.1552 O.2       11 UNK        -0.5000 
     69 N          -1.8909  -24.4772  -46.5473 N.am      12 UNK        -0.5000 
     70 CA         -3.0387  -25.3777  -46.3629 C.3       12 UNK         0.1400 
     71 CB         -3.9592  -24.8072  -45.2738 C.3       12 UNK        -0.1800 
     72 C          -2.6808  -26.8433  -46.0444 C.2       12 UNK         0.5000 
     73 O          -3.4687  -27.7404  -46.3463 O.2       12 UNK        -0.5000 
     74 N          -1.4978  -27.0622  -45.4578 N.am      13 UNK        -0.5000 
     75 CA         -0.9375  -28.3850  -45.1860 C.3       13 UNK         0.1400 
     76 CB          0.1183  -28.2468  -44.0776 C.3       13 UNK        -0.1800 
     77 C          -0.3221  -29.0583  -46.4315 C.2       13 UNK         0.5000 
     78 O          -0.0918  -30.2681  -46.3981 O.2       13 UNK        -0.5000 
     79 N          -0.0393  -28.2797  -47.4849 N.am      14 UNK        -0.5000 
     80 CA          0.6596  -28.7179  -48.6908 C.3       14 UNK         0.1400 
     81 CB          1.8590  -27.7869  -48.9373 C.3       14 UNK        -0.1800 
     82 C          -0.2557  -28.7393  -49.9253 C.2       14 UNK         0.5000 
     83 O          -0.1618  -29.6803  -50.7154 O.2       14 UNK        -0.5000 
     84 N          -1.1041  -27.7164  -50.0956 N.am      15 UNK        -0.5000 
     85 CA         -1.9202  -27.5220  -51.2925 C.3       15 UNK         0.1400 
     86 CB         -1.0595  -26.8773  -52.3978 C.3       15 UNK        -0.1800 
     87 C          -3.1569  -26.6594  -51.0019 C.2       15 UNK         0.5000 
     88 O          -3.2340  -25.9887  -49.9714 O.2       15 UNK        -0.5000 
     89 N          -4.0922  -26.6577  -51.9604 N.am      16 UNK        -0.5000 
     90 CA         -5.3291  -25.8706  -51.9426 C.3       16 UNK         0.1400 
     91 CB         -6.3114  -26.4739  -52.9591 C.3       16 UNK        -0.1800 
     92 C          -5.1226  -24.3658  -52.2178 C.2       16 UNK         0.5000 
     93 O          -6.0831  -23.6014  -52.1196 O.2       16 UNK        -0.5000 
     94 N          -3.8870  -23.9506  -52.5380 N.am      17 UNK        -0.5000 
     95 CA         -3.4926  -22.5668  -52.8258 C.3       17 UNK         0.1400 
     96 CB         -2.0077  -22.5313  -53.2116 C.3       17 UNK        -0.1800 
     97 C          -3.7773  -21.5703  -51.6841 C.2       17 UNK         0.5000 
     98 O          -3.9460  -20.3818  -51.9547 O.2       17 UNK        -0.5000 
     99 N          -3.8795  -22.0728  -50.4455 N.am      18 UNK        -0.5000 
    100 CA        -4.3257  -21.3233  -49.2718 C.3       18 UNK         0.1400 
    101 CB        -4.1817  -22.2050  -48.0241 C.3       18 UNK        -0.1800 
    102 C         -5.7724  -20.8107  -49.3954 C.2       18 UNK         0.5000 
    103 O         -6.0421  -19.6667  -49.0308 O.2       18 UNK        -0.5000 
    104 N         -6.6682  -21.6486  -49.9379 N.am      19 UNK        -0.5000 
    105 CA        -8.0751  -21.3136  -50.1753 C.3       19 UNK         0.1400 
    106 CB        -8.8841  -22.6053  -50.3685 C.3       19 UNK        -0.1800 
    107 C         -8.2513  -20.3725  -51.3805 C.2       19 UNK         0.5000 
    108 O         -9.1783  -19.5625  -51.3923 O.2       19 UNK        -0.5000 
    109 N         -7.3330  -20.4696  -52.3512 N.am      20 UNK        -0.5000 
    110 CA        -7.2248  -19.5698  -53.5012 C.3       20 UNK         0.1400 
    111 CB        -6.4683  -20.2973  -54.6242 C.3       20 UNK        -0.1800 
    112 C         -6.5275  -18.2346  -53.1613 C.2       20 UNK         0.5000 
    113 O         -6.4297  -17.3728  -54.0363 O.2       20 UNK        -0.5000 
    114 N         -6.0183  -18.0989  -51.9261 N.am      21 UNK        -0.5000 
    115 CA        -5.2569  -16.9665  -51.3881 C.3       21 UNK         0.1400 
    116 CB        -6.1772  -15.7445  -51.1938 C.3       21 UNK        -0.1800 
    117 C         -3.9909  -16.6461  -52.2133 C.2       21 UNK         0.5000 
    118 O         -3.6559  -15.4755  -52.4026 O.2       21 UNK        -0.5000 
    119 N         -3.3376  -17.7020  -52.7174 N.am      22 UNK        -0.5000 
    120 CA        -2.1972  -17.6701  -53.6500 C.3       22 UNK         0.1400 
    121 C         -2.5343  -17.1206  -55.0723 C.2       22 UNK         0.5000 
    122 N         -3.7968  -16.9435  -55.4467 N.am      22 UNK        -0.7600 
    123 O         -1.6349  -16.8831  -55.8742 O.2       22 UNK        -0.5000 
    124 C124       -0.9238  -17.0147  -53.0414 C.3       23 UNK        -0.0398 
    125 S125       -0.3512  -17.8877  -51.5449 S.3       23 UNK        -0.2404 
    126 C126        1.3224  -18.3974  -52.0391 C.3       23 UNK        -0.0205 
    127 H127        0.7701  -15.9194  -49.1603 H         1 UNK         0.0600 
    128 H128        1.2571  -15.2227  -50.7016 H         1 UNK         0.0600 
    129 H129        0.6150  -14.1797  -49.4290 H         1 UNK         0.0600 
    130 H130        2.3338  -16.0623  -47.5121 H         1 UNK         0.3000 
    131 H131        5.0734  -15.1371  -48.0980 H         1 UNK         0.0600 
    132 H132        4.0169  -16.9374  -45.8563 H         1 UNK         0.0800 
    133 H133        5.6861  -16.4917  -46.0858 H         1 UNK         0.0800 
    134 H134        2.7224  -18.4082  -47.0917 H         1 UNK         0.0800 
    135 H135        3.7353  -19.7999  -46.8015 H         1 UNK         0.0800 
    136 H136        2.4567  -17.7084  -49.6634 H         1 UNK         0.1150 
    137 H137        1.5061  -21.1188  -52.0747 H         1 UNK         0.1150 
    138 H138        3.3587  -21.6475  -48.2444 H         1 UNK         0.1150 
    139 H139        2.8808  -23.3486  -51.2566 H         1 UNK         0.0800 
    140 H140        2.8423  -23.5624  -49.5241 H         1 UNK         0.0800 
    141 H141       -1.2551  -22.7168  -49.2682 H         1 UNK         0.0800 
    142 H142        0.1447  -21.7492  -49.0239 H         1 UNK         0.0800 
    143 H143        1.0648  -23.9510  -47.7457 H         1 UNK         0.0600 
    144 H144       -0.3631  -21.6478  -46.7510 H         1 UNK         0.3000 
    145 H145        0.4690  -22.1355  -43.3779 H         1 UNK         0.0600 
    146 H146        1.8911  -20.1216  -43.4672 H         1 UNK         0.0600 
    147 H147        2.0357  -20.2527  -45.2183 H         1 UNK         0.0600 
    148 H148        2.7700  -21.4674  -44.1762 H         1 UNK         0.0600 
    149 H149       -0.2974  -19.7670  -44.7401 H         1 UNK         0.3000 
    150 H150       -3.6044  -20.4641  -45.5251 H         1 UNK         0.0600 
    151 H151       -4.0012  -20.2268  -43.1006 H         1 UNK         0.0600 
    152 H152       -4.2693  -18.6957  -43.9169 H         1 UNK         0.0600 
    153 H153       -2.7876  -18.9610  -42.9914 H         1 UNK         0.0600 
    154 H154       -2.3018  -17.9685  -45.2922 H         1 UNK         0.3000 
    155 H155       -0.5360  -17.8950  -48.2905 H         1 UNK         0.0600 
    156 H156       -2.6676  -18.2940  -49.4772 H         1 UNK         0.0600 
    157 H157       -2.3624  -16.5706  -49.3658 H         1 UNK         0.0600 
    158 H158       -3.5488  -17.3270  -48.2991 H         1 UNK         0.0600 
    159 H159       -2.1728  -15.9967  -46.7403 H         1 UNK         0.3000 
    160 H160        0.5169  -15.0074  -44.6717 H         1 UNK         0.0600 
    161 H161       -0.6893  -13.4023  -46.9872 H         1 UNK         0.0600 
    162 H162        1.0130  -13.8144  -46.8620 H         1 UNK         0.0600 
    163 H163        0.2889  -12.7840  -45.6549 H         1 UNK         0.0600 
    164 H164       -1.8962  -13.6959  -44.8595 H         1 UNK         0.3000 
    165 H165       -4.2133  -14.8834  -44.0024 H         1 UNK         0.0600 
    166 H166       -4.8028  -15.3809  -41.6088 H         1 UNK         0.0600 
    167 H167       -4.1962  -16.8012  -42.4391 H         1 UNK         0.0600 
    168 H168       -3.1534  -15.9315  -41.3196 H         1 UNK         0.0600 
    169 H169       -2.2935  -13.4774  -42.2095 H         1 UNK         0.3000 
    170 H170       -3.5872  -10.3769  -43.0468 H         1 UNK         0.0600 
    171 H171       -3.9372  -11.5930  -40.2527 H         1 UNK         0.0600 
    172 H172       -3.8170   -9.8725  -40.6255 H         1 UNK         0.0600 
    173 H173       -5.1993  -10.7985  -41.1861 H         1 UNK         0.0600 
    174 H174       -1.6573  -11.1578  -41.0883 H         1 UNK         0.3000 
    175 H175        0.5745  -10.6255  -41.6452 H         1 UNK         0.0600 
    176 H176        0.7232  -13.4219  -42.9075 H         1 UNK         0.0600 
    177 H177        1.8311  -12.7844  -41.6958 H         1 UNK         0.0600 
    178 H178        0.1491  -13.0663  -41.2834 H         1 UNK         0.0600 
    179 H179        1.9246  -11.6043  -44.0107 H         1 UNK         0.3000 
    180 H180        2.0820   -9.5537  -46.0075 H         1 UNK         0.0600 
    181 H181        3.9246   -7.8545  -45.9220 H         1 UNK         0.0600 
    182 H182        3.7473   -7.7467  -44.1711 H         1 UNK         0.0600 
    183 H183        2.4394   -7.2266  -45.2297 H         1 UNK         0.0600 
    184 H184        4.0648  -10.5462  -44.0351 H         1 UNK         0.3000 
    185 H185        6.3075  -11.5711  -46.0122 H         1 UNK         0.0600 
    186 H186        4.6664  -12.7428  -43.6982 H         1 UNK         0.0600 
    187 H187        6.3708  -13.0644  -43.9907 H         1 UNK         0.0600 
    188 H188        5.8487  -11.4390  -43.6047 H         1 UNK         0.0600 
    189 H189        5.9728  -13.4337  -47.1312 H         1 UNK         0.3000 
    190 H190       -1.8874  -23.6397  -45.9772 H         1 UNK         0.3000 
    191 H191       -3.5931  -25.3852  -47.3032 H         1 UNK         0.0600 
    192 H192       -4.3008  -23.8038  -45.5265 H         1 UNK         0.0600 
    193 H193       -3.4523  -24.7549  -44.3095 H         1 UNK         0.0600 
    194 H194       -4.8469  -25.4280  -45.1453 H         1 UNK         0.0600 
    195 H195       -0.9133  -26.2657  -45.2479 H         1 UNK         0.3000 
    196 H196       -1.7328  -29.0370  -44.8186 H         1 UNK         0.0600 
    197 H197       -0.3163  -27.8313  -43.1683 H         1 UNK         0.0600 
    198 H198        0.9403  -27.5984  -44.3842 H         1 UNK         0.0600 
    199 H199        0.5441  -29.2170  -43.8184 H         1 UNK         0.0600 
    200 H200       -0.3233  -27.3040  -47.4721 H         1 UNK         0.3000 
    201 H201        1.0502  -29.7288  -48.5573 H         1 UNK         0.0600 
    202 H202        2.5512  -27.8063  -48.0955 H         1 UNK         0.0600 
    203 H203        1.5460  -26.7529  -49.0889 H         1 UNK         0.0600 
    204 H204        2.4158  -28.0935  -49.8236 H         1 UNK         0.0600 
    205 H205       -1.1538  -26.9670  -49.4061 H         1 UNK         0.3000 
    206 H206       -2.2809  -28.4931  -51.6383 H         1 UNK         0.0600 
    207 H207       -0.6805  -25.9024  -52.0895 H         1 UNK         0.0600 
    208 H208       -0.2022  -27.5016  -52.6496 H         1 UNK         0.0600 
    209 H209       -1.6282  -26.7336  -53.3170 H         1 UNK         0.0600 
    210 H210       -3.9465  -27.2289  -52.7809 H         1 UNK         0.3000 
    211 H211       -5.7746  -25.9542  -50.9492 H         1 UNK         0.0600 
    212 H212       -5.9220  -26.4188  -53.9764 H         1 UNK         0.0600 
    213 H213       -7.2661  -25.9462  -52.9442 H         1 UNK         0.0600 
    214 H214       -6.5191  -27.5202  -52.7342 H         1 UNK         0.0600 
    215 H215       -3.1578  -24.6453  -52.5898 H         1 UNK         0.3000 
    216 H216       -4.0729  -22.2413  -53.6900 H         1 UNK         0.0600 
    217 H217       -1.6863  -21.5153  -53.4458 H         1 UNK         0.0600 
    218 H218       -1.8116  -23.1449  -54.0909 H         1 UNK         0.0600 
    219 H219       -1.3778  -22.8947  -52.4012 H         1 UNK         0.0600 
    220 H220       -3.7235  -23.0628  -50.3219 H         1 UNK         0.3000 
    221 H221       -3.6778  -20.4532  -49.1595 H         1 UNK         0.0600 
    222 H222       -4.6609  -23.1757  -48.1554 H         1 UNK         0.0600 
    223 H223       -3.1331  -22.3730  -47.7875 H         1 UNK         0.0600 
    224 H224       -4.6365  -21.7333  -47.1532 H         1 UNK         0.0600 
    225 H225       -6.3550  -22.5423  -50.2969 H         1 UNK         0.3000 
    226 H226       -8.4622  -20.8006  -49.2923 H         1 UNK         0.0600 
    227 H227       -8.7819  -23.2677  -49.5088 H         1 UNK         0.0600 
    228 H228       -9.9459  -22.3845  -50.4842 H         1 UNK         0.0600 
    229 H229       -8.5669  -23.1544  -51.2554 H         1 UNK         0.0600 
    230 H230       -6.6244  -21.1855  -52.2653 H         1 UNK         0.3000 
    231 H231       -8.2286  -19.3356  -53.8612 H         1 UNK         0.0600 
    232 H232       -6.4847  -19.7140  -55.5457 H         1 UNK         0.0600 
    233 H233       -6.9170  -21.2660  -54.8454 H         1 UNK         0.0600 
    234 H234       -5.4230  -20.4593  -54.3632 H         1 UNK         0.0600 
    235 H235       -6.1174  -18.8831  -51.2962 H         1 UNK         0.3000 
    236 H236       -4.9111  -17.2781  -50.4029 H         1 UNK         0.0600 
    237 H237       -6.5294  -15.3481  -52.1467 H         1 UNK         0.0600 
    238 H238       -7.0504  -16.0014  -50.5939 H         1 UNK         0.0600 
    239 H239       -5.6548  -14.9392  -50.6762 H         1 UNK         0.0600 
    240 H240       -3.6727  -18.6333  -52.4789 H         1 UNK         0.3000 
    241 H241       -1.9573  -18.7190  -53.8274 H         1 UNK         0.0600 
    242 H242       -3.9886  -16.5999  -56.3742 H         1 UNK         0.3800 
    243 H243       -4.5685  -17.1171  -54.8125 H         1 UNK         0.3800 
    244 H244       -1.1057  -15.9701  -52.7877 H         1 UNK         0.0800 
    245 H245       -0.1116  -17.0045  -53.7695 H         1 UNK         0.0800 
    246 H246        1.2807  -18.9040  -53.0046 H         1 UNK         0.0800 
    247 H247        1.9490  -17.5144  -52.1735 H         1 UNK         0.0800 
@<TRIPOS>BOND
     1    1    2 1    
     2    1  127 1    
     3    1  128 1    
     4    1  129 1    
     5    2    3 2    
     6    2    4 am   BACKBONE|DICT|INTERRES
     7    4    5 1    
     8    4  130 1    
     9    5    6 1    
    10    5   65 1    
    11    5  131 1    
    12    6    7 1    
    13    6  132 1    
    14    6  133 1    
    15    7    8 1    
    16    8    9 1    
    17    8  134 1    
    18    8  135 1    
    19    9   10 ar   
    20    9   14 ar   
    21   10   11 ar   
    22   10  136 1    
    23   11   12 ar   
    24   11  126 1    
    25   12   13 ar   
    26   12  137 1    
    27   13   14 ar   
    28   13   15 1    
    29   14  138 1    
    30   15   16 1    
    31   15  139 1    
    32   15  140 1    
    33   16   17 1    
    34   17   18 1    
    35   17  141 1    
    36   17  142 1    
    37   18   19 1    
    38   18   67 1    
    39   18  143 1    
    40   19   20 am   BACKBONE|DICT|INTERRES
    41   19  144 1    
    42   20   21 2    
    43   20   22 1    
    44   22   23 1    
    45   22   24 1    
    46   22  145 1    
    47   23  146 1    
    48   23  147 1    
    49   23  148 1    
    50   24   25 am   BACKBONE|DICT|INTERRES
    51   24  149 1    
    52   25   26 2    
    53   25   27 1    
    54   27   28 1    
    55   27   29 1    
    56   27  150 1    
    57   28  151 1    
    58   28  152 1    
    59   28  153 1    
    60   29   30 am   BACKBONE|DICT|INTERRES
    61   29  154 1    
    62   30   31 2    
    63   30   32 1    
    64   32   33 1    
    65   32   34 1    
    66   32  155 1    
    67   33  156 1    
    68   33  157 1    
    69   33  158 1    
    70   34   35 am   BACKBONE|DICT|INTERRES
    71   34  159 1    
    72   35   36 2    
    73   35   37 1    
    74   37   38 1    
    75   37   39 1    
    76   37  160 1    
    77   38  161 1    
    78   38  162 1    
    79   38  163 1    
    80   39   40 am   BACKBONE|DICT|INTERRES
    81   39  164 1    
    82   40   41 2    
    83   40   42 1    
    84   42   43 1    
    85   42   44 1    
    86   42  165 1    
    87   43  166 1    
    88   43  167 1    
    89   43  168 1    
    90   44   45 am   BACKBONE|DICT|INTERRES
    91   44  169 1    
    92   45   46 2    
    93   45   47 1    
    94   47   48 1    
    95   47   49 1    
    96   47  170 1    
    97   48  171 1    
    98   48  172 1    
    99   48  173 1    
   100   49   50 am   BACKBONE|DICT|INTERRES
   101   49  174 1    
   102   50   51 2    
   103   50   52 1    
   104   52   53 1    
   105   52   54 1    
   106   52  175 1    
   107   53  176 1    
   108   53  177 1    
   109   53  178 1    
   110   54   55 am   BACKBONE|DICT|INTERRES
   111   54  179 1    
   112   55   56 2    
   113   55   57 1    
   114   57   58 1    
   115   57   59 1    
   116   57  180 1    
   117   58  181 1    
   118   58  182 1    
   119   58  183 1    
   120   59   60 am   BACKBONE|DICT|INTERRES
   121   59  184 1    
   122   60   61 2    
   123   60   62 1    
   124   62   63 1    
   125   62   64 1    
   126   62  185 1    
   127   63  186 1    
   128   63  187 1    
   129   63  188 1    
   130   64   65 am   BACKBONE|DICT|INTERRES
   131   64  189 1    
   132   65   66 2    
   133   67   68 2    
   134   67   69 am   BACKBONE|DICT|INTERRES
   135   69   70 1    
   136   69  190 1    
   137   70   71 1    
   138   70   72 1    
   139   70  191 1    
   140   71  192 1    
   141   71  193 1    
   142   71  194 1    
   143   72   73 2    
   144   72   74 am   BACKBONE|DICT|INTERRES
   145   74   75 1    
   146   74  195 1    
   147   75   76 1    
   148   75   77 1    
   149   75  196 1    
   150   76  197 1    
   151   76  198 1    
   152   76  199 1    
   153   77   78 2    
   154   77   79 am   BACKBONE|DICT|INTERRES
   155   79   80 1    
   156   79  200 1    
   157   80   81 1    
   158   80   82 1    
   159   80  201 1    
   160   81  202 1    
   161   81  203 1    
   162   81  204 1    
   163   82   83 2    
   164   82   84 am   BACKBONE|DICT|INTERRES
   165   84   85 1    
   166   84  205 1    
   167   85   86 1    
   168   85   87 1    
   169   85  206 1    
   170   86  207 1    
   171   86  208 1    
   172   86  209 1    
   173   87   88 2    
   174   87   89 am   BACKBONE|DICT|INTERRES
   175   89   90 1    
   176   89  210 1    
   177   90   91 1    
   178   90   92 1    
   179   90  211 1    
   180   91  212 1    
   181   91  213 1    
   182   91  214 1    
   183   92   93 2    
   184   92   94 am   BACKBONE|DICT|INTERRES
   185   94   95 1    
   186   94  215 1    
   187   95   96 1    
   188   95   97 1    
   189   95  216 1    
   190   96  217 1    
   191   96  218 1    
   192   96  219 1    
   193   97   98 2    
   194   97   99 am   BACKBONE|DICT|INTERRES
   195   99  100 1    
   196   99  220 1    
   197  100  101 1    
   198  100  102 1    
   199  100  221 1    
   200  101  222 1    
   201  101  223 1    
   202  101  224 1    
   203  102  103 2    
   204  102  104 am   BACKBONE|DICT|INTERRES
   205  104  105 1    
   206  104  225 1    
   207  105  106 1    
   208  105  107 1    
   209  105  226 1    
   210  106  227 1    
   211  106  228 1    
   212  106  229 1    
   213  107  108 2    
   214  107  109 am   BACKBONE|DICT|INTERRES
   215  109  110 1    
   216  109  230 1    
   217  110  111 1    
   218  110  112 1    
   219  110  231 1    
   220  111  232 1    
   221  111  233 1    
   222  111  234 1    
   223  112  113 2    
   224  112  114 am   BACKBONE|DICT|INTERRES
   225  114  115 1    
   226  114  235 1    
   227  115  116 1    
   228  115  117 1    
   229  115  236 1    
   230  116  237 1    
   231  116  238 1    
   232  116  239 1    
   233  117  118 2    
   234  117  119 am   BACKBONE|DICT|INTERRES
   235  119  120 1    
   236  119  240 1    
   237  120  121 1    
   238  120  124 1    
   239  120  241 1    
   240  121  122 am   BACKBONE|DICT|INTERRES
   241  121  123 2    
   242  122  242 1    
   243  122  243 1    
   244  124  125 1    
   245  124  244 1    
   246  124  245 1    
   247  125  126 1    
   248  126  246 1    
   249  126  247 1    
@<TRIPOS>SUBSTRUCTURE
     1 UNK         1 GROUP             0       ****    0 ROOT    
