@<TRIPOS>MOLECULE
3R540
247   249    1
SMALL
USER_CHARGES


@<TRIPOS>ATOM
      1 CA         -3.7803  -18.3407  -41.3529 C.3       0 UNK        -0.1800 
      2 C          -3.0382  -17.9712  -42.6279 C.2       0 UNK         0.5000 
      3 O          -1.9447  -18.4873  -42.8595 O.2       0 UNK        -0.5000 
      4 N          -3.6268  -17.0851  -43.4463 N.am      1 UNK        -0.5000 
      5 CA         -3.1004  -16.6036  -44.7360 C.3       1 UNK         0.1400 
      6 C6         -2.9375  -17.7526  -45.7714 C.3       23 UNK        -0.0398 
      7 S7         -3.5188  -17.3300  -47.4464 S.3       23 UNK        -0.2404 
      8 C8         -5.2945  -17.7415  -47.3658 C.3       23 UNK        -0.0205 
      9 C9         -5.5477  -19.2281  -47.1540 C.ar      23 UNK        -0.0193 
     10 C10        -5.5886  -20.1076  -48.2414 C.ar      23 UNK        -0.1150 
     11 C11        -5.8215  -21.4722  -48.0378 C.ar      23 UNK        -0.0193 
     12 C12        -5.9931  -21.9553  -46.7378 C.ar      23 UNK        -0.1150 
     13 C13        -5.9450  -21.0875  -45.6445 C.ar      23 UNK        -0.0193 
     14 C14        -5.7496  -19.7228  -45.8620 C.ar      23 UNK        -0.1150 
     15 C15        -6.0821  -21.6242  -44.2279 C.3       23 UNK        -0.0205 
     16 S16        -4.7035  -22.7278  -43.7783 S.3       23 UNK        -0.2404 
     17 C17        -3.2444  -21.6362  -43.9523 C.3       23 UNK        -0.0398 
     18 CA         -2.4707  -21.7382  -45.2966 C.3       11 UNK         0.1400 
     19 N          -1.2306  -20.9558  -45.2681 N.am      11 UNK        -0.5000 
     20 C          -0.5126  -20.6295  -46.3527 C.2       10 UNK         0.5000 
     21 O          -0.8705  -20.8651  -47.5058 O.2       10 UNK        -0.5000 
     22 CA          0.8512  -19.9562  -46.1206 C.3       10 UNK         0.1400 
     23 CB          0.7151  -18.4348  -46.0890 C.3       10 UNK        -0.1800 
     24 N           1.5194  -20.3922  -44.8971 N.am      10 UNK        -0.5000 
     25 C           2.0072  -21.6249  -44.7066 C.2       9 UNK         0.5000 
     26 O           1.9496  -22.5205  -45.5479 O.2       9 UNK        -0.5000 
     27 CA          2.5999  -21.9214  -43.3193 C.3       9 UNK         0.1400 
     28 CB          3.9953  -21.2951  -43.1753 C.3       9 UNK        -0.1800 
     29 N           1.7406  -21.4417  -42.2384 N.am      9 UNK        -0.5000 
     30 C           0.4768  -21.8236  -42.0186 C.2       8 UNK         0.5000 
     31 O          -0.1034  -22.6758  -42.6906 O.2       8 UNK        -0.5000 
     32 CA         -0.2961  -21.0964  -40.9051 C.3       8 UNK         0.1400 
     33 CB         -0.0251  -21.7222  -39.5244 C.3       8 UNK        -0.1800 
     34 N          -0.0958  -19.6422  -40.9037 N.am      8 UNK        -0.5000 
     35 C           0.9954  -18.9405  -40.5726 C.2       7 UNK         0.5000 
     36 O           2.0614  -19.4399  -40.2047 O.2       7 UNK        -0.5000 
     37 CA          0.8564  -17.4120  -40.6568 C.3       7 UNK         0.1400 
     38 CB          0.5874  -16.8372  -39.2569 C.3       7 UNK        -0.1800 
     39 N           2.0326  -16.7494  -41.2219 N.am      7 UNK        -0.5000 
     40 C           2.5423  -16.9618  -42.4428 C.2       6 UNK         0.5000 
     41 O           2.1245  -17.8197  -43.2236 O.2       6 UNK        -0.5000 
     42 CA          3.6887  -16.0170  -42.8508 C.3       6 UNK         0.1400 
     43 CB          5.0501  -16.7404  -42.8702 C.3       6 UNK        -0.1800 
     44 N           3.3918  -15.3010  -44.1003 N.am      6 UNK        -0.5000 
     45 C           3.4648  -15.7532  -45.3597 C.2       5 UNK         0.5000 
     46 O           3.9138  -16.8527  -45.6897 O.2       5 UNK        -0.5000 
     47 CA          2.9756  -14.8003  -46.4614 C.3       5 UNK         0.1400 
     48 CB          4.1713  -14.1976  -47.2220 C.3       5 UNK        -0.1800 
     49 N           2.1331  -15.5801  -47.3648 N.am      5 UNK        -0.5000 
     50 C           1.1236  -15.1847  -48.1517 C.2       4 UNK         0.5000 
     51 O           0.4661  -16.0035  -48.7944 O.2       4 UNK        -0.5000 
     52 CA          0.7751  -13.6876  -48.2660 C.3       4 UNK         0.1400 
     53 CB         -0.1497  -13.3818  -49.4598 C.3       4 UNK        -0.1800 
     54 N           0.1530  -13.1987  -47.0389 N.am      4 UNK        -0.5000 
     55 C           0.2241  -11.9244  -46.6275 C.2       3 UNK         0.5000 
     56 O           0.8504  -11.0515  -47.2304 O.2       3 UNK        -0.5000 
     57 CA         -0.5257  -11.5340  -45.3390 C.3       3 UNK         0.1400 
     58 CB         -1.8475  -10.8298  -45.6831 C.3       3 UNK        -0.1800 
     59 N          -0.8121  -12.6580  -44.4514 N.am      3 UNK        -0.5000 
     60 C           0.1028  -13.3480  -43.7608 C.2       2 UNK         0.5000 
     61 O           1.3127  -13.1155  -43.7851 O.2       2 UNK        -0.5000 
     62 CA         -0.4216  -14.5102  -42.9029 C.3       2 UNK         0.1400 
     63 CB         -0.6469  -14.0403  -41.4589 C.3       2 UNK        -0.1800 
     64 N          -1.6468  -15.1534  -43.3829 N.am      2 UNK        -0.5000 
     65 C          -1.8246  -15.7362  -44.5787 C.2       1 UNK         0.5000 
     66 O          -1.0365  -15.6074  -45.5166 O.2       1 UNK        -0.5000 
     67 C          -2.1765  -23.1901  -45.7340 C.2       11 UNK         0.5000 
     68 O          -2.8246  -23.6889  -46.6542 O.2       11 UNK        -0.5000 
     69 N          -1.1720  -23.8193  -45.1053 N.am      12 UNK        -0.5000 
     70 CA         -0.7206  -25.1812  -45.4003 C.3       12 UNK         0.1400 
     71 CB          0.3327  -25.6034  -44.3648 C.3       12 UNK        -0.1800 
     72 C          -0.1774  -25.3463  -46.8324 C.2       12 UNK         0.5000 
     73 O          -0.4695  -26.3510  -47.4818 O.2       12 UNK        -0.5000 
     74 N           0.5759  -24.3458  -47.3077 N.am      13 UNK        -0.5000 
     75 CA          1.0905  -24.2671  -48.6759 C.3       13 UNK         0.1400 
     76 CB          2.2330  -23.2398  -48.7150 C.3       13 UNK        -0.1800 
     77 C           0.0163  -23.8949  -49.7174 C.2       13 UNK         0.5000 
     78 O           0.2486  -24.0991  -50.9097 O.2       13 UNK        -0.5000 
     79 N          -1.1124  -23.3317  -49.2571 N.am      14 UNK        -0.5000 
     80 CA         -2.1991  -22.7362  -50.0401 C.3       14 UNK         0.1400 
     81 CB         -2.9782  -23.8237  -50.8089 C.3       14 UNK        -0.1800 
     82 C          -1.6844  -21.5976  -50.9440 C.2       14 UNK         0.5000 
     83 O          -1.9476  -21.5920  -52.1470 O.2       14 UNK        -0.5000 
     84 N          -0.9000  -20.6936  -50.3455 N.am      15 UNK        -0.5000 
     85 CA         -0.1790  -19.6182  -51.0172 C.3       15 UNK         0.1400 
     86 CB          0.9177  -19.0855  -50.0789 C.3       15 UNK        -0.1800 
     87 C          -1.1258  -18.5183  -51.5291 C.2       15 UNK         0.5000 
     88 O          -1.4967  -18.5406  -52.7039 O.2       15 UNK        -0.5000 
     89 N          -1.4612  -17.5500  -50.6632 N.am      16 UNK        -0.5000 
     90 CA         -2.3477  -16.4021  -50.9124 C.3       16 UNK         0.1400 
     91 CB         -3.7955  -16.8873  -51.1354 C.3       16 UNK        -0.1800 
     92 C          -1.8748  -15.4761  -52.0584 C.2       16 UNK         0.5000 
     93 O          -2.6914  -14.7630  -52.6427 O.2       16 UNK        -0.5000 
     94 N          -0.5737  -15.5410  -52.3848 N.am      17 UNK        -0.5000 
     95 CA          0.0981  -14.9486  -53.5503 C.3       17 UNK         0.1400 
     96 CB          0.0485  -13.4062  -53.5042 C.3       17 UNK        -0.1800 
     97 C          -0.3817  -15.5099  -54.9114 C.2       17 UNK         0.5000 
     98 O          -0.0695  -14.9212  -55.9480 O.2       17 UNK        -0.5000 
     99 N          -1.1116  -16.6336  -54.8971 N.am      18 UNK        -0.5000 
    100 CA        -1.6647  -17.2967  -56.0773 C.3       18 UNK         0.1400 
    101 CB        -3.1714  -17.5161  -55.8645 C.3       18 UNK        -0.1800 
    102 C         -0.9631  -18.6367  -56.3505 C.2       18 UNK         0.5000 
    103 O         -0.6907  -18.9370  -57.5131 O.2       18 UNK        -0.5000 
    104 N         -0.6788  -19.3902  -55.2758 N.am      19 UNK        -0.5000 
    105 CA        -0.1636  -20.7623  -55.2197 C.3       19 UNK         0.1400 
    106 CB         1.1627  -20.9276  -55.9864 C.3       19 UNK        -0.1800 
    107 C         -1.2225  -21.7902  -55.6636 C.2       19 UNK         0.5000 
    108 O         -1.7633  -21.6936  -56.7667 O.2       19 UNK        -0.5000 
    109 N         -1.5056  -22.7516  -54.7737 N.am      20 UNK        -0.5000 
    110 CA        -2.5988  -23.7286  -54.8450 C.3       20 UNK         0.1400 
    111 CB        -2.4200  -24.6972  -56.0329 C.3       20 UNK        -0.1800 
    112 C         -3.9825  -23.0435  -54.8120 C.2       20 UNK         0.5000 
    113 O         -4.9046  -23.4622  -55.5142 O.2       20 UNK        -0.5000 
    114 N         -4.0974  -21.9960  -53.9817 N.am      21 UNK        -0.5000 
    115 CA        -5.2538  -21.1028  -53.8607 C.3       21 UNK         0.1400 
    116 CB        -4.9110  -19.9996  -52.8490 C.3       21 UNK        -0.1800 
    117 C         -6.5668  -21.8014  -53.4590 C.2       21 UNK         0.5000 
    118 O         -7.6423  -21.3387  -53.8409 O.2       21 UNK        -0.5000 
    119 N         -6.4460  -22.9038  -52.7127 N.am      22 UNK        -0.5000 
    120 CA        -7.5522  -23.7800  -52.3004 C.3       22 UNK         0.1400 
    121 C         -7.7450  -25.0104  -53.2379 C.2       22 UNK         0.5000 
    122 N         -7.0251  -25.1379  -54.3472 N.am      22 UNK        -0.7600 
    123 O         -8.5817  -25.8669  -52.9649 O.2       22 UNK        -0.5000 
    124 C124       -7.4054  -24.2013  -50.8151 C.3       23 UNK        -0.0398 
    125 S125       -7.6054  -22.7932  -49.6695 S.3       23 UNK        -0.2404 
    126 C126       -5.8830  -22.4370  -49.2098 C.3       23 UNK        -0.0205 
    127 H127       -3.9596  -19.4155  -41.3234 H         1 UNK         0.0600 
    128 H128       -4.7425  -17.8334  -41.2816 H         1 UNK         0.0600 
    129 H129       -3.1856  -18.0690  -40.4808 H         1 UNK         0.0600 
    130 H130       -4.5239  -16.7012  -43.1817 H         1 UNK         0.3000 
    131 H131       -3.8651  -15.9187  -45.1049 H         1 UNK         0.0600 
    132 H132       -1.9034  -18.0675  -45.8489 H         1 UNK         0.0800 
    133 H133       -3.4447  -18.6530  -45.4398 H         1 UNK         0.0800 
    134 H134       -5.7636  -17.1593  -46.5712 H         1 UNK         0.0800 
    135 H135       -5.7691  -17.4208  -48.2943 H         1 UNK         0.0800 
    136 H136       -5.4427  -19.7285  -49.2432 H         1 UNK         0.1150 
    137 H137       -6.1520  -23.0123  -46.5750 H         1 UNK         0.1150 
    138 H138       -5.7244  -19.0451  -45.0201 H         1 UNK         0.1150 
    139 H139       -6.1396  -20.8105  -43.5031 H         1 UNK         0.0800 
    140 H140       -7.0192  -22.1762  -44.1455 H         1 UNK         0.0800 
    141 H141       -2.5793  -21.8733  -43.1232 H         1 UNK         0.0800 
    142 H142       -3.5588  -20.6061  -43.7914 H         1 UNK         0.0800 
    143 H143       -3.1064  -21.3014  -46.0697 H         1 UNK         0.0600 
    144 H144       -0.8564  -20.7251  -44.3596 H         1 UNK         0.3000 
    145 H145        1.4885  -20.2180  -46.9677 H         1 UNK         0.0600 
    146 H146        1.6968  -17.9767  -46.1363 H         1 UNK         0.0600 
    147 H147        0.1381  -18.0575  -46.9332 H         1 UNK         0.0600 
    148 H148        0.2394  -18.0902  -45.1707 H         1 UNK         0.0600 
    149 H149        1.6357  -19.6933  -44.1705 H         1 UNK         0.3000 
    150 H150        2.6934  -23.0045  -43.2185 H         1 UNK         0.0600 
    151 H151        4.4525  -21.5671  -42.2238 H         1 UNK         0.0600 
    152 H152        3.9561  -20.2059  -43.2279 H         1 UNK         0.0600 
    153 H153        4.6617  -21.6394  -43.9672 H         1 UNK         0.0600 
    154 H154        2.1213  -20.7257  -41.6263 H         1 UNK         0.3000 
    155 H155       -1.3566  -21.2385  -41.1176 H         1 UNK         0.0600 
    156 H156       -0.3068  -22.7759  -39.5169 H         1 UNK         0.0600 
    157 H157       -0.6039  -21.2254  -38.7459 H         1 UNK         0.0600 
    158 H158        1.0278  -21.6683  -39.2470 H         1 UNK         0.0600 
    159 H159       -0.8656  -19.1250  -41.3171 H         1 UNK         0.3000 
    160 H160        0.0082  -17.1726  -41.3010 H         1 UNK         0.0600 
    161 H161       -0.3396  -17.2366  -38.8432 H         1 UNK         0.0600 
    162 H162        0.4940  -15.7521  -39.2754 H         1 UNK         0.0600 
    163 H163        1.3901  -17.0866  -38.5614 H         1 UNK         0.0600 
    164 H164        2.4700  -16.0587  -40.6301 H         1 UNK         0.3000 
    165 H165        3.7619  -15.2324  -42.0959 H         1 UNK         0.0600 
    166 H166        5.8461  -16.0807  -43.2154 H         1 UNK         0.0600 
    167 H167        5.3179  -17.0797  -41.8691 H         1 UNK         0.0600 
    168 H168        5.0382  -17.6221  -43.5114 H         1 UNK         0.0600 
    169 H169        2.9614  -14.3918  -43.9640 H         1 UNK         0.3000 
    170 H170        2.4019  -13.9988  -46.0006 H         1 UNK         0.0600 
    171 H171        3.8611  -13.4891  -47.9877 H         1 UNK         0.0600 
    172 H172        4.8315  -13.6608  -46.5396 H         1 UNK         0.0600 
    173 H173        4.7657  -14.9717  -47.7091 H         1 UNK         0.0600 
    174 H174        2.3267  -16.5703  -47.3071 H         1 UNK         0.3000 
    175 H175        1.7101  -13.1566  -48.4417 H         1 UNK         0.0600 
    176 H176       -0.2700  -12.3086  -49.6068 H         1 UNK         0.0600 
    177 H177        0.2665  -13.7881  -50.3800 H         1 UNK         0.0600 
    178 H178       -1.1410  -13.8131  -49.3207 H         1 UNK         0.0600 
    179 H179       -0.3413  -13.8904  -46.4824 H         1 UNK         0.3000 
    180 H180        0.1063  -10.8283  -44.7958 H         1 UNK         0.0600 
    181 H181       -2.3527  -10.4760  -44.7842 H         1 UNK         0.0600 
    182 H182       -2.5301  -11.4943  -46.2145 H         1 UNK         0.0600 
    183 H183       -1.6740   -9.9609  -46.3193 H         1 UNK         0.0600 
    184 H184       -1.7781  -12.9393  -44.3723 H         1 UNK         0.3000 
    185 H185        0.3506  -15.2766  -42.9058 H         1 UNK         0.0600 
    186 H186       -1.3710  -13.2258  -41.4114 H         1 UNK         0.0600 
    187 H187       -1.0196  -14.8485  -40.8309 H         1 UNK         0.0600 
    188 H188        0.2824  -13.6808  -41.0150 H         1 UNK         0.0600 
    189 H189       -2.3702  -15.2927  -42.6930 H         1 UNK         0.3000 
    190 H190       -0.6985  -23.3465  -44.3390 H         1 UNK         0.3000 
    191 H191       -1.5830  -25.8428  -45.2966 H         1 UNK         0.0600 
    192 H192        1.2088  -24.9548  -44.3941 H         1 UNK         0.0600 
    193 H193        0.6721  -26.6241  -44.5452 H         1 UNK         0.0600 
    194 H194       -0.0733  -25.5688  -43.3536 H         1 UNK         0.0600 
    195 H195        0.8437  -23.5932  -46.6782 H         1 UNK         0.3000 
    196 H196        1.4963  -25.2424  -48.9522 H         1 UNK         0.0600 
    197 H197        2.6723  -23.1779  -49.7114 H         1 UNK         0.0600 
    198 H198        3.0316  -23.5105  -48.0241 H         1 UNK         0.0600 
    199 H199        1.8826  -22.2420  -48.4482 H         1 UNK         0.0600 
    200 H200       -1.1971  -23.2112  -48.2562 H         1 UNK         0.3000 
    201 H201       -2.8801  -22.2764  -49.3227 H         1 UNK         0.0600 
    202 H202       -3.3813  -24.5713  -50.1258 H         1 UNK         0.0600 
    203 H203       -2.3479  -24.3402  -51.5321 H         1 UNK         0.0600 
    204 H204       -3.8172  -23.3948  -51.3548 H         1 UNK         0.0600 
    205 H205       -0.7850  -20.7620  -49.3361 H         1 UNK         0.3000 
    206 H206        0.3197  -20.0415  -51.8910 H         1 UNK         0.0600 
    207 H207        1.6592  -19.8566  -49.8694 H         1 UNK         0.0600 
    208 H208        1.4452  -18.2411  -50.5245 H         1 UNK         0.0600 
    209 H209        0.5104  -18.7558  -49.1244 H         1 UNK         0.0600 
    210 H210       -1.0430  -17.5659  -49.7412 H         1 UNK         0.3000 
    211 H211       -2.3311  -15.8053  -50.0001 H         1 UNK         0.0600 
    212 H212       -3.9217  -17.3250  -52.1253 H         1 UNK         0.0600 
    213 H213       -4.5004  -16.0594  -51.0543 H         1 UNK         0.0600 
    214 H214       -4.0869  -17.6364  -50.3998 H         1 UNK         0.0600 
    215 H215        0.0014  -16.1477  -51.8176 H         1 UNK         0.3000 
    216 H216        1.1456  -15.2411  -53.4672 H         1 UNK         0.0600 
    217 H217        0.6585  -12.9708  -54.2964 H         1 UNK         0.0600 
    218 H218        0.4350  -13.0222  -52.5615 H         1 UNK         0.0600 
    219 H219       -0.9652  -13.0266  -53.6322 H         1 UNK         0.0600 
    220 H220       -1.3006  -17.0789  -54.0053 H         1 UNK         0.3000 
    221 H221       -1.5406  -16.6710  -56.9636 H         1 UNK         0.0600 
    222 H222       -3.3691  -18.1315  -54.9869 H         1 UNK         0.0600 
    223 H223       -3.6908  -16.5672  -55.7293 H         1 UNK         0.0600 
    224 H224       -3.6200  -18.0151  -56.7244 H         1 UNK         0.0600 
    225 H225       -0.9918  -19.0377  -54.3738 H         1 UNK         0.3000 
    226 H226        0.0535  -20.9393  -54.1654 H         1 UNK         0.0600 
    227 H227        1.8925  -20.1783  -55.6801 H         1 UNK         0.0600 
    228 H228        1.5992  -21.9077  -55.7911 H         1 UNK         0.0600 
    229 H229        1.0271  -20.8462  -57.0649 H         1 UNK         0.0600 
    230 H230       -1.0577  -22.6926  -53.8672 H         1 UNK         0.3000 
    231 H231       -2.5345  -24.3220  -53.9328 H         1 UNK         0.0600 
    232 H232       -3.1476  -25.5082  -55.9848 H         1 UNK         0.0600 
    233 H233       -1.4288  -25.1504  -56.0263 H         1 UNK         0.0600 
    234 H234       -2.5553  -24.1981  -56.9926 H         1 UNK         0.0600 
    235 H235       -3.2853  -21.7487  -53.4193 H         1 UNK         0.3000 
    236 H236       -5.4113  -20.6397  -54.8367 H         1 UNK         0.0600 
    237 H237       -4.7464  -20.4038  -51.8499 H         1 UNK         0.0600 
    238 H238       -4.0051  -19.4713  -53.1419 H         1 UNK         0.0600 
    239 H239       -5.7129  -19.2636  -52.7803 H         1 UNK         0.0600 
    240 H240       -5.5173  -23.2212  -52.4846 H         1 UNK         0.3000 
    241 H241       -8.4894  -23.2264  -52.3819 H         1 UNK         0.0600 
    242 H242       -7.1781  -25.9400  -54.9375 H         1 UNK         0.3800 
    243 H243       -6.3534  -24.4336  -54.6355 H         1 UNK         0.3800 
    244 H244       -8.1719  -24.9292  -50.5440 H         1 UNK         0.0800 
    245 H245       -6.4487  -24.6975  -50.6452 H         1 UNK         0.0800 
    246 H246       -5.3605  -22.0222  -50.0715 H         1 UNK         0.0800 
    247 H247       -5.3708  -23.3623  -48.9414 H         1 UNK         0.0800 
@<TRIPOS>BOND
     1    1    2 1    
     2    1  127 1    
     3    1  128 1    
     4    1  129 1    
     5    2    3 2    
     6    2    4 am   BACKBONE|DICT|INTERRES
     7    4    5 1    
     8    4  130 1    
     9    5    6 1    
    10    5   65 1    
    11    5  131 1    
    12    6    7 1    
    13    6  132 1    
    14    6  133 1    
    15    7    8 1    
    16    8    9 1    
    17    8  134 1    
    18    8  135 1    
    19    9   10 ar   
    20    9   14 ar   
    21   10   11 ar   
    22   10  136 1    
    23   11   12 ar   
    24   11  126 1    
    25   12   13 ar   
    26   12  137 1    
    27   13   14 ar   
    28   13   15 1    
    29   14  138 1    
    30   15   16 1    
    31   15  139 1    
    32   15  140 1    
    33   16   17 1    
    34   17   18 1    
    35   17  141 1    
    36   17  142 1    
    37   18   19 1    
    38   18   67 1    
    39   18  143 1    
    40   19   20 am   BACKBONE|DICT|INTERRES
    41   19  144 1    
    42   20   21 2    
    43   20   22 1    
    44   22   23 1    
    45   22   24 1    
    46   22  145 1    
    47   23  146 1    
    48   23  147 1    
    49   23  148 1    
    50   24   25 am   BACKBONE|DICT|INTERRES
    51   24  149 1    
    52   25   26 2    
    53   25   27 1    
    54   27   28 1    
    55   27   29 1    
    56   27  150 1    
    57   28  151 1    
    58   28  152 1    
    59   28  153 1    
    60   29   30 am   BACKBONE|DICT|INTERRES
    61   29  154 1    
    62   30   31 2    
    63   30   32 1    
    64   32   33 1    
    65   32   34 1    
    66   32  155 1    
    67   33  156 1    
    68   33  157 1    
    69   33  158 1    
    70   34   35 am   BACKBONE|DICT|INTERRES
    71   34  159 1    
    72   35   36 2    
    73   35   37 1    
    74   37   38 1    
    75   37   39 1    
    76   37  160 1    
    77   38  161 1    
    78   38  162 1    
    79   38  163 1    
    80   39   40 am   BACKBONE|DICT|INTERRES
    81   39  164 1    
    82   40   41 2    
    83   40   42 1    
    84   42   43 1    
    85   42   44 1    
    86   42  165 1    
    87   43  166 1    
    88   43  167 1    
    89   43  168 1    
    90   44   45 am   BACKBONE|DICT|INTERRES
    91   44  169 1    
    92   45   46 2    
    93   45   47 1    
    94   47   48 1    
    95   47   49 1    
    96   47  170 1    
    97   48  171 1    
    98   48  172 1    
    99   48  173 1    
   100   49   50 am   BACKBONE|DICT|INTERRES
   101   49  174 1    
   102   50   51 2    
   103   50   52 1    
   104   52   53 1    
   105   52   54 1    
   106   52  175 1    
   107   53  176 1    
   108   53  177 1    
   109   53  178 1    
   110   54   55 am   BACKBONE|DICT|INTERRES
   111   54  179 1    
   112   55   56 2    
   113   55   57 1    
   114   57   58 1    
   115   57   59 1    
   116   57  180 1    
   117   58  181 1    
   118   58  182 1    
   119   58  183 1    
   120   59   60 am   BACKBONE|DICT|INTERRES
   121   59  184 1    
   122   60   61 2    
   123   60   62 1    
   124   62   63 1    
   125   62   64 1    
   126   62  185 1    
   127   63  186 1    
   128   63  187 1    
   129   63  188 1    
   130   64   65 am   BACKBONE|DICT|INTERRES
   131   64  189 1    
   132   65   66 2    
   133   67   68 2    
   134   67   69 am   BACKBONE|DICT|INTERRES
   135   69   70 1    
   136   69  190 1    
   137   70   71 1    
   138   70   72 1    
   139   70  191 1    
   140   71  192 1    
   141   71  193 1    
   142   71  194 1    
   143   72   73 2    
   144   72   74 am   BACKBONE|DICT|INTERRES
   145   74   75 1    
   146   74  195 1    
   147   75   76 1    
   148   75   77 1    
   149   75  196 1    
   150   76  197 1    
   151   76  198 1    
   152   76  199 1    
   153   77   78 2    
   154   77   79 am   BACKBONE|DICT|INTERRES
   155   79   80 1    
   156   79  200 1    
   157   80   81 1    
   158   80   82 1    
   159   80  201 1    
   160   81  202 1    
   161   81  203 1    
   162   81  204 1    
   163   82   83 2    
   164   82   84 am   BACKBONE|DICT|INTERRES
   165   84   85 1    
   166   84  205 1    
   167   85   86 1    
   168   85   87 1    
   169   85  206 1    
   170   86  207 1    
   171   86  208 1    
   172   86  209 1    
   173   87   88 2    
   174   87   89 am   BACKBONE|DICT|INTERRES
   175   89   90 1    
   176   89  210 1    
   177   90   91 1    
   178   90   92 1    
   179   90  211 1    
   180   91  212 1    
   181   91  213 1    
   182   91  214 1    
   183   92   93 2    
   184   92   94 am   BACKBONE|DICT|INTERRES
   185   94   95 1    
   186   94  215 1    
   187   95   96 1    
   188   95   97 1    
   189   95  216 1    
   190   96  217 1    
   191   96  218 1    
   192   96  219 1    
   193   97   98 2    
   194   97   99 am   BACKBONE|DICT|INTERRES
   195   99  100 1    
   196   99  220 1    
   197  100  101 1    
   198  100  102 1    
   199  100  221 1    
   200  101  222 1    
   201  101  223 1    
   202  101  224 1    
   203  102  103 2    
   204  102  104 am   BACKBONE|DICT|INTERRES
   205  104  105 1    
   206  104  225 1    
   207  105  106 1    
   208  105  107 1    
   209  105  226 1    
   210  106  227 1    
   211  106  228 1    
   212  106  229 1    
   213  107  108 2    
   214  107  109 am   BACKBONE|DICT|INTERRES
   215  109  110 1    
   216  109  230 1    
   217  110  111 1    
   218  110  112 1    
   219  110  231 1    
   220  111  232 1    
   221  111  233 1    
   222  111  234 1    
   223  112  113 2    
   224  112  114 am   BACKBONE|DICT|INTERRES
   225  114  115 1    
   226  114  235 1    
   227  115  116 1    
   228  115  117 1    
   229  115  236 1    
   230  116  237 1    
   231  116  238 1    
   232  116  239 1    
   233  117  118 2    
   234  117  119 am   BACKBONE|DICT|INTERRES
   235  119  120 1    
   236  119  240 1    
   237  120  121 1    
   238  120  124 1    
   239  120  241 1    
   240  121  122 am   BACKBONE|DICT|INTERRES
   241  121  123 2    
   242  122  242 1    
   243  122  243 1    
   244  124  125 1    
   245  124  244 1    
   246  124  245 1    
   247  125  126 1    
   248  126  246 1    
   249  126  247 1    
@<TRIPOS>SUBSTRUCTURE
     1 UNK         1 GROUP             0       ****    0 ROOT    
