@<TRIPOS>MOLECULE
3R540
247   249    1
SMALL
USER_CHARGES


@<TRIPOS>ATOM
      1 CA          2.6172  -11.1410  -47.2104 C.3       0 UNK        -0.1800 
      2 C           1.7864  -12.3887  -47.4734 C.2       0 UNK         0.5000 
      3 O           2.1054  -13.4547  -46.9500 O.2       0 UNK        -0.5000 
      4 N           0.7262  -12.2581  -48.2817 N.am      1 UNK        -0.5000 
      5 CA         -0.2162  -13.3383  -48.6059 C.3       1 UNK         0.1400 
      6 C6         -0.7409  -13.2079  -50.0620 C.3       23 UNK        -0.0398 
      7 S7         -1.0469  -14.8331  -50.8324 S.3       23 UNK        -0.2404 
      8 C8          0.6195  -15.2217  -51.4513 C.3       23 UNK        -0.0205 
      9 C9          0.8584  -16.7218  -51.5117 C.ar      23 UNK        -0.0193 
     10 C10         0.8453  -17.3992  -52.7347 C.ar      23 UNK        -0.1150 
     11 C11         1.1156  -18.7712  -52.7913 C.ar      23 UNK        -0.0193 
     12 C12         1.3936  -19.4638  -51.6073 C.ar      23 UNK        -0.1150 
     13 C13         1.3854  -18.8008  -50.3772 C.ar      23 UNK        -0.0193 
     14 C14         1.1240  -17.4293  -50.3363 C.ar      23 UNK        -0.1150 
     15 C15         1.6595  -19.5613  -49.0918 C.3       23 UNK        -0.0205 
     16 S16         0.1225  -20.2663  -48.4091 S.3       23 UNK        -0.2404 
     17 C17         0.4662  -22.0564  -48.4254 C.3       23 UNK        -0.0398 
     18 CA          0.0070  -22.8264  -47.1637 C.3       11 UNK         0.1400 
     19 N           0.6834  -22.4292  -45.9216 N.am      11 UNK        -0.5000 
     20 C           0.7354  -23.2327  -44.8463 C.2       10 UNK         0.5000 
     21 O           0.2273  -24.3541  -44.8167 O.2       10 UNK        -0.5000 
     22 CA          1.4271  -22.7013  -43.5798 C.3       10 UNK         0.1400 
     23 CB          2.9549  -22.6966  -43.7384 C.3       10 UNK        -0.1800 
     24 N           0.9536  -21.3764  -43.1869 N.am      10 UNK        -0.5000 
     25 C          -0.3044  -21.0996  -42.8135 C.2       9 UNK         0.5000 
     26 O          -1.1993  -21.9423  -42.7442 O.2       9 UNK        -0.5000 
     27 CA         -0.6277  -19.6260  -42.5029 C.3       9 UNK         0.1400 
     28 CB         -0.1934  -19.2643  -41.0751 C.3       9 UNK        -0.1800 
     29 N          -0.0098  -18.7024  -43.4541 N.am      9 UNK        -0.5000 
     30 C          -0.2553  -18.6958  -44.7721 C.2       8 UNK         0.5000 
     31 O          -1.0786  -19.4277  -45.3171 O.2       8 UNK        -0.5000 
     32 CA          0.6020  -17.7534  -45.6299 C.3       8 UNK         0.1400 
     33 CB          0.0744  -16.3187  -45.5618 C.3       8 UNK        -0.1800 
     34 N           2.0091  -17.7827  -45.2372 N.am      8 UNK        -0.5000 
     35 C           2.8134  -18.8466  -45.3724 C.2       7 UNK         0.5000 
     36 O           2.4662  -19.9157  -45.8746 O.2       7 UNK        -0.5000 
     37 CA          4.2370  -18.6968  -44.8093 C.3       7 UNK         0.1400 
     38 CB          5.1341  -17.9348  -45.7963 C.3       7 UNK        -0.1800 
     39 N           4.2506  -18.0195  -43.5112 N.am      7 UNK        -0.5000 
     40 C           3.7281  -18.5352  -42.3895 C.2       6 UNK         0.5000 
     41 O           3.2108  -19.6499  -42.3269 O.2       6 UNK        -0.5000 
     42 CA          3.7536  -17.6404  -41.1369 C.3       6 UNK         0.1400 
     43 CB          5.0937  -17.7813  -40.3997 C.3       6 UNK        -0.1800 
     44 N           3.4994  -16.2243  -41.4194 N.am      6 UNK        -0.5000 
     45 C           2.3567  -15.7457  -41.9282 C.2       5 UNK         0.5000 
     46 O           1.4192  -16.4597  -42.2906 O.2       5 UNK        -0.5000 
     47 CA          2.2614  -14.2194  -42.0930 C.3       5 UNK         0.1400 
     48 CB          2.5814  -13.8122  -43.5389 C.3       5 UNK        -0.1800 
     49 N           0.9226  -13.7489  -41.7447 N.am      5 UNK        -0.5000 
     50 C           0.4765  -13.6057  -40.4871 C.2       4 UNK         0.5000 
     51 O           1.1899  -13.7494  -39.4930 O.2       4 UNK        -0.5000 
     52 CA         -1.0128  -13.2459  -40.2960 C.3       4 UNK         0.1400 
     53 CB         -1.1861  -11.7258  -40.1558 C.3       4 UNK        -0.1800 
     54 N          -1.8548  -13.7188  -41.3935 N.am      4 UNK        -0.5000 
     55 C          -2.1092  -15.0060  -41.6613 C.2       3 UNK         0.5000 
     56 O          -1.8242  -15.9223  -40.8907 O.2       3 UNK        -0.5000 
     57 CA         -2.7813  -15.3387  -43.0124 C.3       3 UNK         0.1400 
     58 CB         -4.1452  -16.0127  -42.7922 C.3       3 UNK        -0.1800 
     59 N          -2.9595  -14.2142  -43.9435 N.am      3 UNK        -0.5000 
     60 C          -1.9874  -13.4732  -44.4923 C.2       2 UNK         0.5000 
     61 O          -0.8018  -13.5411  -44.1638 O.2       2 UNK        -0.5000 
     62 CA         -2.4170  -12.4476  -45.5547 C.3       2 UNK         0.1400 
     63 CB         -2.4743  -11.0377  -44.9473 C.3       2 UNK        -0.1800 
     64 N          -1.4817  -12.4472  -46.6781 N.am      2 UNK        -0.5000 
     65 C          -1.3658  -13.4386  -47.5745 C.2       1 UNK         0.5000 
     66 O          -2.1257  -14.4071  -47.6035 O.2       1 UNK        -0.5000 
     67 C          -1.5283  -22.8935  -47.0107 C.2       11 UNK         0.5000 
     68 O          -2.1450  -23.7741  -47.6148 O.2       11 UNK        -0.5000 
     69 N          -2.1148  -22.0241  -46.1711 N.am      12 UNK        -0.5000 
     70 CA         -3.5300  -22.0581  -45.7894 C.3       12 UNK         0.1400 
     71 CB         -3.8923  -20.8227  -44.9526 C.3       12 UNK        -0.1800 
     72 C          -3.9209  -23.3505  -45.0533 C.2       12 UNK         0.5000 
     73 O          -4.9722  -23.9195  -45.3472 O.2       12 UNK        -0.5000 
     74 N          -3.0565  -23.8072  -44.1375 N.am      13 UNK        -0.5000 
     75 CA         -3.2065  -25.0800  -43.4346 C.3       13 UNK         0.1400 
     76 CB         -2.2284  -25.1296  -42.2509 C.3       13 UNK        -0.1800 
     77 C          -3.0064  -26.2943  -44.3611 C.2       13 UNK         0.5000 
     78 O          -3.7162  -27.2898  -44.2119 O.2       13 UNK        -0.5000 
     79 N          -2.0463  -26.1944  -45.2915 N.am      14 UNK        -0.5000 
     80 CA         -1.6917  -27.2570  -46.2305 C.3       14 UNK         0.1400 
     81 CB         -0.3450  -26.9371  -46.8969 C.3       14 UNK        -0.1800 
     82 C          -2.7694  -27.5238  -47.2961 C.2       14 UNK         0.5000 
     83 O          -3.1102  -28.6871  -47.5181 O.2       14 UNK        -0.5000 
     84 N          -3.2695  -26.4649  -47.9500 N.am      15 UNK        -0.5000 
     85 CA         -4.2000  -26.5881  -49.0786 C.3       15 UNK         0.1400 
     86 CB         -3.4279  -26.9930  -50.3506 C.3       15 UNK        -0.1800 
     87 C          -5.0347  -25.3277  -49.3589 C.2       15 UNK         0.5000 
     88 O          -6.1158  -25.4567  -49.9345 O.2       15 UNK        -0.5000 
     89 N          -4.5228  -24.1412  -48.9979 N.am      16 UNK        -0.5000 
     90 CA         -5.0869  -22.8170  -49.2950 C.3       16 UNK         0.1400 
     91 CB         -6.4472  -22.6063  -48.5976 C.3       16 UNK        -0.1800 
     92 C          -5.1172  -22.4849  -50.8008 C.2       16 UNK         0.5000 
     93 O          -5.9674  -21.7145  -51.2501 O.2       16 UNK        -0.5000 
     94 N          -4.1445  -23.0289  -51.5487 N.am      17 UNK        -0.5000 
     95 CA         -3.9471  -22.8062  -52.9854 C.3       17 UNK         0.1400 
     96 CB         -2.8167  -23.7206  -53.4791 C.3       17 UNK        -0.1800 
     97 C          -3.6534  -21.3365  -53.3476 C.2       17 UNK         0.5000 
     98 O          -3.9341  -20.9175  -54.4713 O.2       17 UNK        -0.5000 
     99 N          -3.1476  -20.5677  -52.3725 N.am      18 UNK        -0.5000 
    100 CA        -2.8975  -19.1270  -52.4329 C.3       18 UNK         0.1400 
    101 CB        -2.3462  -18.6742  -51.0752 C.3       18 UNK        -0.1800 
    102 C         -4.1350  -18.2872  -52.8084 C.2       18 UNK         0.5000 
    103 O         -3.9794  -17.2280  -53.4154 O.2       18 UNK        -0.5000 
    104 N         -5.3413  -18.7935  -52.5063 N.am      19 UNK        -0.5000 
    105 CA        -6.6221  -18.2039  -52.9092 C.3       19 UNK         0.1400 
    106 CB        -7.7615  -18.9558  -52.2053 C.3       19 UNK        -0.1800 
    107 C         -6.8447  -18.1961  -54.4373 C.2       19 UNK         0.5000 
    108 O         -7.5969  -17.3569  -54.9334 O.2       19 UNK        -0.5000 
    109 N         -6.1700  -19.1064  -55.1515 N.am      20 UNK        -0.5000 
    110 CA        -6.1254  -19.1957  -56.6109 C.3       20 UNK         0.1400 
    111 CB        -6.4964  -20.6327  -57.0184 C.3       20 UNK        -0.1800 
    112 C         -4.7329  -18.7981  -57.1459 C.2       20 UNK         0.5000 
    113 O         -4.3810  -19.1751  -58.2659 O.2       20 UNK        -0.5000 
    114 N         -3.9409  -18.0878  -56.3237 N.am      21 UNK        -0.5000 
    115 CA        -2.5551  -17.6591  -56.5591 C.3       21 UNK         0.1400 
    116 CB        -2.5069  -16.5782  -57.6582 C.3       21 UNK        -0.1800 
    117 C         -1.5806  -18.8271  -56.8322 C.2       21 UNK         0.5000 
    118 O         -0.5499  -18.6292  -57.4775 O.2       21 UNK        -0.5000 
    119 N         -1.9338  -20.0238  -56.3451 N.am      22 UNK        -0.5000 
    120 CA        -1.2592  -21.3085  -56.5837 C.3       22 UNK         0.1400 
    121 C         -1.3041  -21.7923  -58.0663 C.2       22 UNK         0.5000 
    122 N         -2.2031  -21.2828  -58.9023 N.am      22 UNK        -0.7600 
    123 O         -0.5370  -22.6656  -58.4630 O.2       22 UNK        -0.5000 
    124 C124        0.1572  -21.3903  -55.9502 C.3       23 UNK        -0.0398 
    125 S125        0.1417  -21.0029  -54.1641 S.3       23 UNK        -0.2404 
    126 C126        1.1478  -19.4843  -54.1377 C.3       23 UNK        -0.0205 
    127 H127        2.2184  -10.2696  -47.7302 H         1 UNK         0.0600 
    128 H128        3.6430  -11.2968  -47.5440 H         1 UNK         0.0600 
    129 H129        2.6346  -10.9223  -46.1426 H         1 UNK         0.0600 
    130 H130        0.5232  -11.3568  -48.6915 H         1 UNK         0.3000 
    131 H131        0.3296  -14.2816  -48.5321 H         1 UNK         0.0600 
    132 H132       -1.6540  -12.6116  -50.1090 H         1 UNK         0.0800 
    133 H133       -0.0185  -12.6804  -50.6870 H         1 UNK         0.0800 
    134 H134        0.7526  -14.7659  -52.4336 H         1 UNK         0.0800 
    135 H135        1.3739  -14.7749  -50.8017 H         1 UNK         0.0800 
    136 H136        0.6422  -16.8525  -53.6448 H         1 UNK         0.1150 
    137 H137        1.6059  -20.5230  -51.6419 H         1 UNK         0.1150 
    138 H138        1.1235  -16.9103  -49.3878 H         1 UNK         0.1150 
    139 H139        2.4094  -20.3311  -49.2735 H         1 UNK         0.0800 
    140 H140        2.0995  -18.8896  -48.3547 H         1 UNK         0.0800 
    141 H141        1.5356  -22.2227  -48.5538 H         1 UNK         0.0800 
    142 H142       -0.0017  -22.4796  -49.3159 H         1 UNK         0.0800 
    143 H143        0.3164  -23.8562  -47.3503 H         1 UNK         0.0600 
    144 H144        1.1169  -21.5110  -45.8957 H         1 UNK         0.3000 
    145 H145        1.1833  -23.3865  -42.7651 H         1 UNK         0.0600 
    146 H146        3.4458  -22.4091  -42.8086 H         1 UNK         0.0600 
    147 H147        3.3215  -23.6884  -44.0057 H         1 UNK         0.0600 
    148 H148        3.2823  -22.0069  -44.5154 H         1 UNK         0.0600 
    149 H149        1.6437  -20.6329  -43.1715 H         1 UNK         0.3000 
    150 H150       -1.7094  -19.4966  -42.5725 H         1 UNK         0.0600 
    151 H151       -0.6897  -19.9028  -40.3435 H         1 UNK         0.0600 
    152 H152       -0.4483  -18.2328  -40.8338 H         1 UNK         0.0600 
    153 H153        0.8813  -19.3813  -40.9378 H         1 UNK         0.0600 
    154 H154        0.6467  -18.0250  -43.0742 H         1 UNK         0.3000 
    155 H155        0.5317  -18.0781  -46.6669 H         1 UNK         0.0600 
    156 H156        0.1351  -15.9232  -44.5493 H         1 UNK         0.0600 
    157 H157       -0.9702  -16.2725  -45.8711 H         1 UNK         0.0600 
    158 H158        0.6382  -15.6555  -46.2170 H         1 UNK         0.0600 
    159 H159        2.3642  -16.9632  -44.7687 H         1 UNK         0.3000 
    160 H160        4.6501  -19.6990  -44.6755 H         1 UNK         0.0600 
    161 H161        4.7885  -16.9119  -45.9514 H         1 UNK         0.0600 
    162 H162        5.1480  -18.4275  -46.7695 H         1 UNK         0.0600 
    163 H163        6.1635  -17.8915  -45.4403 H         1 UNK         0.0600 
    164 H164        4.6573  -17.0966  -43.4759 H         1 UNK         0.3000 
    165 H165        2.9626  -17.9902  -40.4703 H         1 UNK         0.0600 
    166 H166        5.0870  -17.2291  -39.4598 H         1 UNK         0.0600 
    167 H167        5.2991  -18.8254  -40.1597 H         1 UNK         0.0600 
    168 H168        5.9260  -17.4128  -41.0007 H         1 UNK         0.0600 
    169 H169        4.2284  -15.5767  -41.1565 H         1 UNK         0.3000 
    170 H170        2.9873  -13.7404  -41.4326 H         1 UNK         0.0600 
    171 H171        3.5871  -14.1239  -43.8229 H         1 UNK         0.0600 
    172 H172        1.8867  -14.2619  -44.2485 H         1 UNK         0.0600 
    173 H173        2.5278  -12.7309  -43.6660 H         1 UNK         0.0600 
    174 H174        0.2668  -13.6616  -42.5159 H         1 UNK         0.3000 
    175 H175       -1.3540  -13.7183  -39.3725 H         1 UNK         0.0600 
    176 H176       -0.8747  -11.2004  -41.0597 H         1 UNK         0.0600 
    177 H177       -2.2251  -11.4637  -39.9552 H         1 UNK         0.0600 
    178 H178       -0.5887  -11.3395  -39.3289 H         1 UNK         0.0600 
    179 H179       -2.1189  -13.0356  -42.0872 H         1 UNK         0.3000 
    180 H180       -2.1293  -16.0631  -43.5038 H         1 UNK         0.0600 
    181 H181       -4.8566  -15.3329  -42.3217 H         1 UNK         0.0600 
    182 H182       -4.0530  -16.8889  -42.1488 H         1 UNK         0.0600 
    183 H183       -4.5750  -16.3525  -43.7347 H         1 UNK         0.0600 
    184 H184       -3.9084  -14.0553  -44.2505 H         1 UNK         0.3000 
    185 H185       -3.4095  -12.7079  -45.9286 H         1 UNK         0.0600 
    186 H186       -3.1831  -10.9974  -44.1192 H         1 UNK         0.0600 
    187 H187       -1.5025  -10.7241  -44.5631 H         1 UNK         0.0600 
    188 H188       -2.7963  -10.3029  -45.6854 H         1 UNK         0.0600 
    189 H189       -0.7882  -11.7148  -46.6872 H         1 UNK         0.3000 
    190 H190       -1.5556  -21.2813  -45.7599 H         1 UNK         0.3000 
    191 H191       -4.1221  -22.0142  -46.7002 H         1 UNK         0.0600 
    192 H192       -3.7318  -19.9044  -45.5174 H         1 UNK         0.0600 
    193 H193       -4.9430  -20.8424  -44.6607 H         1 UNK         0.0600 
    194 H194       -3.2996  -20.7648  -44.0403 H         1 UNK         0.0600 
    195 H195       -2.2399  -23.2499  -43.9065 H         1 UNK         0.3000 
    196 H196       -4.2217  -25.1301  -43.0352 H         1 UNK         0.0600 
    197 H197       -2.3314  -26.0636  -41.6972 H         1 UNK         0.0600 
    198 H198       -2.4154  -24.3142  -41.5520 H         1 UNK         0.0600 
    199 H199       -1.1916  -25.0546  -42.5802 H         1 UNK         0.0600 
    200 H200       -1.4595  -25.3668  -45.2951 H         1 UNK         0.3000 
    201 H201       -1.5629  -28.1756  -45.6540 H         1 UNK         0.0600 
    202 H202        0.4396  -26.7867  -46.1552 H         1 UNK         0.0600 
    203 H203       -0.4041  -26.0414  -47.5137 H         1 UNK         0.0600 
    204 H204       -0.0276  -27.7563  -47.5433 H         1 UNK         0.0600 
    205 H205       -2.9439  -25.5358  -47.7028 H         1 UNK         0.3000 
    206 H206       -4.9200  -27.3763  -48.8473 H         1 UNK         0.0600 
    207 H207       -2.9562  -27.9692  -50.2390 H         1 UNK         0.0600 
    208 H208       -4.0930  -27.0570  -51.2130 H         1 UNK         0.0600 
    209 H209       -2.6472  -26.2702  -50.5906 H         1 UNK         0.0600 
    210 H210       -3.6198  -24.1160  -48.5292 H         1 UNK         0.3000 
    211 H211       -4.3879  -22.0943  -48.8763 H         1 UNK         0.0600 
    212 H212       -7.2310  -23.2205  -49.0410 H         1 UNK         0.0600 
    213 H213       -6.7679  -21.5668  -48.6739 H         1 UNK         0.0600 
    214 H214       -6.3907  -22.8503  -47.5371 H         1 UNK         0.0600 
    215 H215       -3.4874  -23.6459  -51.0951 H         1 UNK         0.3000 
    216 H216       -4.8697  -23.0903  -53.4955 H         1 UNK         0.0600 
    217 H217       -2.7027  -23.6505  -54.5608 H         1 UNK         0.0600 
    218 H218       -3.0225  -24.7656  -53.2460 H         1 UNK         0.0600 
    219 H219       -1.8587  -23.4570  -53.0288 H         1 UNK         0.0600 
    220 H220       -2.9415  -21.0135  -51.4919 H         1 UNK         0.3000 
    221 H221       -2.1341  -18.9550  -53.1945 H         1 UNK         0.0600 
    222 H222       -3.0662  -18.8310  -50.2712 H         1 UNK         0.0600 
    223 H223       -1.4374  -19.2175  -50.8212 H         1 UNK         0.0600 
    224 H224       -2.0942  -17.6141  -51.0902 H         1 UNK         0.0600 
    225 H225       -5.3905  -19.6854  -52.0281 H         1 UNK         0.3000 
    226 H226       -6.6344  -17.1662  -52.5698 H         1 UNK         0.0600 
    227 H227       -7.6448  -18.9269  -51.1218 H         1 UNK         0.0600 
    228 H228       -8.7287  -18.5098  -52.4406 H         1 UNK         0.0600 
    229 H229       -7.7995  -20.0024  -52.5102 H         1 UNK         0.0600 
    230 H230       -5.5488  -19.7451  -54.6650 H         1 UNK         0.3000 
    231 H231       -6.8484  -18.5133  -57.0615 H         1 UNK         0.0600 
    232 H232       -7.4744  -20.9126  -56.6265 H         1 UNK         0.0600 
    233 H233       -5.7678  -21.3552  -56.6480 H         1 UNK         0.0600 
    234 H234       -6.5421  -20.7366  -58.1031 H         1 UNK         0.0600 
    235 H235       -4.3110  -17.8334  -55.4153 H         1 UNK         0.3000 
    236 H236       -2.2168  -17.1999  -55.6293 H         1 UNK         0.0600 
    237 H237       -1.5084  -16.1476  -57.7423 H         1 UNK         0.0600 
    238 H238       -2.7718  -16.9832  -58.6353 H         1 UNK         0.0600 
    239 H239       -3.1925  -15.7603  -57.4366 H         1 UNK         0.0600 
    240 H240       -2.7890  -20.0961  -55.8033 H         1 UNK         0.3000 
    241 H241       -1.8731  -22.0398  -56.0599 H         1 UNK         0.0600 
    242 H242       -2.8539  -20.5666  -58.5997 H         1 UNK         0.3800 
    243 H243       -2.2317  -21.6089  -59.8553 H         1 UNK         0.3800 
    244 H244        0.8508  -20.7323  -56.4752 H         1 UNK         0.0800 
    245 H245        0.5615  -22.3980  -56.0569 H         1 UNK         0.0800 
    246 H246        2.1810  -19.7356  -54.3801 H         1 UNK         0.0800 
    247 H247        0.7969  -18.8161  -54.9251 H         1 UNK         0.0800 
@<TRIPOS>BOND
     1    1    2 1    
     2    1  127 1    
     3    1  128 1    
     4    1  129 1    
     5    2    3 2    
     6    2    4 am   BACKBONE|DICT|INTERRES
     7    4    5 1    
     8    4  130 1    
     9    5    6 1    
    10    5   65 1    
    11    5  131 1    
    12    6    7 1    
    13    6  132 1    
    14    6  133 1    
    15    7    8 1    
    16    8    9 1    
    17    8  134 1    
    18    8  135 1    
    19    9   10 ar   
    20    9   14 ar   
    21   10   11 ar   
    22   10  136 1    
    23   11   12 ar   
    24   11  126 1    
    25   12   13 ar   
    26   12  137 1    
    27   13   14 ar   
    28   13   15 1    
    29   14  138 1    
    30   15   16 1    
    31   15  139 1    
    32   15  140 1    
    33   16   17 1    
    34   17   18 1    
    35   17  141 1    
    36   17  142 1    
    37   18   19 1    
    38   18   67 1    
    39   18  143 1    
    40   19   20 am   BACKBONE|DICT|INTERRES
    41   19  144 1    
    42   20   21 2    
    43   20   22 1    
    44   22   23 1    
    45   22   24 1    
    46   22  145 1    
    47   23  146 1    
    48   23  147 1    
    49   23  148 1    
    50   24   25 am   BACKBONE|DICT|INTERRES
    51   24  149 1    
    52   25   26 2    
    53   25   27 1    
    54   27   28 1    
    55   27   29 1    
    56   27  150 1    
    57   28  151 1    
    58   28  152 1    
    59   28  153 1    
    60   29   30 am   BACKBONE|DICT|INTERRES
    61   29  154 1    
    62   30   31 2    
    63   30   32 1    
    64   32   33 1    
    65   32   34 1    
    66   32  155 1    
    67   33  156 1    
    68   33  157 1    
    69   33  158 1    
    70   34   35 am   BACKBONE|DICT|INTERRES
    71   34  159 1    
    72   35   36 2    
    73   35   37 1    
    74   37   38 1    
    75   37   39 1    
    76   37  160 1    
    77   38  161 1    
    78   38  162 1    
    79   38  163 1    
    80   39   40 am   BACKBONE|DICT|INTERRES
    81   39  164 1    
    82   40   41 2    
    83   40   42 1    
    84   42   43 1    
    85   42   44 1    
    86   42  165 1    
    87   43  166 1    
    88   43  167 1    
    89   43  168 1    
    90   44   45 am   BACKBONE|DICT|INTERRES
    91   44  169 1    
    92   45   46 2    
    93   45   47 1    
    94   47   48 1    
    95   47   49 1    
    96   47  170 1    
    97   48  171 1    
    98   48  172 1    
    99   48  173 1    
   100   49   50 am   BACKBONE|DICT|INTERRES
   101   49  174 1    
   102   50   51 2    
   103   50   52 1    
   104   52   53 1    
   105   52   54 1    
   106   52  175 1    
   107   53  176 1    
   108   53  177 1    
   109   53  178 1    
   110   54   55 am   BACKBONE|DICT|INTERRES
   111   54  179 1    
   112   55   56 2    
   113   55   57 1    
   114   57   58 1    
   115   57   59 1    
   116   57  180 1    
   117   58  181 1    
   118   58  182 1    
   119   58  183 1    
   120   59   60 am   BACKBONE|DICT|INTERRES
   121   59  184 1    
   122   60   61 2    
   123   60   62 1    
   124   62   63 1    
   125   62   64 1    
   126   62  185 1    
   127   63  186 1    
   128   63  187 1    
   129   63  188 1    
   130   64   65 am   BACKBONE|DICT|INTERRES
   131   64  189 1    
   132   65   66 2    
   133   67   68 2    
   134   67   69 am   BACKBONE|DICT|INTERRES
   135   69   70 1    
   136   69  190 1    
   137   70   71 1    
   138   70   72 1    
   139   70  191 1    
   140   71  192 1    
   141   71  193 1    
   142   71  194 1    
   143   72   73 2    
   144   72   74 am   BACKBONE|DICT|INTERRES
   145   74   75 1    
   146   74  195 1    
   147   75   76 1    
   148   75   77 1    
   149   75  196 1    
   150   76  197 1    
   151   76  198 1    
   152   76  199 1    
   153   77   78 2    
   154   77   79 am   BACKBONE|DICT|INTERRES
   155   79   80 1    
   156   79  200 1    
   157   80   81 1    
   158   80   82 1    
   159   80  201 1    
   160   81  202 1    
   161   81  203 1    
   162   81  204 1    
   163   82   83 2    
   164   82   84 am   BACKBONE|DICT|INTERRES
   165   84   85 1    
   166   84  205 1    
   167   85   86 1    
   168   85   87 1    
   169   85  206 1    
   170   86  207 1    
   171   86  208 1    
   172   86  209 1    
   173   87   88 2    
   174   87   89 am   BACKBONE|DICT|INTERRES
   175   89   90 1    
   176   89  210 1    
   177   90   91 1    
   178   90   92 1    
   179   90  211 1    
   180   91  212 1    
   181   91  213 1    
   182   91  214 1    
   183   92   93 2    
   184   92   94 am   BACKBONE|DICT|INTERRES
   185   94   95 1    
   186   94  215 1    
   187   95   96 1    
   188   95   97 1    
   189   95  216 1    
   190   96  217 1    
   191   96  218 1    
   192   96  219 1    
   193   97   98 2    
   194   97   99 am   BACKBONE|DICT|INTERRES
   195   99  100 1    
   196   99  220 1    
   197  100  101 1    
   198  100  102 1    
   199  100  221 1    
   200  101  222 1    
   201  101  223 1    
   202  101  224 1    
   203  102  103 2    
   204  102  104 am   BACKBONE|DICT|INTERRES
   205  104  105 1    
   206  104  225 1    
   207  105  106 1    
   208  105  107 1    
   209  105  226 1    
   210  106  227 1    
   211  106  228 1    
   212  106  229 1    
   213  107  108 2    
   214  107  109 am   BACKBONE|DICT|INTERRES
   215  109  110 1    
   216  109  230 1    
   217  110  111 1    
   218  110  112 1    
   219  110  231 1    
   220  111  232 1    
   221  111  233 1    
   222  111  234 1    
   223  112  113 2    
   224  112  114 am   BACKBONE|DICT|INTERRES
   225  114  115 1    
   226  114  235 1    
   227  115  116 1    
   228  115  117 1    
   229  115  236 1    
   230  116  237 1    
   231  116  238 1    
   232  116  239 1    
   233  117  118 2    
   234  117  119 am   BACKBONE|DICT|INTERRES
   235  119  120 1    
   236  119  240 1    
   237  120  121 1    
   238  120  124 1    
   239  120  241 1    
   240  121  122 am   BACKBONE|DICT|INTERRES
   241  121  123 2    
   242  122  242 1    
   243  122  243 1    
   244  124  125 1    
   245  124  244 1    
   246  124  245 1    
   247  125  126 1    
   248  126  246 1    
   249  126  247 1    
@<TRIPOS>SUBSTRUCTURE
     1 UNK         1 GROUP             0       ****    0 ROOT    
