@<TRIPOS>MOLECULE
3R540
247   249    1
SMALL
USER_CHARGES


@<TRIPOS>ATOM
      1 CA         -2.7615  -15.3926  -45.2069 C.3       0 UNK        -0.1800 
      2 C          -2.5216  -14.3211  -46.2620 C.2       0 UNK         0.5000 
      3 O          -3.2939  -13.3672  -46.3486 O.2       0 UNK        -0.5000 
      4 N          -1.4579  -14.4784  -47.0623 N.am      1 UNK        -0.5000 
      5 CA         -1.0700  -13.5834  -48.1621 C.3       1 UNK         0.1400 
      6 C6          0.1198  -14.1464  -48.9782 C.3       23 UNK        -0.0398 
      7 S7         -0.2045  -15.7903  -49.6934 S.3       23 UNK        -0.2404 
      8 C8          1.0339  -15.7933  -51.0262 C.3       23 UNK        -0.0205 
      9 C9          1.0296  -17.1090  -51.7856 C.ar      23 UNK        -0.0193 
     10 C10         0.3245  -17.2316  -52.9850 C.ar      23 UNK        -0.1150 
     11 C11         0.3229  -18.4374  -53.6929 C.ar      23 UNK        -0.0193 
     12 C12         1.0178  -19.5333  -53.1660 C.ar      23 UNK        -0.1150 
     13 C13         1.7252  -19.4309  -51.9637 C.ar      23 UNK        -0.0193 
     14 C14         1.7399  -18.2038  -51.2898 C.ar      23 UNK        -0.1150 
     15 C15         2.4674  -20.6604  -51.4328 C.3       23 UNK        -0.0205 
     16 S16         2.6611  -20.7339  -49.6151 S.3       23 UNK        -0.2404 
     17 C17         0.9346  -20.5767  -49.0463 C.3       23 UNK        -0.0398 
     18 CA          0.4846  -21.6894  -48.0620 C.3       11 UNK         0.1400 
     19 N           1.1830  -21.5977  -46.7809 N.am      11 UNK        -0.5000 
     20 C           2.2341  -22.3561  -46.4439 C.2       10 UNK         0.5000 
     21 O           2.5910  -23.3581  -47.0649 O.2       10 UNK        -0.5000 
     22 CA          3.0541  -21.8940  -45.2281 C.3       10 UNK         0.1400 
     23 CB          3.8758  -20.6430  -45.5776 C.3       10 UNK        -0.1800 
     24 N           2.2143  -21.6223  -44.0655 N.am      10 UNK        -0.5000 
     25 C           1.7010  -22.5757  -43.2781 C.2       9 UNK         0.5000 
     26 O           1.9464  -23.7743  -43.4126 O.2       9 UNK        -0.5000 
     27 CA          0.7629  -22.1240  -42.1435 C.3       9 UNK         0.1400 
     28 CB          1.5600  -21.9005  -40.8498 C.3       9 UNK        -0.1800 
     29 N           0.0051  -20.9126  -42.4579 N.am      9 UNK        -0.5000 
     30 C          -0.9395  -20.8218  -43.4040 C.2       8 UNK         0.5000 
     31 O          -1.2938  -21.7560  -44.1271 O.2       8 UNK        -0.5000 
     32 CA         -1.5578  -19.4303  -43.6166 C.3       8 UNK         0.1400 
     33 CB         -2.5332  -19.0630  -42.4900 C.3       8 UNK        -0.1800 
     34 N          -0.5420  -18.3871  -43.7458 N.am      8 UNK        -0.5000 
     35 C           0.3737  -18.3202  -44.7213 C.2       7 UNK         0.5000 
     36 O           0.4003  -19.0855  -45.6861 O.2       7 UNK        -0.5000 
     37 CA          1.4632  -17.2436  -44.5773 C.3       7 UNK         0.1400 
     38 CB          1.0272  -15.9226  -45.2249 C.3       7 UNK        -0.1800 
     39 N           1.8323  -17.0172  -43.1790 N.am      7 UNK        -0.5000 
     40 C           2.5561  -17.8789  -42.4504 C.2       6 UNK         0.5000 
     41 O           3.0162  -18.9291  -42.8958 O.2       6 UNK        -0.5000 
     42 CA          2.7583  -17.5344  -40.9648 C.3       6 UNK         0.1400 
     43 CB          3.9275  -16.5574  -40.7803 C.3       6 UNK        -0.1800 
     44 N           1.5484  -16.9806  -40.3561 N.am      6 UNK        -0.5000 
     45 C           0.4470  -17.7048  -40.1102 C.2       5 UNK         0.5000 
     46 O           0.3551  -18.9063  -40.3592 O.2       5 UNK        -0.5000 
     47 CA         -0.7716  -16.9661  -39.5258 C.3       5 UNK         0.1400 
     48 CB         -0.7156  -16.9728  -37.9911 C.3       5 UNK        -0.1800 
     49 N          -0.9197  -15.5880  -39.9947 N.am      5 UNK        -0.5000 
     50 C          -1.0316  -15.2031  -41.2732 C.2       4 UNK         0.5000 
     51 O          -0.9880  -15.9804  -42.2280 O.2       4 UNK        -0.5000 
     52 CA         -1.1847  -13.6939  -41.5465 C.3       4 UNK         0.1400 
     53 CB         -1.3972  -12.8369  -40.2782 C.3       4 UNK        -0.1800 
     54 N          -0.0634  -13.1657  -42.3273 N.am      4 UNK        -0.5000 
     55 C           1.2433  -13.2280  -42.0291 C.2       3 UNK         0.5000 
     56 O           1.6883  -13.8227  -41.0456 O.2       3 UNK        -0.5000 
     57 CA          2.2238  -12.5179  -42.9905 C.3       3 UNK         0.1400 
     58 CB          3.4809  -13.3667  -43.2485 C.3       3 UNK        -0.1800 
     59 N           1.6340  -12.1389  -44.2813 N.am      3 UNK        -0.5000 
     60 C           0.8890  -11.0435  -44.4956 C.2       2 UNK         0.5000 
     61 O           0.5530  -10.2616  -43.6069 O.2       2 UNK        -0.5000 
     62 CA          0.4157  -10.8030  -45.9351 C.3       2 UNK         0.1400 
     63 CB          1.5392  -10.1499  -46.7649 C.3       2 UNK        -0.1800 
     64 N          -0.0339  -12.0558  -46.5449 N.am      2 UNK        -0.5000 
     65 C          -0.7250  -12.1553  -47.6880 C.2       1 UNK         0.5000 
     66 O          -1.0790  -11.1890  -48.3651 O.2       1 UNK        -0.5000 
     67 C          -1.0369  -21.6070  -47.8720 C.2       11 UNK         0.5000 
     68 O          -1.7525  -22.5190  -48.2900 O.2       11 UNK        -0.5000 
     69 N          -1.5122  -20.4730  -47.3387 N.am      12 UNK        -0.5000 
     70 CA         -2.8723  -19.9778  -47.5690 C.3       12 UNK         0.1400 
     71 CB         -2.9326  -18.4724  -47.2600 C.3       12 UNK        -0.1800 
     72 C          -4.0006  -20.7507  -46.8639 C.2       12 UNK         0.5000 
     73 O          -5.1476  -20.6288  -47.2939 O.2       12 UNK        -0.5000 
     74 N          -3.6732  -21.5380  -45.8330 N.am      13 UNK        -0.5000 
     75 CA         -4.6201  -22.4062  -45.1303 C.3       13 UNK         0.1400 
     76 CB         -4.8346  -21.8953  -43.6980 C.3       13 UNK        -0.1800 
     77 C          -4.1334  -23.8609  -45.1153 C.2       13 UNK         0.5000 
     78 O          -4.9509  -24.7661  -45.2811 O.2       13 UNK        -0.5000 
     79 N          -2.8218  -24.0655  -44.9218 N.am      14 UNK        -0.5000 
     80 CA         -2.1973  -25.3863  -44.8280 C.3       14 UNK         0.1400 
     81 CB         -0.7413  -25.2264  -44.3760 C.3       14 UNK        -0.1800 
     82 C          -2.2733  -26.1910  -46.1362 C.2       14 UNK         0.5000 
     83 O          -2.6227  -27.3716  -46.1025 O.2       14 UNK        -0.5000 
     84 N          -1.9620  -25.5312  -47.2584 N.am      15 UNK        -0.5000 
     85 CA         -2.0644  -26.1025  -48.6022 C.3       15 UNK         0.1400 
     86 CB         -0.7964  -25.7365  -49.3916 C.3       15 UNK        -0.1800 
     87 C          -3.3162  -25.5987  -49.3422 C.2       15 UNK         0.5000 
     88 O          -3.7336  -26.2309  -50.3124 O.2       15 UNK        -0.5000 
     89 N          -3.8579  -24.4523  -48.8980 N.am      16 UNK        -0.5000 
     90 CA         -4.8908  -23.6370  -49.5490 C.3       16 UNK         0.1400 
     91 CB         -6.2327  -24.3907  -49.6409 C.3       16 UNK        -0.1800 
     92 C          -4.4208  -23.0720  -50.9073 C.2       16 UNK         0.5000 
     93 O          -5.2427  -22.7822  -51.7778 O.2       16 UNK        -0.5000 
     94 N          -3.0972  -22.9208  -51.0653 N.am      17 UNK        -0.5000 
     95 CA         -2.4405  -22.5696  -52.3235 C.3       17 UNK         0.1400 
     96 CB         -0.9232  -22.7472  -52.1742 C.3       17 UNK        -0.1800 
     97 C          -2.7879  -21.1539  -52.8040 C.2       17 UNK         0.5000 
     98 O          -3.0002  -20.9577  -53.9990 O.2       17 UNK        -0.5000 
     99 N          -2.8880  -20.2096  -51.8589 N.am      18 UNK        -0.5000 
    100 CA        -3.2798  -18.8232  -52.1153 C.3       18 UNK         0.1400 
    101 CB        -3.0032  -17.9763  -50.8666 C.3       18 UNK        -0.1800 
    102 C         -4.7525  -18.6956  -52.5466 C.2       18 UNK         0.5000 
    103 O         -5.0602  -17.8711  -53.4065 O.2       18 UNK        -0.5000 
    104 N         -5.6263  -19.5373  -51.9740 N.am      19 UNK        -0.5000 
    105 CA        -7.0479  -19.6200  -52.3187 C.3       19 UNK         0.1400 
    106 CB        -7.7990  -20.3903  -51.2217 C.3       19 UNK        -0.1800 
    107 C         -7.2709  -20.2653  -53.6989 C.2       19 UNK         0.5000 
    108 O         -8.1453  -19.8245  -54.4452 O.2       19 UNK        -0.5000 
    109 N         -6.4441  -21.2672  -54.0286 N.am      20 UNK        -0.5000 
    110 CA        -6.3822  -21.9140  -55.3416 C.3       20 UNK         0.1400 
    111 CB        -5.6385  -23.2506  -55.1903 C.3       20 UNK        -0.1800 
    112 C         -5.7088  -21.0438  -56.4260 C.2       20 UNK         0.5000 
    113 O         -5.7859  -21.3884  -57.6057 O.2       20 UNK        -0.5000 
    114 N         -5.0434  -19.9567  -56.0068 N.am      21 UNK        -0.5000 
    115 CA        -4.2603  -19.0032  -56.8016 C.3       21 UNK         0.1400 
    116 CB        -5.1465  -18.2804  -57.8372 C.3       21 UNK        -0.1800 
    117 C         -2.9810  -19.6085  -57.4215 C.2       21 UNK         0.5000 
    118 O         -2.4322  -19.0275  -58.3582 O.2       21 UNK        -0.5000 
    119 N         -2.5271  -20.7390  -56.8595 N.am      22 UNK        -0.5000 
    120 CA        -1.2890  -21.4927  -57.1340 C.3       22 UNK         0.1400 
    121 C         -0.9055  -21.7592  -58.6235 C.2       22 UNK         0.5000 
    122 N         -1.8579  -21.7915  -59.5468 N.am      22 UNK        -0.7600 
    123 O          0.2569  -21.9898  -58.9466 O.2       22 UNK        -0.5000 
    124 C124       -0.1110  -21.0629  -56.2138 C.3       23 UNK        -0.0398 
    125 S125        0.4380  -19.3260  -56.3729 S.3       23 UNK        -0.2404 
    126 C126       -0.4658  -18.5342  -54.9980 C.3       23 UNK        -0.0205 
    127 H127       -2.7527  -14.9491  -44.2118 H         1 UNK         0.0600 
    128 H128       -2.0018  -16.1725  -45.2348 H         1 UNK         0.0600 
    129 H129       -3.7329  -15.8615  -45.3622 H         1 UNK         0.0600 
    130 H130       -0.8971  -15.3121  -46.9757 H         1 UNK         0.3000 
    131 H131       -1.9304  -13.5025  -48.8299 H         1 UNK         0.0600 
    132 H132        0.3657  -13.4633  -49.7939 H         1 UNK         0.0800 
    133 H133        1.0163  -14.2187  -48.3595 H         1 UNK         0.0800 
    134 H134        2.0239  -15.6167  -50.6027 H         1 UNK         0.0800 
    135 H135        0.8370  -14.9648  -51.7084 H         1 UNK         0.0800 
    136 H136       -0.2239  -16.3820  -53.3671 H         1 UNK         0.1150 
    137 H137        1.0213  -20.4739  -53.6932 H         1 UNK         0.1150 
    138 H138        2.2910  -18.0951  -50.3669 H         1 UNK         0.1150 
    139 H139        1.9584  -21.5701  -51.7546 H         1 UNK         0.0800 
    140 H140        3.4584  -20.6862  -51.8869 H         1 UNK         0.0800 
    141 H141        0.2814  -20.5533  -49.9189 H         1 UNK         0.0800 
    142 H142        0.8365  -19.5928  -48.5833 H         1 UNK         0.0800 
    143 H143        0.6808  -22.6568  -48.5293 H         1 UNK         0.0600 
    144 H144        0.9498  -20.7939  -46.2045 H         1 UNK         0.3000 
    145 H145        3.7573  -22.6905  -44.9751 H         1 UNK         0.0600 
    146 H146        4.5294  -20.3582  -44.7531 H         1 UNK         0.0600 
    147 H147        4.5089  -20.8225  -46.4475 H         1 UNK         0.0600 
    148 H148        3.2371  -19.7904  -45.8089 H         1 UNK         0.0600 
    149 H149        2.0402  -20.6516  -43.8378 H         1 UNK         0.3000 
    150 H150        0.0467  -22.9285  -41.9667 H         1 UNK         0.0600 
    151 H151        2.1266  -22.7921  -40.5785 H         1 UNK         0.0600 
    152 H152        0.8986  -21.6695  -40.0145 H         1 UNK         0.0600 
    153 H153        2.2686  -21.0776  -40.9532 H         1 UNK         0.0600 
    154 H154        0.2038  -20.0992  -41.8820 H         1 UNK         0.3000 
    155 H155       -2.1237  -19.4704  -44.5436 H         1 UNK         0.0600 
    156 H156       -2.0464  -19.0683  -41.5168 H         1 UNK         0.0600 
    157 H157       -3.3609  -19.7679  -42.4379 H         1 UNK         0.0600 
    158 H158       -2.9615  -18.0726  -42.6463 H         1 UNK         0.0600 
    159 H159       -0.5426  -17.6608  -43.0350 H         1 UNK         0.3000 
    160 H160        2.3442  -17.6004  -45.1145 H         1 UNK         0.0600 
    161 H161        0.2260  -15.4406  -44.6646 H         1 UNK         0.0600 
    162 H162        0.6789  -16.0927  -46.2438 H         1 UNK         0.0600 
    163 H163        1.8602  -15.2245  -45.2885 H         1 UNK         0.0600 
    164 H164        1.4243  -16.2170  -42.7173 H         1 UNK         0.3000 
    165 H165        3.0104  -18.4599  -40.4423 H         1 UNK         0.0600 
    166 H166        4.1158  -16.3628  -39.7244 H         1 UNK         0.0600 
    167 H167        4.8462  -16.9633  -41.2058 H         1 UNK         0.0600 
    168 H168        3.7346  -15.6027  -41.2670 H         1 UNK         0.0600 
    169 H169        1.5363  -15.9845  -40.1744 H         1 UNK         0.3000 
    170 H170       -1.6660  -17.5101  -39.8323 H         1 UNK         0.0600 
    171 H171       -0.6294  -17.9905  -37.6078 H         1 UNK         0.0600 
    172 H172        0.1389  -16.4074  -37.6172 H         1 UNK         0.0600 
    173 H173       -1.6194  -16.5411  -37.5607 H         1 UNK         0.0600 
    174 H174       -0.9328  -14.8726  -39.2827 H         1 UNK         0.3000 
    175 H175       -2.0747  -13.5886  -42.1681 H         1 UNK         0.0600 
    176 H176       -0.5355  -12.8652  -39.6102 H         1 UNK         0.0600 
    177 H177       -1.5698  -11.7935  -40.5426 H         1 UNK         0.0600 
    178 H178       -2.2708  -13.1701  -39.7163 H         1 UNK         0.0600 
    179 H179       -0.3174  -12.6569  -43.1601 H         1 UNK         0.3000 
    180 H180        2.5466  -11.6063  -42.4834 H         1 UNK         0.0600 
    181 H181        3.2352  -14.3576  -43.6287 H         1 UNK         0.0600 
    182 H182        4.0524  -13.5012  -42.3297 H         1 UNK         0.0600 
    183 H183        4.1455  -12.8849  -43.9659 H         1 UNK         0.0600 
    184 H184        1.9090  -12.7011  -45.0723 H         1 UNK         0.3000 
    185 H185       -0.4332  -10.1173  -45.8910 H         1 UNK         0.0600 
    186 H186        1.9182   -9.2535  -46.2722 H         1 UNK         0.0600 
    187 H187        2.3814  -10.8281  -46.9064 H         1 UNK         0.0600 
    188 H188        1.1868   -9.8460  -47.7502 H         1 UNK         0.0600 
    189 H189        0.1442  -12.8998  -46.0220 H         1 UNK         0.3000 
    190 H190       -0.8560  -19.8144  -46.9287 H         1 UNK         0.3000 
    191 H191       -3.0672  -20.0899  -48.6369 H         1 UNK         0.0600 
    192 H192       -2.1898  -17.9201  -47.8362 H         1 UNK         0.0600 
    193 H193       -3.9095  -18.0604  -47.5162 H         1 UNK         0.0600 
    194 H194       -2.7622  -18.2573  -46.2087 H         1 UNK         0.0600 
    195 H195       -2.7031  -21.5912  -45.5437 H         1 UNK         0.3000 
    196 H196       -5.5892  -22.4044  -45.6338 H         1 UNK         0.0600 
    197 H197       -5.5873  -22.4925  -43.1819 H         1 UNK         0.0600 
    198 H198       -5.1827  -20.8624  -43.6968 H         1 UNK         0.0600 
    199 H199       -3.9186  -21.9483  -43.1097 H         1 UNK         0.0600 
    200 H200       -2.2212  -23.2700  -44.7237 H         1 UNK         0.3000 
    201 H201       -2.7280  -25.9534  -44.0603 H         1 UNK         0.0600 
    202 H202       -0.6899  -24.7736  -43.3865 H         1 UNK         0.0600 
    203 H203       -0.1719  -24.5988  -45.0631 H         1 UNK         0.0600 
    204 H204       -0.2373  -26.1918  -44.3162 H         1 UNK         0.0600 
    205 H205       -1.6800  -24.5622  -47.1967 H         1 UNK         0.3000 
    206 H206       -2.1278  -27.1916  -48.5555 H         1 UNK         0.0600 
    207 H207        0.0965  -26.1259  -48.9024 H         1 UNK         0.0600 
    208 H208       -0.8258  -26.1588  -50.3969 H         1 UNK         0.0600 
    209 H209       -0.6763  -24.6582  -49.4935 H         1 UNK         0.0600 
    210 H210       -3.3881  -24.0001  -48.1258 H         1 UNK         0.3000 
    211 H211       -5.0473  -22.7738  -48.9034 H         1 UNK         0.0600 
    212 H212       -6.1877  -25.2189  -50.3483 H         1 UNK         0.0600 
    213 H213       -7.0312  -23.7255  -49.9712 H         1 UNK         0.0600 
    214 H214       -6.5257  -24.7915  -48.6705 H         1 UNK         0.0600 
    215 H215       -2.5003  -23.1275  -50.2747 H         1 UNK         0.3000 
    216 H216       -2.7885  -23.2685  -53.0869 H         1 UNK         0.0600 
    217 H217       -0.4047  -22.4963  -53.0996 H         1 UNK         0.0600 
    218 H218       -0.6703  -23.7799  -51.9343 H         1 UNK         0.0600 
    219 H219       -0.5193  -22.1132  -51.3870 H         1 UNK         0.0600 
    220 H220       -2.7030  -20.4681  -50.9029 H         1 UNK         0.3000 
    221 H221       -2.6585  -18.4393  -52.9255 H         1 UNK         0.0600 
    222 H222       -3.6797  -18.2291  -50.0508 H         1 UNK         0.0600 
    223 H223       -1.9796  -18.1110  -50.5165 H         1 UNK         0.0600 
    224 H224       -3.1351  -16.9152  -51.0812 H         1 UNK         0.0600 
    225 H225       -5.2836  -20.2144  -51.3095 H         1 UNK         0.3000 
    226 H226       -7.4506  -18.6055  -52.3555 H         1 UNK         0.0600 
    227 H227       -7.6730  -19.9151  -50.2487 H         1 UNK         0.0600 
    228 H228       -8.8687  -20.4209  -51.4323 H         1 UNK         0.0600 
    229 H229       -7.4537  -21.4207  -51.1388 H         1 UNK         0.0600 
    230 H230       -5.8075  -21.6211  -53.3213 H         1 UNK         0.3000 
    231 H231       -7.4011  -22.1231  -55.6736 H         1 UNK         0.0600 
    232 H232       -6.1265  -23.8929  -54.4569 H         1 UNK         0.0600 
    233 H233       -4.6071  -23.1019  -54.8696 H         1 UNK         0.0600 
    234 H234       -5.6137  -23.7957  -56.1347 H         1 UNK         0.0600 
    235 H235       -5.0189  -19.7977  -55.0088 H         1 UNK         0.3000 
    236 H236       -3.9124  -18.2508  -56.0923 H         1 UNK         0.0600 
    237 H237       -4.6097  -17.4524  -58.3013 H         1 UNK         0.0600 
    238 H238       -5.4657  -18.9491  -58.6368 H         1 UNK         0.0600 
    239 H239       -6.0390  -17.8644  -57.3696 H         1 UNK         0.0600 
    240 H240       -3.0352  -21.0579  -56.0422 H         1 UNK         0.3000 
    241 H241       -1.5427  -22.4977  -56.7947 H         1 UNK         0.0600 
    242 H242       -1.6149  -21.9761  -60.5073 H         1 UNK         0.3800 
    243 H243       -2.8136  -21.5870  -59.2995 H         1 UNK         0.3800 
    244 H244        0.7546  -21.7076  -56.3730 H         1 UNK         0.0800 
    245 H245       -0.4090  -21.2428  -55.1822 H         1 UNK         0.0800 
    246 H246       -0.7525  -17.5367  -55.3339 H         1 UNK         0.0800 
    247 H247       -1.3984  -19.0638  -54.8143 H         1 UNK         0.0800 
@<TRIPOS>BOND
     1    1    2 1    
     2    1  127 1    
     3    1  128 1    
     4    1  129 1    
     5    2    3 2    
     6    2    4 am   BACKBONE|DICT|INTERRES
     7    4    5 1    
     8    4  130 1    
     9    5    6 1    
    10    5   65 1    
    11    5  131 1    
    12    6    7 1    
    13    6  132 1    
    14    6  133 1    
    15    7    8 1    
    16    8    9 1    
    17    8  134 1    
    18    8  135 1    
    19    9   10 ar   
    20    9   14 ar   
    21   10   11 ar   
    22   10  136 1    
    23   11   12 ar   
    24   11  126 1    
    25   12   13 ar   
    26   12  137 1    
    27   13   14 ar   
    28   13   15 1    
    29   14  138 1    
    30   15   16 1    
    31   15  139 1    
    32   15  140 1    
    33   16   17 1    
    34   17   18 1    
    35   17  141 1    
    36   17  142 1    
    37   18   19 1    
    38   18   67 1    
    39   18  143 1    
    40   19   20 am   BACKBONE|DICT|INTERRES
    41   19  144 1    
    42   20   21 2    
    43   20   22 1    
    44   22   23 1    
    45   22   24 1    
    46   22  145 1    
    47   23  146 1    
    48   23  147 1    
    49   23  148 1    
    50   24   25 am   BACKBONE|DICT|INTERRES
    51   24  149 1    
    52   25   26 2    
    53   25   27 1    
    54   27   28 1    
    55   27   29 1    
    56   27  150 1    
    57   28  151 1    
    58   28  152 1    
    59   28  153 1    
    60   29   30 am   BACKBONE|DICT|INTERRES
    61   29  154 1    
    62   30   31 2    
    63   30   32 1    
    64   32   33 1    
    65   32   34 1    
    66   32  155 1    
    67   33  156 1    
    68   33  157 1    
    69   33  158 1    
    70   34   35 am   BACKBONE|DICT|INTERRES
    71   34  159 1    
    72   35   36 2    
    73   35   37 1    
    74   37   38 1    
    75   37   39 1    
    76   37  160 1    
    77   38  161 1    
    78   38  162 1    
    79   38  163 1    
    80   39   40 am   BACKBONE|DICT|INTERRES
    81   39  164 1    
    82   40   41 2    
    83   40   42 1    
    84   42   43 1    
    85   42   44 1    
    86   42  165 1    
    87   43  166 1    
    88   43  167 1    
    89   43  168 1    
    90   44   45 am   BACKBONE|DICT|INTERRES
    91   44  169 1    
    92   45   46 2    
    93   45   47 1    
    94   47   48 1    
    95   47   49 1    
    96   47  170 1    
    97   48  171 1    
    98   48  172 1    
    99   48  173 1    
   100   49   50 am   BACKBONE|DICT|INTERRES
   101   49  174 1    
   102   50   51 2    
   103   50   52 1    
   104   52   53 1    
   105   52   54 1    
   106   52  175 1    
   107   53  176 1    
   108   53  177 1    
   109   53  178 1    
   110   54   55 am   BACKBONE|DICT|INTERRES
   111   54  179 1    
   112   55   56 2    
   113   55   57 1    
   114   57   58 1    
   115   57   59 1    
   116   57  180 1    
   117   58  181 1    
   118   58  182 1    
   119   58  183 1    
   120   59   60 am   BACKBONE|DICT|INTERRES
   121   59  184 1    
   122   60   61 2    
   123   60   62 1    
   124   62   63 1    
   125   62   64 1    
   126   62  185 1    
   127   63  186 1    
   128   63  187 1    
   129   63  188 1    
   130   64   65 am   BACKBONE|DICT|INTERRES
   131   64  189 1    
   132   65   66 2    
   133   67   68 2    
   134   67   69 am   BACKBONE|DICT|INTERRES
   135   69   70 1    
   136   69  190 1    
   137   70   71 1    
   138   70   72 1    
   139   70  191 1    
   140   71  192 1    
   141   71  193 1    
   142   71  194 1    
   143   72   73 2    
   144   72   74 am   BACKBONE|DICT|INTERRES
   145   74   75 1    
   146   74  195 1    
   147   75   76 1    
   148   75   77 1    
   149   75  196 1    
   150   76  197 1    
   151   76  198 1    
   152   76  199 1    
   153   77   78 2    
   154   77   79 am   BACKBONE|DICT|INTERRES
   155   79   80 1    
   156   79  200 1    
   157   80   81 1    
   158   80   82 1    
   159   80  201 1    
   160   81  202 1    
   161   81  203 1    
   162   81  204 1    
   163   82   83 2    
   164   82   84 am   BACKBONE|DICT|INTERRES
   165   84   85 1    
   166   84  205 1    
   167   85   86 1    
   168   85   87 1    
   169   85  206 1    
   170   86  207 1    
   171   86  208 1    
   172   86  209 1    
   173   87   88 2    
   174   87   89 am   BACKBONE|DICT|INTERRES
   175   89   90 1    
   176   89  210 1    
   177   90   91 1    
   178   90   92 1    
   179   90  211 1    
   180   91  212 1    
   181   91  213 1    
   182   91  214 1    
   183   92   93 2    
   184   92   94 am   BACKBONE|DICT|INTERRES
   185   94   95 1    
   186   94  215 1    
   187   95   96 1    
   188   95   97 1    
   189   95  216 1    
   190   96  217 1    
   191   96  218 1    
   192   96  219 1    
   193   97   98 2    
   194   97   99 am   BACKBONE|DICT|INTERRES
   195   99  100 1    
   196   99  220 1    
   197  100  101 1    
   198  100  102 1    
   199  100  221 1    
   200  101  222 1    
   201  101  223 1    
   202  101  224 1    
   203  102  103 2    
   204  102  104 am   BACKBONE|DICT|INTERRES
   205  104  105 1    
   206  104  225 1    
   207  105  106 1    
   208  105  107 1    
   209  105  226 1    
   210  106  227 1    
   211  106  228 1    
   212  106  229 1    
   213  107  108 2    
   214  107  109 am   BACKBONE|DICT|INTERRES
   215  109  110 1    
   216  109  230 1    
   217  110  111 1    
   218  110  112 1    
   219  110  231 1    
   220  111  232 1    
   221  111  233 1    
   222  111  234 1    
   223  112  113 2    
   224  112  114 am   BACKBONE|DICT|INTERRES
   225  114  115 1    
   226  114  235 1    
   227  115  116 1    
   228  115  117 1    
   229  115  236 1    
   230  116  237 1    
   231  116  238 1    
   232  116  239 1    
   233  117  118 2    
   234  117  119 am   BACKBONE|DICT|INTERRES
   235  119  120 1    
   236  119  240 1    
   237  120  121 1    
   238  120  124 1    
   239  120  241 1    
   240  121  122 am   BACKBONE|DICT|INTERRES
   241  121  123 2    
   242  122  242 1    
   243  122  243 1    
   244  124  125 1    
   245  124  244 1    
   246  124  245 1    
   247  125  126 1    
   248  126  246 1    
   249  126  247 1    
@<TRIPOS>SUBSTRUCTURE
     1 UNK         1 GROUP             0       ****    0 ROOT    
