@<TRIPOS>MOLECULE
3R540
247   249    1
SMALL
USER_CHARGES


@<TRIPOS>ATOM
      1 CA         -6.2636  -13.0683  -47.2438 C.3       0 UNK        -0.1800 
      2 C          -4.8590  -13.6320  -47.3994 C.2       0 UNK         0.5000 
      3 O          -4.1150  -13.1800  -48.2675 O.2       0 UNK        -0.5000 
      4 N          -4.4913  -14.5948  -46.5416 N.am      1 UNK        -0.5000 
      5 CA         -3.2423  -15.3762  -46.5640 C.3       1 UNK         0.1400 
      6 C6         -3.2373  -16.4533  -45.4542 C.3       23 UNK        -0.0398 
      7 S7         -4.5828  -17.6682  -45.6669 S.3       23 UNK        -0.2404 
      8 C8         -3.6910  -19.2483  -45.5171 C.3       23 UNK        -0.0205 
      9 C9         -2.7218  -19.4828  -46.6667 C.ar      23 UNK        -0.0193 
     10 C10        -3.2106  -19.7244  -47.9528 C.ar      23 UNK        -0.1150 
     11 C11        -2.3359  -19.8562  -49.0382 C.ar      23 UNK        -0.0193 
     12 C12        -0.9587  -19.7995  -48.8036 C.ar      23 UNK        -0.1150 
     13 C13        -0.4543  -19.5949  -47.5173 C.ar      23 UNK        -0.0193 
     14 C14        -1.3416  -19.4401  -46.4497 C.ar      23 UNK        -0.1150 
     15 C15         1.0467  -19.4732  -47.3036 C.3       23 UNK        -0.0205 
     16 S16         1.8844  -21.0850  -47.2885 S.3       23 UNK        -0.2404 
     17 C17         1.5994  -21.6290  -45.5760 C.3       23 UNK        -0.0398 
     18 CA          0.9617  -23.0345  -45.4806 C.3       11 UNK         0.1400 
     19 N           1.2173  -23.6419  -44.1739 N.am      11 UNK        -0.5000 
     20 C           0.9951  -24.9247  -43.8581 C.2       10 UNK         0.5000 
     21 O           0.5908  -25.7696  -44.6565 O.2       10 UNK        -0.5000 
     22 CA          1.2188  -25.3054  -42.3826 C.3       10 UNK         0.1400 
     23 CB          2.6965  -25.6356  -42.1262 C.3       10 UNK        -0.1800 
     24 N           0.7914  -24.2428  -41.4677 N.am      10 UNK        -0.5000 
     25 C          -0.4865  -23.8794  -41.2873 C.2       9 UNK         0.5000 
     26 O          -1.4353  -24.4448  -41.8290 O.2       9 UNK        -0.5000 
     27 CA         -0.7430  -22.6487  -40.3965 C.3       9 UNK         0.1400 
     28 CB         -0.8231  -23.0590  -38.9188 C.3       9 UNK        -0.1800 
     29 N           0.2625  -21.5923  -40.5563 N.am      9 UNK        -0.5000 
     30 C           0.4795  -20.9151  -41.6916 C.2       8 UNK         0.5000 
     31 O          -0.1264  -21.1358  -42.7414 O.2       8 UNK        -0.5000 
     32 CA          1.6084  -19.8700  -41.6628 C.3       8 UNK         0.1400 
     33 CB          2.9725  -20.5546  -41.8443 C.3       8 UNK        -0.1800 
     34 N           1.4575  -18.8530  -42.7048 N.am      8 UNK        -0.5000 
     35 C           0.5655  -17.8535  -42.6818 C.2       7 UNK         0.5000 
     36 O          -0.2656  -17.7161  -41.7825 O.2       7 UNK        -0.5000 
     37 CA          0.6040  -16.8306  -43.8460 C.3       7 UNK         0.1400 
     38 CB          0.2598  -15.4030  -43.3759 C.3       7 UNK        -0.1800 
     39 N           1.8414  -16.8079  -44.6409 N.am      7 UNK        -0.5000 
     40 C           3.0957  -16.6041  -44.2085 C.2       6 UNK         0.5000 
     41 O           3.4103  -16.4499  -43.0285 O.2       6 UNK        -0.5000 
     42 CA          4.1837  -16.5690  -45.2956 C.3       6 UNK         0.1400 
     43 CB          4.4843  -17.9810  -45.8238 C.3       6 UNK        -0.1800 
     44 N           3.8382  -15.6901  -46.4140 N.am      6 UNK        -0.5000 
     45 C           3.7745  -14.3553  -46.3386 C.2       5 UNK         0.5000 
     46 O           3.9559  -13.7231  -45.2973 O.2       5 UNK        -0.5000 
     47 CA          3.4874  -13.5815  -47.6380 C.3       5 UNK         0.1400 
     48 CB          4.7564  -13.4553  -48.5024 C.3       5 UNK        -0.1800 
     49 N           2.3507  -14.0727  -48.4248 N.am      5 UNK        -0.5000 
     50 C           2.2106  -15.2163  -49.1132 C.2       4 UNK         0.5000 
     51 O           3.0483  -16.1195  -49.1076 O.2       4 UNK        -0.5000 
     52 CA          0.9217  -15.3865  -49.9483 C.3       4 UNK         0.1400 
     53 CB          0.2269  -16.7212  -49.6409 C.3       4 UNK        -0.1800 
     54 N          -0.0284  -14.2930  -49.7341 N.am      4 UNK        -0.5000 
     55 C          -0.0739  -13.1609  -50.4517 C.2       3 UNK         0.5000 
     56 O           0.6215  -12.9594  -51.4473 O.2       3 UNK        -0.5000 
     57 CA         -1.0160  -12.0431  -49.9571 C.3       3 UNK         0.1400 
     58 CB         -2.3038  -12.0003  -50.7914 C.3       3 UNK        -0.1800 
     59 N          -1.3603  -12.1593  -48.5377 N.am      3 UNK        -0.5000 
     60 C          -0.4964  -11.9639  -47.5288 C.2       2 UNK         0.5000 
     61 O           0.6678  -11.6033  -47.6997 O.2       2 UNK        -0.5000 
     62 CA         -0.9830  -12.2739  -46.0974 C.3       2 UNK         0.1400 
     63 CB         -1.4634  -10.9923  -45.4016 C.3       2 UNK        -0.1800 
     64 N          -2.0521  -13.2725  -46.0496 N.am      2 UNK        -0.5000 
     65 C          -1.9487  -14.5344  -46.4896 C.2       1 UNK         0.5000 
     66 O          -0.8852  -15.0298  -46.8628 O.2       1 UNK        -0.5000 
     67 C          -0.5468  -23.0151  -45.7973 C.2       11 UNK         0.5000 
     68 O          -0.9323  -23.3502  -46.9161 O.2       11 UNK        -0.5000 
     69 N          -1.3653  -22.6840  -44.7879 N.am      12 UNK        -0.5000 
     70 CA         -2.8260  -22.7058  -44.8370 C.3       12 UNK         0.1400 
     71 CB         -3.3898  -22.0831  -43.5486 C.3       12 UNK        -0.1800 
     72 C          -3.3958  -24.1188  -45.0385 C.2       12 UNK         0.5000 
     73 O          -4.3134  -24.2909  -45.8405 O.2       12 UNK        -0.5000 
     74 N          -2.8329  -25.1014  -44.3207 N.am      13 UNK        -0.5000 
     75 CA         -3.1938  -26.5159  -44.4199 C.3       13 UNK         0.1400 
     76 CB         -2.5011  -27.3032  -43.2972 C.3       13 UNK        -0.1800 
     77 C          -2.8590  -27.1164  -45.7970 C.2       13 UNK         0.5000 
     78 O          -3.6614  -27.8773  -46.3395 O.2       13 UNK        -0.5000 
     79 N          -1.6932  -26.7469  -46.3441 N.am      14 UNK        -0.5000 
     80 CA         -1.2593  -27.1252  -47.6880 C.3       14 UNK         0.1400 
     81 CB          0.2503  -26.8662  -47.8160 C.3       14 UNK        -0.1800 
     82 C          -2.0195  -26.3768  -48.7996 C.2       14 UNK         0.5000 
     83 O          -2.2115  -26.9408  -49.8772 O.2       14 UNK        -0.5000 
     84 N          -2.3946  -25.1168  -48.5251 N.am      15 UNK        -0.5000 
     85 CA         -2.8910  -24.1009  -49.4610 C.3       15 UNK         0.1400 
     86 CB         -4.2882  -24.4738  -49.9965 C.3       15 UNK        -0.1800 
     87 C          -1.8531  -23.8414  -50.5718 C.2       15 UNK         0.5000 
     88 O          -2.1858  -23.8755  -51.7559 O.2       15 UNK        -0.5000 
     89 N          -0.5906  -23.6642  -50.1525 N.am      16 UNK        -0.5000 
     90 CA          0.6120  -23.8385  -50.9748 C.3       16 UNK         0.1400 
     91 CB          1.8546  -23.6269  -50.0990 C.3       16 UNK        -0.1800 
     92 C           0.6946  -22.9658  -52.2409 C.2       16 UNK         0.5000 
     93 O           1.1941  -23.4359  -53.2639 O.2       16 UNK        -0.5000 
     94 N           0.2032  -21.7225  -52.1572 N.am      17 UNK        -0.5000 
     95 CA          0.1695  -20.7829  -53.2828 C.3       17 UNK         0.1400 
     96 CB          0.1554  -19.3409  -52.7505 C.3       17 UNK        -0.1800 
     97 C          -1.0002  -21.0355  -54.2588 C.2       17 UNK         0.5000 
     98 O          -0.9658  -20.5065  -55.3699 O.2       17 UNK        -0.5000 
     99 N          -1.9967  -21.8330  -53.8399 N.am      18 UNK        -0.5000 
    100 CA        -3.1658  -22.3591  -54.5635 C.3       18 UNK         0.1400 
    101 CB        -2.7131  -23.3075  -55.6891 C.3       18 UNK        -0.1800 
    102 C         -4.1855  -21.3321  -55.1010 C.2       18 UNK         0.5000 
    103 O         -5.3858  -21.6097  -55.0789 O.2       18 UNK        -0.5000 
    104 N         -3.7026  -20.1956  -55.6070 N.am      19 UNK        -0.5000 
    105 CA        -4.4777  -19.1238  -56.2250 C.3       19 UNK         0.1400 
    106 CB        -3.5406  -18.3640  -57.1844 C.3       19 UNK        -0.1800 
    107 C         -5.1280  -18.1856  -55.1855 C.2       19 UNK         0.5000 
    108 O         -5.1576  -18.4835  -53.9887 O.2       19 UNK        -0.5000 
    109 N         -5.5972  -17.0238  -55.6633 N.am      20 UNK        -0.5000 
    110 CA        -6.2228  -15.9373  -54.8963 C.3       20 UNK         0.1400 
    111 CB        -6.7501  -14.8864  -55.8874 C.3       20 UNK        -0.1800 
    112 C         -5.3242  -15.2780  -53.8231 C.2       20 UNK         0.5000 
    113 O         -5.7953  -14.4064  -53.0926 O.2       20 UNK        -0.5000 
    114 N         -4.0592  -15.7094  -53.7312 N.am      21 UNK        -0.5000 
    115 CA        -3.1437  -15.4263  -52.6291 C.3       21 UNK         0.1400 
    116 CB        -1.7363  -15.8918  -53.0302 C.3       21 UNK        -0.1800 
    117 C         -3.5789  -16.0816  -51.2995 C.2       21 UNK         0.5000 
    118 O         -3.1737  -15.6028  -50.2419 O.2       21 UNK        -0.5000 
    119 N         -4.3875  -17.1516  -51.3642 N.am      22 UNK        -0.5000 
    120 CA        -5.0628  -17.7353  -50.1962 C.3       22 UNK         0.1400 
    121 C         -6.2021  -16.8115  -49.6774 C.2       22 UNK         0.5000 
    122 N         -6.4134  -16.7455  -48.3701 N.am      22 UNK        -0.7600 
    123 O         -6.9453  -16.2115  -50.4500 O.2       22 UNK        -0.5000 
    124 C124       -5.6474  -19.1467  -50.4907 C.3       23 UNK        -0.0398 
    125 S125       -4.5201  -20.5720  -50.7474 S.3       23 UNK        -0.2404 
    126 C126       -2.8128  -19.9889  -50.4848 C.3       23 UNK        -0.0205 
    127 H127       -6.7981  -13.5319  -46.4144 H         1 UNK         0.0600 
    128 H128       -6.8356  -13.2399  -48.1558 H         1 UNK         0.0600 
    129 H129       -6.2196  -11.9943  -47.0639 H         1 UNK         0.0600 
    130 H130       -5.1594  -14.8970  -45.8470 H         1 UNK         0.3000 
    131 H131       -3.2098  -15.8876  -47.5284 H         1 UNK         0.0600 
    132 H132       -3.3349  -15.9943  -44.4688 H         1 UNK         0.0800 
    133 H133       -2.2860  -16.9832  -45.4467 H         1 UNK         0.0800 
    134 H134       -3.1682  -19.2615  -44.5607 H         1 UNK         0.0800 
    135 H135       -4.4217  -20.0570  -45.4894 H         1 UNK         0.0800 
    136 H136       -4.2789  -19.7627  -48.0999 H         1 UNK         0.1150 
    137 H137       -0.2678  -19.8847  -49.6296 H         1 UNK         0.1150 
    138 H138       -0.9599  -19.2689  -45.4536 H         1 UNK         0.1150 
    139 H139        1.4823  -18.8736  -48.1025 H         1 UNK         0.0800 
    140 H140        1.2601  -18.9386  -46.3791 H         1 UNK         0.0800 
    141 H141        1.0105  -20.8886  -45.0348 H         1 UNK         0.0800 
    142 H142        2.5796  -21.6368  -45.0986 H         1 UNK         0.0800 
    143 H143        1.4414  -23.6768  -46.2228 H         1 UNK         0.0600 
    144 H144        1.4940  -23.0147  -43.4350 H         1 UNK         0.3000 
    145 H145        0.6268  -26.1990  -42.1738 H         1 UNK         0.0600 
    146 H146        2.8526  -25.9725  -41.1012 H         1 UNK         0.0600 
    147 H147        3.0369  -26.4354  -42.7853 H         1 UNK         0.0600 
    148 H148        3.3403  -24.7720  -42.2978 H         1 UNK         0.0600 
    149 H149        1.5140  -23.7380  -40.9764 H         1 UNK         0.3000 
    150 H150       -1.7101  -22.2319  -40.6858 H         1 UNK         0.0600 
    151 H151        0.1268  -23.4547  -38.5572 H         1 UNK         0.0600 
    152 H152       -1.5790  -23.8312  -38.7687 H         1 UNK         0.0600 
    153 H153       -1.0966  -22.2125  -38.2886 H         1 UNK         0.0600 
    154 H154        0.8089  -21.3659  -39.7377 H         1 UNK         0.3000 
    155 H155        1.5937  -19.3721  -40.6910 H         1 UNK         0.0600 
    156 H156        3.0447  -21.0694  -42.8021 H         1 UNK         0.0600 
    157 H157        3.1518  -21.2923  -41.0611 H         1 UNK         0.0600 
    158 H158        3.7851  -19.8294  -41.7936 H         1 UNK         0.0600 
    159 H159        2.1036  -18.8960  -43.4765 H         1 UNK         0.3000 
    160 H160       -0.1780  -17.1432  -44.5362 H         1 UNK         0.0600 
    161 H161        0.9677  -15.0456  -42.6275 H         1 UNK         0.0600 
    162 H162       -0.7368  -15.3600  -42.9353 H         1 UNK         0.0600 
    163 H163        0.2737  -14.7015  -44.2094 H         1 UNK         0.0600 
    164 H164        1.7101  -16.8778  -45.6393 H         1 UNK         0.3000 
    165 H165        5.0961  -16.1846  -44.8345 H         1 UNK         0.0600 
    166 H166        5.3464  -17.9728  -46.4909 H         1 UNK         0.0600 
    167 H167        4.7140  -18.6663  -45.0067 H         1 UNK         0.0600 
    168 H168        3.6433  -18.3975  -46.3773 H         1 UNK         0.0600 
    169 H169        3.6752  -16.1157  -47.3229 H         1 UNK         0.3000 
    170 H170        3.2086  -12.5711  -47.3353 H         1 UNK         0.0600 
    171 H171        5.5658  -12.9906  -47.9379 H         1 UNK         0.0600 
    172 H172        5.1167  -14.4251  -48.8463 H         1 UNK         0.0600 
    173 H173        4.5747  -12.8345  -49.3798 H         1 UNK         0.0600 
    174 H174        1.5766  -13.4214  -48.4648 H         1 UNK         0.3000 
    175 H175        1.2223  -15.4061  -50.9976 H         1 UNK         0.0600 
    176 H176        0.0006  -16.8242  -48.5799 H         1 UNK         0.0600 
    177 H177       -0.7082  -16.8258  -50.1892 H         1 UNK         0.0600 
    178 H178        0.8603  -17.5592  -49.9310 H         1 UNK         0.0600 
    179 H179       -0.6251  -14.3840  -48.9202 H         1 UNK         0.3000 
    180 H180       -0.4931  -11.0952  -50.1005 H         1 UNK         0.0600 
    181 H181       -2.9032  -12.8981  -50.6448 H         1 UNK         0.0600 
    182 H182       -2.0823  -11.9197  -51.8564 H         1 UNK         0.0600 
    183 H183       -2.9196  -11.1429  -50.5202 H         1 UNK         0.0600 
    184 H184       -2.3025  -12.4836  -48.3315 H         1 UNK         0.3000 
    185 H185       -0.1303  -12.6685  -45.5415 H         1 UNK         0.0600 
    186 H186       -0.6803  -10.2329  -45.3977 H         1 UNK         0.0600 
    187 H187       -2.3332  -10.5650  -45.9024 H         1 UNK         0.0600 
    188 H188       -1.7332  -11.1843  -44.3629 H         1 UNK         0.0600 
    189 H189       -2.9668  -12.9428  -45.7783 H         1 UNK         0.3000 
    190 H190       -0.9489  -22.3523  -43.9222 H         1 UNK         0.3000 
    191 H191       -3.1334  -22.0996  -45.6897 H         1 UNK         0.0600 
    192 H192       -2.9056  -21.1369  -43.3120 H         1 UNK         0.0600 
    193 H193       -4.4592  -21.8937  -43.6459 H         1 UNK         0.0600 
    194 H194       -3.2552  -22.7374  -42.6879 H         1 UNK         0.0600 
    195 H195       -2.1332  -24.8575  -43.6262 H         1 UNK         0.3000 
    196 H196       -4.2731  -26.5963  -44.2751 H         1 UNK         0.0600 
    197 H197       -2.7729  -28.3587  -43.3351 H         1 UNK         0.0600 
    198 H198       -2.7911  -26.9275  -42.3158 H         1 UNK         0.0600 
    199 H199       -1.4152  -27.2404  -43.3715 H         1 UNK         0.0600 
    200 H200       -1.0571  -26.1703  -45.8030 H         1 UNK         0.3000 
    201 H201       -1.4350  -28.1946  -47.8225 H         1 UNK         0.0600 
    202 H202        0.6135  -27.1390  -48.8077 H         1 UNK         0.0600 
    203 H203        0.8133  -27.4527  -47.0896 H         1 UNK         0.0600 
    204 H204        0.4922  -25.8150  -47.6543 H         1 UNK         0.0600 
    205 H205       -2.1168  -24.7407  -47.6245 H         1 UNK         0.3000 
    206 H206       -2.9866  -23.1714  -48.8971 H         1 UNK         0.0600 
    207 H207       -4.9895  -24.6371  -49.1783 H         1 UNK         0.0600 
    208 H208       -4.6926  -23.6737  -50.6172 H         1 UNK         0.0600 
    209 H209       -4.2651  -25.3776  -50.6056 H         1 UNK         0.0600 
    210 H210       -0.4424  -23.6101  -49.1520 H         1 UNK         0.3000 
    211 H211        0.6111  -24.8793  -51.3052 H         1 UNK         0.0600 
    212 H212        1.9316  -22.5928  -49.7649 H         1 UNK         0.0600 
    213 H213        2.7657  -23.8587  -50.6520 H         1 UNK         0.0600 
    214 H214        1.8381  -24.2672  -49.2170 H         1 UNK         0.0600 
    215 H215       -0.1795  -21.4173  -51.2763 H         1 UNK         0.3000 
    216 H216        1.0900  -20.9028  -53.8583 H         1 UNK         0.0600 
    217 H217        0.2303  -18.6255  -53.5704 H         1 UNK         0.0600 
    218 H218        0.9989  -19.1564  -52.0851 H         1 UNK         0.0600 
    219 H219       -0.7572  -19.1129  -52.2064 H         1 UNK         0.0600 
    220 H220       -1.8932  -22.2463  -52.9195 H         1 UNK         0.3000 
    221 H221       -3.7069  -22.9607  -53.8316 H         1 UNK         0.0600 
    222 H222       -2.1485  -22.7816  -56.4596 H         1 UNK         0.0600 
    223 H223       -2.0837  -24.1073  -55.2983 H         1 UNK         0.0600 
    224 H224       -3.5702  -23.7761  -56.1742 H         1 UNK         0.0600 
    225 H225       -2.6920  -20.0800  -55.5874 H         1 UNK         0.3000 
    226 H226       -5.2832  -19.5695  -56.8120 H         1 UNK         0.0600 
    227 H227       -3.0477  -19.0494  -57.8745 H         1 UNK         0.0600 
    228 H228       -4.0827  -17.6419  -57.7955 H         1 UNK         0.0600 
    229 H229       -2.7619  -17.8251  -56.6426 H         1 UNK         0.0600 
    230 H230       -5.5120  -16.8559  -56.6553 H         1 UNK         0.3000 
    231 H231       -7.0766  -16.3635  -54.3658 H         1 UNK         0.0600 
    232 H232       -5.9395  -14.4328  -56.4590 H         1 UNK         0.0600 
    233 H233       -7.2751  -14.0831  -55.3687 H         1 UNK         0.0600 
    234 H234       -7.4551  -15.3264  -56.5929 H         1 UNK         0.0600 
    235 H235       -3.7667  -16.4227  -54.3811 H         1 UNK         0.3000 
    236 H236       -3.1206  -14.3461  -52.4801 H         1 UNK         0.0600 
    237 H237       -1.4064  -15.4081  -53.9497 H         1 UNK         0.0600 
    238 H238       -1.0088  -15.6424  -52.2587 H         1 UNK         0.0600 
    239 H239       -1.7001  -16.9704  -53.1848 H         1 UNK         0.0600 
    240 H240       -4.6789  -17.5021  -52.2707 H         1 UNK         0.3000 
    241 H241       -4.3275  -17.8095  -49.3973 H         1 UNK         0.0600 
    242 H242       -5.8289  -17.2309  -47.7054 H         1 UNK         0.3800 
    243 H243       -7.1803  -16.1850  -48.0355 H         1 UNK         0.3800 
    244 H244       -6.3001  -19.4512  -49.6702 H         1 UNK         0.0800 
    245 H245       -6.2980  -19.0923  -51.3655 H         1 UNK         0.0800 
    246 H246       -2.1720  -20.7106  -50.9883 H         1 UNK         0.0800 
    247 H247       -2.6607  -19.0434  -50.9991 H         1 UNK         0.0800 
@<TRIPOS>BOND
     1    1    2 1    
     2    1  127 1    
     3    1  128 1    
     4    1  129 1    
     5    2    3 2    
     6    2    4 am   BACKBONE|DICT|INTERRES
     7    4    5 1    
     8    4  130 1    
     9    5    6 1    
    10    5   65 1    
    11    5  131 1    
    12    6    7 1    
    13    6  132 1    
    14    6  133 1    
    15    7    8 1    
    16    8    9 1    
    17    8  134 1    
    18    8  135 1    
    19    9   10 ar   
    20    9   14 ar   
    21   10   11 ar   
    22   10  136 1    
    23   11   12 ar   
    24   11  126 1    
    25   12   13 ar   
    26   12  137 1    
    27   13   14 ar   
    28   13   15 1    
    29   14  138 1    
    30   15   16 1    
    31   15  139 1    
    32   15  140 1    
    33   16   17 1    
    34   17   18 1    
    35   17  141 1    
    36   17  142 1    
    37   18   19 1    
    38   18   67 1    
    39   18  143 1    
    40   19   20 am   BACKBONE|DICT|INTERRES
    41   19  144 1    
    42   20   21 2    
    43   20   22 1    
    44   22   23 1    
    45   22   24 1    
    46   22  145 1    
    47   23  146 1    
    48   23  147 1    
    49   23  148 1    
    50   24   25 am   BACKBONE|DICT|INTERRES
    51   24  149 1    
    52   25   26 2    
    53   25   27 1    
    54   27   28 1    
    55   27   29 1    
    56   27  150 1    
    57   28  151 1    
    58   28  152 1    
    59   28  153 1    
    60   29   30 am   BACKBONE|DICT|INTERRES
    61   29  154 1    
    62   30   31 2    
    63   30   32 1    
    64   32   33 1    
    65   32   34 1    
    66   32  155 1    
    67   33  156 1    
    68   33  157 1    
    69   33  158 1    
    70   34   35 am   BACKBONE|DICT|INTERRES
    71   34  159 1    
    72   35   36 2    
    73   35   37 1    
    74   37   38 1    
    75   37   39 1    
    76   37  160 1    
    77   38  161 1    
    78   38  162 1    
    79   38  163 1    
    80   39   40 am   BACKBONE|DICT|INTERRES
    81   39  164 1    
    82   40   41 2    
    83   40   42 1    
    84   42   43 1    
    85   42   44 1    
    86   42  165 1    
    87   43  166 1    
    88   43  167 1    
    89   43  168 1    
    90   44   45 am   BACKBONE|DICT|INTERRES
    91   44  169 1    
    92   45   46 2    
    93   45   47 1    
    94   47   48 1    
    95   47   49 1    
    96   47  170 1    
    97   48  171 1    
    98   48  172 1    
    99   48  173 1    
   100   49   50 am   BACKBONE|DICT|INTERRES
   101   49  174 1    
   102   50   51 2    
   103   50   52 1    
   104   52   53 1    
   105   52   54 1    
   106   52  175 1    
   107   53  176 1    
   108   53  177 1    
   109   53  178 1    
   110   54   55 am   BACKBONE|DICT|INTERRES
   111   54  179 1    
   112   55   56 2    
   113   55   57 1    
   114   57   58 1    
   115   57   59 1    
   116   57  180 1    
   117   58  181 1    
   118   58  182 1    
   119   58  183 1    
   120   59   60 am   BACKBONE|DICT|INTERRES
   121   59  184 1    
   122   60   61 2    
   123   60   62 1    
   124   62   63 1    
   125   62   64 1    
   126   62  185 1    
   127   63  186 1    
   128   63  187 1    
   129   63  188 1    
   130   64   65 am   BACKBONE|DICT|INTERRES
   131   64  189 1    
   132   65   66 2    
   133   67   68 2    
   134   67   69 am   BACKBONE|DICT|INTERRES
   135   69   70 1    
   136   69  190 1    
   137   70   71 1    
   138   70   72 1    
   139   70  191 1    
   140   71  192 1    
   141   71  193 1    
   142   71  194 1    
   143   72   73 2    
   144   72   74 am   BACKBONE|DICT|INTERRES
   145   74   75 1    
   146   74  195 1    
   147   75   76 1    
   148   75   77 1    
   149   75  196 1    
   150   76  197 1    
   151   76  198 1    
   152   76  199 1    
   153   77   78 2    
   154   77   79 am   BACKBONE|DICT|INTERRES
   155   79   80 1    
   156   79  200 1    
   157   80   81 1    
   158   80   82 1    
   159   80  201 1    
   160   81  202 1    
   161   81  203 1    
   162   81  204 1    
   163   82   83 2    
   164   82   84 am   BACKBONE|DICT|INTERRES
   165   84   85 1    
   166   84  205 1    
   167   85   86 1    
   168   85   87 1    
   169   85  206 1    
   170   86  207 1    
   171   86  208 1    
   172   86  209 1    
   173   87   88 2    
   174   87   89 am   BACKBONE|DICT|INTERRES
   175   89   90 1    
   176   89  210 1    
   177   90   91 1    
   178   90   92 1    
   179   90  211 1    
   180   91  212 1    
   181   91  213 1    
   182   91  214 1    
   183   92   93 2    
   184   92   94 am   BACKBONE|DICT|INTERRES
   185   94   95 1    
   186   94  215 1    
   187   95   96 1    
   188   95   97 1    
   189   95  216 1    
   190   96  217 1    
   191   96  218 1    
   192   96  219 1    
   193   97   98 2    
   194   97   99 am   BACKBONE|DICT|INTERRES
   195   99  100 1    
   196   99  220 1    
   197  100  101 1    
   198  100  102 1    
   199  100  221 1    
   200  101  222 1    
   201  101  223 1    
   202  101  224 1    
   203  102  103 2    
   204  102  104 am   BACKBONE|DICT|INTERRES
   205  104  105 1    
   206  104  225 1    
   207  105  106 1    
   208  105  107 1    
   209  105  226 1    
   210  106  227 1    
   211  106  228 1    
   212  106  229 1    
   213  107  108 2    
   214  107  109 am   BACKBONE|DICT|INTERRES
   215  109  110 1    
   216  109  230 1    
   217  110  111 1    
   218  110  112 1    
   219  110  231 1    
   220  111  232 1    
   221  111  233 1    
   222  111  234 1    
   223  112  113 2    
   224  112  114 am   BACKBONE|DICT|INTERRES
   225  114  115 1    
   226  114  235 1    
   227  115  116 1    
   228  115  117 1    
   229  115  236 1    
   230  116  237 1    
   231  116  238 1    
   232  116  239 1    
   233  117  118 2    
   234  117  119 am   BACKBONE|DICT|INTERRES
   235  119  120 1    
   236  119  240 1    
   237  120  121 1    
   238  120  124 1    
   239  120  241 1    
   240  121  122 am   BACKBONE|DICT|INTERRES
   241  121  123 2    
   242  122  242 1    
   243  122  243 1    
   244  124  125 1    
   245  124  244 1    
   246  124  245 1    
   247  125  126 1    
   248  126  246 1    
   249  126  247 1    
@<TRIPOS>SUBSTRUCTURE
     1 UNK         1 GROUP             0       ****    0 ROOT    
