@<TRIPOS>MOLECULE
3R540
247   249    1
SMALL
USER_CHARGES


@<TRIPOS>ATOM
      1 CA          3.7292  -16.4082  -47.1859 C.3       0 UNK        -0.1800 
      2 C           2.3261  -15.8874  -47.4546 C.2       0 UNK         0.5000 
      3 O           1.4618  -15.9727  -46.5840 O.2       0 UNK        -0.5000 
      4 N           2.0934  -15.3425  -48.6549 N.am      1 UNK        -0.5000 
      5 CA          0.8043  -14.8098  -49.1045 C.3       1 UNK         0.1400 
      6 C6          0.6417  -14.9650  -50.6405 C.3       23 UNK        -0.0398 
      7 S7         -1.0984  -14.9905  -51.2015 S.3       23 UNK        -0.2404 
      8 C8         -1.7462  -16.5451  -50.5007 C.3       23 UNK        -0.0205 
      9 C9         -0.9761  -17.7706  -50.9673 C.ar      23 UNK        -0.0193 
     10 C10        -1.3056  -18.3845  -52.1767 C.ar      23 UNK        -0.1150 
     11 C11        -0.6363  -19.5377  -52.5927 C.ar      23 UNK        -0.0193 
     12 C12         0.3741  -20.0731  -51.7900 C.ar      23 UNK        -0.1150 
     13 C13         0.7208  -19.4685  -50.5780 C.ar      23 UNK        -0.0193 
     14 C14         0.0425  -18.3110  -50.1768 C.ar      23 UNK        -0.1150 
     15 C15         1.8236  -20.0936  -49.7238 C.3       23 UNK        -0.0205 
     16 S16         1.5594  -19.9835  -47.9193 S.3       23 UNK        -0.2404 
     17 C17        -0.0949  -20.7253  -47.7196 C.3       23 UNK        -0.0398 
     18 CA         -0.0784  -22.1790  -47.1956 C.3       11 UNK         0.1400 
     19 N           0.5652  -22.3119  -45.8826 N.am      11 UNK        -0.5000 
     20 C           0.7672  -23.4754  -45.2454 C.2       10 UNK         0.5000 
     21 O           0.4934  -24.5729  -45.7264 O.2       10 UNK        -0.5000 
     22 CA          1.2892  -23.4043  -43.8011 C.3       10 UNK         0.1400 
     23 CB          2.8174  -23.2522  -43.7606 C.3       10 UNK        -0.1800 
     24 N           0.6478  -22.3223  -43.0548 N.am      10 UNK        -0.5000 
     25 C          -0.6355  -22.3402  -42.6658 C.2       9 UNK         0.5000 
     26 O          -1.3859  -23.3001  -42.8420 O.2       9 UNK        -0.5000 
     27 CA         -1.1851  -21.0587  -42.0123 C.3       9 UNK         0.1400 
     28 CB         -0.9147  -21.0623  -40.5009 C.3       9 UNK        -0.1800 
     29 N          -0.6245  -19.8448  -42.6068 N.am      9 UNK        -0.5000 
     30 C          -0.8898  -19.4253  -43.8539 C.2       8 UNK         0.5000 
     31 O          -1.6815  -19.9925  -44.6063 O.2       8 UNK        -0.5000 
     32 CA         -0.0990  -18.2060  -44.3694 C.3       8 UNK         0.1400 
     33 CB         -0.8641  -16.9086  -44.0742 C.3       8 UNK        -0.1800 
     34 N           1.2508  -18.1161  -43.8079 N.am      8 UNK        -0.5000 
     35 C           2.1951  -19.0586  -43.9499 C.2       7 UNK         0.5000 
     36 O           2.0277  -20.0844  -44.6067 O.2       7 UNK        -0.5000 
     37 CA          3.5228  -18.8752  -43.1895 C.3       7 UNK         0.1400 
     38 CB          4.6321  -18.4064  -44.1412 C.3       7 UNK        -0.1800 
     39 N           3.4458  -17.9483  -42.0605 N.am      7 UNK        -0.5000 
     40 C           2.6800  -18.0939  -40.9688 C.2       6 UNK         0.5000 
     41 O           1.9466  -19.0630  -40.7713 O.2       6 UNK        -0.5000 
     42 CA          2.7081  -16.9303  -39.9576 C.3       6 UNK         0.1400 
     43 CB          3.7250  -17.2103  -38.8412 C.3       6 UNK        -0.1800 
     44 N           3.0273  -15.6463  -40.5930 N.am      6 UNK        -0.5000 
     45 C           2.2104  -15.0064  -41.4401 C.2       5 UNK         0.5000 
     46 O           1.0731  -15.3939  -41.7130 O.2       5 UNK        -0.5000 
     47 CA          2.7882  -13.7751  -42.1533 C.3       5 UNK         0.1400 
     48 CB          3.1583  -14.1229  -43.6053 C.3       5 UNK        -0.1800 
     49 N           1.8277  -12.6749  -42.1449 N.am      5 UNK        -0.5000 
     50 C           1.6684  -11.8321  -41.1139 C.2       4 UNK         0.5000 
     51 O           2.3260  -11.9059  -40.0745 O.2       4 UNK        -0.5000 
     52 CA          0.6341  -10.6972  -41.2579 C.3       4 UNK         0.1400 
     53 CB          1.3447   -9.3548  -41.4940 C.3       4 UNK        -0.1800 
     54 N          -0.3188  -10.9142  -42.3445 N.am      4 UNK        -0.5000 
     55 C          -1.3982  -11.7034  -42.2713 C.2       3 UNK         0.5000 
     56 O          -1.7405  -12.3027  -41.2515 O.2       3 UNK        -0.5000 
     57 CA         -2.2342  -11.8504  -43.5595 C.3       3 UNK         0.1400 
     58 CB         -3.4447  -10.9047  -43.5251 C.3       3 UNK        -0.1800 
     59 N          -1.4751  -11.6101  -44.7934 N.am      3 UNK        -0.5000 
     60 C          -0.4700  -12.3833  -45.2219 C.2       2 UNK         0.5000 
     61 O          -0.0393  -13.3501  -44.5929 O.2       2 UNK        -0.5000 
     62 CA          0.1904  -11.9992  -46.5493 C.3       2 UNK         0.1400 
     63 CB          1.4728  -11.1841  -46.3099 C.3       2 UNK        -0.1800 
     64 N           0.5049  -13.2304  -47.2618 N.am      2 UNK        -0.5000 
     65 C           0.5850  -13.3697  -48.5879 C.2       1 UNK         0.5000 
     66 O           0.5058  -12.4239  -49.3742 O.2       1 UNK        -0.5000 
     67 C          -1.5190  -22.7316  -47.1862 C.2       11 UNK         0.5000 
     68 O          -1.9070  -23.4443  -48.1150 O.2       11 UNK        -0.5000 
     69 N          -2.2797  -22.4021  -46.1319 N.am      12 UNK        -0.5000 
     70 CA         -3.6407  -22.8828  -45.9035 C.3       12 UNK         0.1400 
     71 CB         -4.2671  -22.1396  -44.7156 C.3       12 UNK        -0.1800 
     72 C          -3.7048  -24.4067  -45.7017 C.2       12 UNK         0.5000 
     73 O          -4.5834  -25.0540  -46.2694 O.2       12 UNK        -0.5000 
     74 N          -2.7568  -24.9581  -44.9338 N.am      13 UNK        -0.5000 
     75 CA         -2.6206  -26.3971  -44.7131 C.3       13 UNK         0.1400 
     76 CB         -1.6210  -26.6466  -43.5733 C.3       13 UNK        -0.1800 
     77 C          -2.2023  -27.1617  -45.9840 C.2       13 UNK         0.5000 
     78 O          -2.7451  -28.2345  -46.2515 O.2       13 UNK        -0.5000 
     79 N          -1.2409  -26.6059  -46.7327 N.am      14 UNK        -0.5000 
     80 CA         -0.6458  -27.2365  -47.9082 C.3       14 UNK         0.1400 
     81 CB          0.7181  -26.5903  -48.1994 C.3       14 UNK        -0.1800 
     82 C          -1.5355  -27.1811  -49.1605 C.2       14 UNK         0.5000 
     83 O          -1.6569  -28.1951  -49.8500 O.2       14 UNK        -0.5000 
     84 N          -2.0948  -26.0016  -49.4629 N.am      15 UNK        -0.5000 
     85 CA         -2.6913  -25.7036  -50.7692 C.3       15 UNK         0.1400 
     86 CB         -1.6559  -24.9226  -51.6017 C.3       15 UNK        -0.1800 
     87 C          -4.0183  -24.9310  -50.6864 C.2       15 UNK         0.5000 
     88 O          -4.5429  -24.5499  -51.7323 O.2       15 UNK        -0.5000 
     89 N          -4.5297  -24.6794  -49.4712 N.am      16 UNK        -0.5000 
     90 CA         -5.6806  -23.8086  -49.1826 C.3       16 UNK         0.1400 
     91 CB         -6.9877  -24.3792  -49.7728 C.3       16 UNK        -0.1800 
     92 C          -5.4249  -22.3273  -49.5487 C.2       16 UNK         0.5000 
     93 O          -6.3728  -21.5769  -49.7893 O.2       16 UNK        -0.5000 
     94 N          -4.1396  -21.9362  -49.5513 N.am      17 UNK        -0.5000 
     95 CA         -3.5996  -20.6063  -49.8344 C.3       17 UNK         0.1400 
     96 CB         -3.7797  -19.6936  -48.6013 C.3       17 UNK        -0.1800 
     97 C          -4.1421  -20.0145  -51.1513 C.2       17 UNK         0.5000 
     98 O          -3.9063  -20.5919  -52.2134 O.2       17 UNK        -0.5000 
     99 N          -4.8609  -18.8865  -51.0654 N.am      18 UNK        -0.5000 
    100 CA        -5.4029  -18.1192  -52.1897 C.3       18 UNK         0.1400 
    101 CB        -6.1191  -16.8759  -51.6425 C.3       18 UNK        -0.1800 
    102 C         -6.3330  -18.9074  -53.1332 C.2       18 UNK         0.5000 
    103 O         -6.4528  -18.5315  -54.2994 O.2       18 UNK        -0.5000 
    104 N         -6.9345  -20.0029  -52.6460 N.am      19 UNK        -0.5000 
    105 CA        -7.7631  -20.9187  -53.4342 C.3       19 UNK         0.1400 
    106 CB        -8.4249  -21.9349  -52.4945 C.3       19 UNK        -0.1800 
    107 C         -6.9947  -21.6441  -54.5596 C.2       19 UNK         0.5000 
    108 O         -7.6150  -22.0385  -55.5477 O.2       19 UNK        -0.5000 
    109 N         -5.6676  -21.7817  -54.4165 N.am      20 UNK        -0.5000 
    110 CA        -4.7761  -22.3221  -55.4466 C.3       20 UNK         0.1400 
    111 CB        -3.5430  -22.9427  -54.7740 C.3       20 UNK        -0.1800 
    112 C         -4.3837  -21.2866  -56.5244 C.2       20 UNK         0.5000 
    113 O         -3.7536  -21.6680  -57.5114 O.2       20 UNK        -0.5000 
    114 N         -4.7855  -20.0177  -56.3416 N.am      21 UNK        -0.5000 
    115 CA        -4.6820  -18.9044  -57.2902 C.3       21 UNK         0.1400 
    116 CB        -5.5944  -19.1518  -58.5102 C.3       21 UNK        -0.1800 
    117 C         -3.2317  -18.5488  -57.6796 C.2       21 UNK         0.5000 
    118 O         -2.9115  -18.4511  -58.8662 O.2       21 UNK        -0.5000 
    119 N         -2.3829  -18.3379  -56.6650 N.am      22 UNK        -0.5000 
    120 CA        -0.9968  -17.8576  -56.8301 C.3       22 UNK         0.1400 
    121 C         -0.8765  -16.3600  -57.2478 C.2       22 UNK         0.5000 
    122 N         -1.9273  -15.5523  -57.1640 N.am      22 UNK        -0.7600 
    123 O          0.1933  -15.9236  -57.6636 O.2       22 UNK        -0.5000 
    124 C124       -0.1295  -18.1326  -55.5753 C.3       23 UNK        -0.0398 
    125 S125        0.1172  -19.9115  -55.2528 S.3       23 UNK        -0.2404 
    126 C126       -1.0360  -20.2348  -53.8839 C.3       23 UNK        -0.0205 
    127 H127        3.6870  -17.4635  -46.9159 H         1 UNK         0.0600 
    128 H128        4.1805  -15.8561  -46.3619 H         1 UNK         0.0600 
    129 H129        4.3742  -16.3070  -48.0589 H         1 UNK         0.0600 
    130 H130        2.8540  -15.2615  -49.3145 H         1 UNK         0.3000 
    131 H131        0.0306  -15.4144  -48.6314 H         1 UNK         0.0600 
    132 H132        1.1072  -15.8905  -50.9797 H         1 UNK         0.0800 
    133 H133        1.1722  -14.1754  -51.1751 H         1 UNK         0.0800 
    134 H134       -1.7598  -16.4945  -49.4119 H         1 UNK         0.0800 
    135 H135       -2.7911  -16.6427  -50.7982 H         1 UNK         0.0800 
    136 H136       -2.0978  -17.9733  -52.7853 H         1 UNK         0.1150 
    137 H137        0.8865  -20.9692  -52.1112 H         1 UNK         0.1150 
    138 H138        0.2993  -17.8346  -49.2415 H         1 UNK         0.1150 
    139 H139        1.9465  -21.1470  -49.9807 H         1 UNK         0.0800 
    140 H140        2.7675  -19.6045  -49.9666 H         1 UNK         0.0800 
    141 H141       -0.6202  -20.6846  -48.6723 H         1 UNK         0.0800 
    142 H142       -0.6616  -20.0810  -47.0473 H         1 UNK         0.0800 
    143 H143        0.4947  -22.7858  -47.8998 H         1 UNK         0.0600 
    144 H144        0.8867  -21.4546  -45.4419 H         1 UNK         0.3000 
    145 H145        1.0382  -24.3469  -43.3099 H         1 UNK         0.0600 
    146 H146        3.3009  -24.1090  -44.2313 H         1 UNK         0.0600 
    147 H147        3.1581  -22.3614  -44.2870 H         1 UNK         0.0600 
    148 H148        3.1820  -23.1968  -42.7349 H         1 UNK         0.0600 
    149 H149        1.1809  -21.4724  -42.9389 H         1 UNK         0.3000 
    150 H150       -2.2664  -21.0431  -42.1635 H         1 UNK         0.0600 
    151 H151       -1.3341  -20.1772  -40.0223 H         1 UNK         0.0600 
    152 H152        0.1534  -21.0879  -40.2820 H         1 UNK         0.0600 
    153 H153       -1.3674  -21.9342  -40.0269 H         1 UNK         0.0600 
    154 H154        0.0665  -19.3471  -42.0591 H         1 UNK         0.3000 
    155 H155        0.0019  -18.3044  -45.4521 H         1 UNK         0.0600 
    156 H156       -1.8532  -16.9246  -44.5333 H         1 UNK         0.0600 
    157 H157       -0.3358  -16.0420  -44.4712 H         1 UNK         0.0600 
    158 H158       -0.9990  -16.7546  -43.0030 H         1 UNK         0.0600 
    159 H159        1.4493  -17.3015  -43.2439 H         1 UNK         0.3000 
    160 H160        3.8019  -19.8548  -42.7960 H         1 UNK         0.0600 
    161 H161        4.7023  -19.0559  -45.0151 H         1 UNK         0.0600 
    162 H162        5.6048  -18.4194  -43.6493 H         1 UNK         0.0600 
    163 H163        4.4498  -17.3924  -44.4960 H         1 UNK         0.0600 
    164 H164        4.0132  -17.1170  -42.1270 H         1 UNK         0.3000 
    165 H165        1.7154  -16.8568  -39.5082 H         1 UNK         0.0600 
    166 H166        3.7085  -16.4239  -38.0864 H         1 UNK         0.0600 
    167 H167        3.4989  -18.1498  -38.3349 H         1 UNK         0.0600 
    168 H168        4.7416  -17.2831  -39.2296 H         1 UNK         0.0600 
    169 H169        3.9428  -15.2635  -40.4037 H         1 UNK         0.3000 
    170 H170        3.6998  -13.4566  -41.6429 H         1 UNK         0.0600 
    171 H171        3.5449  -13.2523  -44.1349 H         1 UNK         0.0600 
    172 H172        3.9311  -14.8915  -43.6376 H         1 UNK         0.0600 
    173 H173        2.3019  -14.5022  -44.1643 H         1 UNK         0.0600 
    174 H174        1.1853  -12.6359  -42.9267 H         1 UNK         0.3000 
    175 H175        0.0870  -10.6304  -40.3150 H         1 UNK         0.0600 
    176 H176        1.9113   -9.3576  -42.4261 H         1 UNK         0.0600 
    177 H177        0.6303   -8.5323  -41.5369 H         1 UNK         0.0600 
    178 H178        2.0433   -9.1337  -40.6860 H         1 UNK         0.0600 
    179 H179       -0.1214  -10.4549  -43.2210 H         1 UNK         0.3000 
    180 H180       -2.6043  -12.8775  -43.5891 H         1 UNK         0.0600 
    181 H181       -4.0925  -11.0604  -44.3880 H         1 UNK         0.0600 
    182 H182       -3.1376   -9.8581  -43.5184 H         1 UNK         0.0600 
    183 H183       -4.0489  -11.0750  -42.6329 H         1 UNK         0.0600 
    184 H184       -1.7679  -10.8233  -45.3552 H         1 UNK         0.3000 
    185 H185       -0.5155  -11.4077  -47.1364 H         1 UNK         0.0600 
    186 H186        2.2050  -11.7494  -45.7319 H         1 UNK         0.0600 
    187 H187        1.9404  -10.8978  -47.2519 H         1 UNK         0.0600 
    188 H188        1.2573  -10.2661  -45.7620 H         1 UNK         0.0600 
    189 H189        0.6031  -14.0536  -46.6721 H         1 UNK         0.3000 
    190 H190       -1.9120  -21.7492  -45.4460 H         1 UNK         0.3000 
    191 H191       -4.2262  -22.6371  -46.7886 H         1 UNK         0.0600 
    192 H192       -3.7194  -22.3194  -43.7910 H         1 UNK         0.0600 
    193 H193       -5.2970  -22.4603  -44.5543 H         1 UNK         0.0600 
    194 H194       -4.2855  -21.0636  -44.8902 H         1 UNK         0.0600 
    195 H195       -2.0959  -24.3551  -44.4554 H         1 UNK         0.3000 
    196 H196       -3.5925  -26.7829  -44.3983 H         1 UNK         0.0600 
    197 H197       -1.5195  -27.7131  -43.3688 H         1 UNK         0.0600 
    198 H198       -1.9488  -26.1677  -42.6504 H         1 UNK         0.0600 
    199 H199       -0.6297  -26.2622  -43.8144 H         1 UNK         0.0600 
    200 H200       -0.8015  -25.7473  -46.4093 H         1 UNK         0.3000 
    201 H201       -0.4680  -28.2889  -47.6762 H         1 UNK         0.0600 
    202 H202        1.3985  -26.7110  -47.3563 H         1 UNK         0.0600 
    203 H203        0.6233  -25.5226  -48.4018 H         1 UNK         0.0600 
    204 H204        1.1926  -27.0491  -49.0678 H         1 UNK         0.0600 
    205 H205       -1.9426  -25.2052  -48.8487 H         1 UNK         0.3000 
    206 H206       -2.9271  -26.6274  -51.3008 H         1 UNK         0.0600 
    207 H207       -2.0266  -24.7148  -52.6059 H         1 UNK         0.0600 
    208 H208       -1.4103  -23.9663  -51.1375 H         1 UNK         0.0600 
    209 H209       -0.7306  -25.4881  -51.7126 H         1 UNK         0.0600 
    210 H210       -4.0523  -25.0541  -48.6622 H         1 UNK         0.3000 
    211 H211       -5.8119  -23.8118  -48.1025 H         1 UNK         0.0600 
    212 H212       -6.9656  -24.4256  -50.8604 H         1 UNK         0.0600 
    213 H213       -7.8470  -23.7704  -49.4893 H         1 UNK         0.0600 
    214 H214       -7.1728  -25.3876  -49.4029 H         1 UNK         0.0600 
    215 H215       -3.4452  -22.6436  -49.3418 H         1 UNK         0.3000 
    216 H216       -2.5299  -20.7391  -49.9969 H         1 UNK         0.0600 
    217 H217       -3.3219  -18.7165  -48.7607 H         1 UNK         0.0600 
    218 H218       -3.3007  -20.1259  -47.7230 H         1 UNK         0.0600 
    219 H219       -4.8310  -19.5402  -48.3547 H         1 UNK         0.0600 
    220 H220       -5.0424  -18.5127  -50.1456 H         1 UNK         0.3000 
    221 H221       -4.5550  -17.7846  -52.7899 H         1 UNK         0.0600 
    222 H222       -6.9570  -17.1466  -50.9990 H         1 UNK         0.0600 
    223 H223       -5.4391  -16.2493  -51.0651 H         1 UNK         0.0600 
    224 H224       -6.5129  -16.2617  -52.4536 H         1 UNK         0.0600 
    225 H225       -6.7555  -20.2682  -51.6849 H         1 UNK         0.3000 
    226 H226       -8.5514  -20.3283  -53.9057 H         1 UNK         0.0600 
    227 H227       -9.0061  -21.4392  -51.7168 H         1 UNK         0.0600 
    228 H228       -9.1022  -22.5923  -53.0410 H         1 UNK         0.0600 
    229 H229       -7.6792  -22.5623  -52.0088 H         1 UNK         0.0600 
    230 H230       -5.2203  -21.4309  -53.5749 H         1 UNK         0.3000 
    231 H231       -5.2939  -23.1270  -55.9724 H         1 UNK         0.0600 
    232 H232       -3.0728  -22.2491  -54.0818 H         1 UNK         0.0600 
    233 H233       -3.8194  -23.8327  -54.2101 H         1 UNK         0.0600 
    234 H234       -2.7928  -23.2455  -55.5055 H         1 UNK         0.0600 
    235 H235       -5.3072  -19.8054  -55.4991 H         1 UNK         0.3000 
    236 H236       -5.0750  -18.0297  -56.7701 H         1 UNK         0.0600 
    237 H237       -5.2549  -19.9987  -59.1073 H         1 UNK         0.0600 
    238 H238       -6.6203  -19.3508  -58.1997 H         1 UNK         0.0600 
    239 H239       -5.6181  -18.2792  -59.1641 H         1 UNK         0.0600 
    240 H240       -2.7149  -18.4489  -55.7199 H         1 UNK         0.3000 
    241 H241       -0.5566  -18.4224  -57.6544 H         1 UNK         0.0600 
    242 H242       -1.8324  -14.5882  -57.4432 H         1 UNK         0.3800 
    243 H243       -2.8131  -15.8883  -56.8239 H         1 UNK         0.3800 
    244 H244        0.8676  -17.7064  -55.7008 H         1 UNK         0.0800 
    245 H245       -0.5519  -17.6357  -54.7029 H         1 UNK         0.0800 
    246 H246       -1.0543  -21.3098  -53.7045 H         1 UNK         0.0800 
    247 H247       -2.0480  -19.9564  -54.1799 H         1 UNK         0.0800 
@<TRIPOS>BOND
     1    1    2 1    
     2    1  127 1    
     3    1  128 1    
     4    1  129 1    
     5    2    3 2    
     6    2    4 am   BACKBONE|DICT|INTERRES
     7    4    5 1    
     8    4  130 1    
     9    5    6 1    
    10    5   65 1    
    11    5  131 1    
    12    6    7 1    
    13    6  132 1    
    14    6  133 1    
    15    7    8 1    
    16    8    9 1    
    17    8  134 1    
    18    8  135 1    
    19    9   10 ar   
    20    9   14 ar   
    21   10   11 ar   
    22   10  136 1    
    23   11   12 ar   
    24   11  126 1    
    25   12   13 ar   
    26   12  137 1    
    27   13   14 ar   
    28   13   15 1    
    29   14  138 1    
    30   15   16 1    
    31   15  139 1    
    32   15  140 1    
    33   16   17 1    
    34   17   18 1    
    35   17  141 1    
    36   17  142 1    
    37   18   19 1    
    38   18   67 1    
    39   18  143 1    
    40   19   20 am   BACKBONE|DICT|INTERRES
    41   19  144 1    
    42   20   21 2    
    43   20   22 1    
    44   22   23 1    
    45   22   24 1    
    46   22  145 1    
    47   23  146 1    
    48   23  147 1    
    49   23  148 1    
    50   24   25 am   BACKBONE|DICT|INTERRES
    51   24  149 1    
    52   25   26 2    
    53   25   27 1    
    54   27   28 1    
    55   27   29 1    
    56   27  150 1    
    57   28  151 1    
    58   28  152 1    
    59   28  153 1    
    60   29   30 am   BACKBONE|DICT|INTERRES
    61   29  154 1    
    62   30   31 2    
    63   30   32 1    
    64   32   33 1    
    65   32   34 1    
    66   32  155 1    
    67   33  156 1    
    68   33  157 1    
    69   33  158 1    
    70   34   35 am   BACKBONE|DICT|INTERRES
    71   34  159 1    
    72   35   36 2    
    73   35   37 1    
    74   37   38 1    
    75   37   39 1    
    76   37  160 1    
    77   38  161 1    
    78   38  162 1    
    79   38  163 1    
    80   39   40 am   BACKBONE|DICT|INTERRES
    81   39  164 1    
    82   40   41 2    
    83   40   42 1    
    84   42   43 1    
    85   42   44 1    
    86   42  165 1    
    87   43  166 1    
    88   43  167 1    
    89   43  168 1    
    90   44   45 am   BACKBONE|DICT|INTERRES
    91   44  169 1    
    92   45   46 2    
    93   45   47 1    
    94   47   48 1    
    95   47   49 1    
    96   47  170 1    
    97   48  171 1    
    98   48  172 1    
    99   48  173 1    
   100   49   50 am   BACKBONE|DICT|INTERRES
   101   49  174 1    
   102   50   51 2    
   103   50   52 1    
   104   52   53 1    
   105   52   54 1    
   106   52  175 1    
   107   53  176 1    
   108   53  177 1    
   109   53  178 1    
   110   54   55 am   BACKBONE|DICT|INTERRES
   111   54  179 1    
   112   55   56 2    
   113   55   57 1    
   114   57   58 1    
   115   57   59 1    
   116   57  180 1    
   117   58  181 1    
   118   58  182 1    
   119   58  183 1    
   120   59   60 am   BACKBONE|DICT|INTERRES
   121   59  184 1    
   122   60   61 2    
   123   60   62 1    
   124   62   63 1    
   125   62   64 1    
   126   62  185 1    
   127   63  186 1    
   128   63  187 1    
   129   63  188 1    
   130   64   65 am   BACKBONE|DICT|INTERRES
   131   64  189 1    
   132   65   66 2    
   133   67   68 2    
   134   67   69 am   BACKBONE|DICT|INTERRES
   135   69   70 1    
   136   69  190 1    
   137   70   71 1    
   138   70   72 1    
   139   70  191 1    
   140   71  192 1    
   141   71  193 1    
   142   71  194 1    
   143   72   73 2    
   144   72   74 am   BACKBONE|DICT|INTERRES
   145   74   75 1    
   146   74  195 1    
   147   75   76 1    
   148   75   77 1    
   149   75  196 1    
   150   76  197 1    
   151   76  198 1    
   152   76  199 1    
   153   77   78 2    
   154   77   79 am   BACKBONE|DICT|INTERRES
   155   79   80 1    
   156   79  200 1    
   157   80   81 1    
   158   80   82 1    
   159   80  201 1    
   160   81  202 1    
   161   81  203 1    
   162   81  204 1    
   163   82   83 2    
   164   82   84 am   BACKBONE|DICT|INTERRES
   165   84   85 1    
   166   84  205 1    
   167   85   86 1    
   168   85   87 1    
   169   85  206 1    
   170   86  207 1    
   171   86  208 1    
   172   86  209 1    
   173   87   88 2    
   174   87   89 am   BACKBONE|DICT|INTERRES
   175   89   90 1    
   176   89  210 1    
   177   90   91 1    
   178   90   92 1    
   179   90  211 1    
   180   91  212 1    
   181   91  213 1    
   182   91  214 1    
   183   92   93 2    
   184   92   94 am   BACKBONE|DICT|INTERRES
   185   94   95 1    
   186   94  215 1    
   187   95   96 1    
   188   95   97 1    
   189   95  216 1    
   190   96  217 1    
   191   96  218 1    
   192   96  219 1    
   193   97   98 2    
   194   97   99 am   BACKBONE|DICT|INTERRES
   195   99  100 1    
   196   99  220 1    
   197  100  101 1    
   198  100  102 1    
   199  100  221 1    
   200  101  222 1    
   201  101  223 1    
   202  101  224 1    
   203  102  103 2    
   204  102  104 am   BACKBONE|DICT|INTERRES
   205  104  105 1    
   206  104  225 1    
   207  105  106 1    
   208  105  107 1    
   209  105  226 1    
   210  106  227 1    
   211  106  228 1    
   212  106  229 1    
   213  107  108 2    
   214  107  109 am   BACKBONE|DICT|INTERRES
   215  109  110 1    
   216  109  230 1    
   217  110  111 1    
   218  110  112 1    
   219  110  231 1    
   220  111  232 1    
   221  111  233 1    
   222  111  234 1    
   223  112  113 2    
   224  112  114 am   BACKBONE|DICT|INTERRES
   225  114  115 1    
   226  114  235 1    
   227  115  116 1    
   228  115  117 1    
   229  115  236 1    
   230  116  237 1    
   231  116  238 1    
   232  116  239 1    
   233  117  118 2    
   234  117  119 am   BACKBONE|DICT|INTERRES
   235  119  120 1    
   236  119  240 1    
   237  120  121 1    
   238  120  124 1    
   239  120  241 1    
   240  121  122 am   BACKBONE|DICT|INTERRES
   241  121  123 2    
   242  122  242 1    
   243  122  243 1    
   244  124  125 1    
   245  124  244 1    
   246  124  245 1    
   247  125  126 1    
   248  126  246 1    
   249  126  247 1    
@<TRIPOS>SUBSTRUCTURE
     1 UNK         1 GROUP             0       ****    0 ROOT    
