@<TRIPOS>MOLECULE
3R540
247   249    1
SMALL
USER_CHARGES


@<TRIPOS>ATOM
      1 CA         -5.8158  -17.3426  -46.0611 C.3       0 UNK        -0.1800 
      2 C          -5.1725  -16.0089  -46.4078 C.2       0 UNK         0.5000 
      3 O          -5.7730  -14.9593  -46.1756 O.2       0 UNK        -0.5000 
      4 N          -3.9500  -16.0419  -46.9501 N.am      1 UNK        -0.5000 
      5 CA         -3.1333  -14.8654  -47.2521 C.3       1 UNK         0.1400 
      6 C6         -2.1065  -15.1531  -48.3732 C.3       23 UNK        -0.0398 
      7 S7         -2.9147  -15.4628  -49.9795 S.3       23 UNK        -0.2404 
      8 C8         -1.6894  -14.8153  -51.1604 C.3       23 UNK        -0.0205 
      9 C9         -0.5901  -15.8256  -51.4586 C.ar      23 UNK        -0.0193 
     10 C10        -0.5500  -16.4862  -52.6909 C.ar      23 UNK        -0.1150 
     11 C11         0.4859  -17.3785  -52.9878 C.ar      23 UNK        -0.0193 
     12 C12         1.4648  -17.6388  -52.0242 C.ar      23 UNK        -0.1150 
     13 C13         1.4263  -16.9953  -50.7838 C.ar      23 UNK        -0.0193 
     14 C14         0.4099  -16.0758  -50.5163 C.ar      23 UNK        -0.1150 
     15 C15         2.5065  -17.2573  -49.7479 C.3       23 UNK        -0.0205 
     16 S16         2.2098  -18.7784  -48.7920 S.3       23 UNK        -0.2404 
     17 C17         0.7562  -18.3799  -47.7475 C.3       23 UNK        -0.0398 
     18 CA         -0.3151  -19.5016  -47.7748 C.3       11 UNK         0.1400 
     19 N           0.2951  -20.8074  -47.5046 N.am      11 UNK        -0.5000 
     20 C          -0.3072  -22.0018  -47.4922 C.2       10 UNK         0.5000 
     21 O          -1.5031  -22.1629  -47.7175 O.2       10 UNK        -0.5000 
     22 CA          0.5674  -23.2065  -47.0951 C.3       10 UNK         0.1400 
     23 CB          1.0976  -23.9140  -48.3512 C.3       10 UNK        -0.1800 
     24 N           1.6951  -22.8368  -46.2289 N.am      10 UNK        -0.5000 
     25 C           1.5695  -22.3043  -45.0052 C.2       9 UNK         0.5000 
     26 O           0.4843  -22.1042  -44.4518 O.2       9 UNK        -0.5000 
     27 CA          2.8622  -21.8521  -44.3173 C.3       9 UNK         0.1400 
     28 CB          3.2519  -20.4416  -44.8036 C.3       9 UNK        -0.1800 
     29 N           2.6347  -21.8503  -42.8765 N.am      9 UNK        -0.5000 
     30 C           3.5771  -21.7623  -41.9348 C.2       8 UNK         0.5000 
     31 O           4.7847  -21.6685  -42.1714 O.2       8 UNK        -0.5000 
     32 CA          3.0958  -21.8010  -40.4795 C.3       8 UNK         0.1400 
     33 CB          3.2327  -23.2111  -39.8800 C.3       8 UNK        -0.1800 
     34 N           3.8953  -20.8502  -39.7189 N.am      8 UNK        -0.5000 
     35 C           3.4796  -20.1814  -38.6401 C.2       7 UNK         0.5000 
     36 O           2.4040  -20.3937  -38.0775 O.2       7 UNK        -0.5000 
     37 CA          4.3890  -19.0548  -38.1075 C.3       7 UNK         0.1400 
     38 CB          5.8757  -19.1853  -38.5119 C.3       7 UNK        -0.1800 
     39 N           3.8406  -17.7445  -38.4754 N.am      7 UNK        -0.5000 
     40 C           3.6509  -17.2714  -39.7160 C.2       6 UNK         0.5000 
     41 O           4.0747  -17.8139  -40.7395 O.2       6 UNK        -0.5000 
     42 CA          2.8495  -15.9591  -39.8281 C.3       6 UNK         0.1400 
     43 CB          3.7959  -14.7508  -39.8955 C.3       6 UNK        -0.1800 
     44 N           1.9783  -15.9445  -41.0048 N.am      6 UNK        -0.5000 
     45 C           0.9825  -16.8099  -41.2461 C.2       5 UNK         0.5000 
     46 O           0.6256  -17.6745  -40.4446 O.2       5 UNK        -0.5000 
     47 CA          0.2451  -16.6912  -42.5950 C.3       5 UNK         0.1400 
     48 CB         -1.2565  -16.4417  -42.3826 C.3       5 UNK        -0.1800 
     49 N           0.7790  -15.6425  -43.4660 N.am      5 UNK        -0.5000 
     50 C           1.8071  -15.8030  -44.3106 C.2       4 UNK         0.5000 
     51 O           2.4498  -16.8490  -44.3969 O.2       4 UNK        -0.5000 
     52 CA          2.1812  -14.6129  -45.2158 C.3       4 UNK         0.1400 
     53 CB          2.2330  -15.0430  -46.6894 C.3       4 UNK        -0.1800 
     54 N           1.2277  -13.5101  -45.0964 N.am      4 UNK        -0.5000 
     55 C           1.5030  -12.2886  -44.6215 C.2       3 UNK         0.5000 
     56 O           2.6163  -11.9447  -44.2233 O.2       3 UNK        -0.5000 
     57 CA          0.3425  -11.2712  -44.5786 C.3       3 UNK         0.1400 
     58 CB          0.4247  -10.3173  -45.7802 C.3       3 UNK        -0.1800 
     59 N          -0.9892  -11.8824  -44.5535 N.am      3 UNK        -0.5000 
     60 C          -1.4715  -12.6306  -43.5525 C.2       2 UNK         0.5000 
     61 O          -0.8446  -12.8779  -42.5224 O.2       2 UNK        -0.5000 
     62 CA         -2.8673  -13.2506  -43.7557 C.3       2 UNK         0.1400 
     63 CB         -3.9542  -12.2934  -43.2447 C.3       2 UNK        -0.1800 
     64 N          -3.1916  -13.6499  -45.1306 N.am      2 UNK        -0.5000 
     65 C          -2.4507  -14.4127  -45.9479 C.2       1 UNK         0.5000 
     66 O          -1.3068  -14.7910  -45.6917 O.2       1 UNK        -0.5000 
     67 C          -1.4967  -19.1779  -46.8266 C.2       11 UNK         0.5000 
     68 O          -2.4163  -18.4602  -47.2231 O.2       11 UNK        -0.5000 
     69 N          -1.4775  -19.7432  -45.6095 N.am      12 UNK        -0.5000 
     70 CA         -2.5498  -19.6353  -44.6201 C.3       12 UNK         0.1400 
     71 CB         -1.9785  -19.9799  -43.2359 C.3       12 UNK        -0.1800 
     72 C          -3.7524  -20.5543  -44.9149 C.2       12 UNK         0.5000 
     73 O          -4.8512  -20.2736  -44.4350 O.2       12 UNK        -0.5000 
     74 N          -3.5399  -21.6422  -45.6682 N.am      13 UNK        -0.5000 
     75 CA         -4.5375  -22.6758  -45.9377 C.3       13 UNK         0.1400 
     76 CB         -3.8260  -24.0206  -46.1738 C.3       13 UNK        -0.1800 
     77 C          -5.4295  -22.2678  -47.1207 C.2       13 UNK         0.5000 
     78 O          -5.2051  -22.7132  -48.2474 O.2       13 UNK        -0.5000 
     79 N          -6.4074  -21.3937  -46.8426 N.am      14 UNK        -0.5000 
     80 CA         -7.4200  -20.8818  -47.7756 C.3       14 UNK         0.1400 
     81 CB         -8.4076  -22.0021  -48.1642 C.3       14 UNK        -0.1800 
     82 C          -6.7970  -20.1836  -49.0016 C.2       14 UNK         0.5000 
     83 O          -7.1950  -20.4470  -50.1377 O.2       14 UNK        -0.5000 
     84 N          -5.7929  -19.3351  -48.7347 N.am      15 UNK        -0.5000 
     85 CA         -4.9770  -18.6044  -49.7097 C.3       15 UNK         0.1400 
     86 CB         -5.8331  -17.5678  -50.4693 C.3       15 UNK        -0.1800 
     87 C          -4.2102  -19.5614  -50.6429 C.2       15 UNK         0.5000 
     88 O          -4.2398  -19.3889  -51.8611 O.2       15 UNK        -0.5000 
     89 N          -3.5890  -20.5905  -50.0446 N.am      16 UNK        -0.5000 
     90 CA         -2.9134  -21.7112  -50.7064 C.3       16 UNK         0.1400 
     91 CB         -1.6237  -21.2338  -51.4019 C.3       16 UNK        -0.1800 
     92 C          -3.8632  -22.4858  -51.6393 C.2       16 UNK         0.5000 
     93 O          -3.5407  -22.7068  -52.8075 O.2       16 UNK        -0.5000 
     94 N          -5.0314  -22.8565  -51.0949 N.am      17 UNK        -0.5000 
     95 CA         -6.1472  -23.5357  -51.7588 C.3       17 UNK         0.1400 
     96 CB         -5.7621  -24.9937  -52.0865 C.3       17 UNK        -0.1800 
     97 C          -6.6568  -22.7552  -52.9884 C.2       17 UNK         0.5000 
     98 O          -6.7393  -23.3123  -54.0830 O.2       17 UNK        -0.5000 
     99 N          -6.9407  -21.4589  -52.7919 N.am      18 UNK        -0.5000 
    100 CA        -7.2949  -20.4727  -53.8212 C.3       18 UNK         0.1400 
    101 CB        -8.7019  -20.7551  -54.3871 C.3       18 UNK        -0.1800 
    102 C         -6.2085  -20.3582  -54.9146 C.2       18 UNK         0.5000 
    103 O         -6.5096  -20.3825  -56.1091 O.2       18 UNK        -0.5000 
    104 N         -4.9542  -20.2736  -54.4562 N.am      19 UNK        -0.5000 
    105 CA        -3.6947  -20.2151  -55.1983 C.3       19 UNK         0.1400 
    106 CB        -3.6328  -18.9613  -56.0933 C.3       19 UNK        -0.1800 
    107 C         -3.3049  -21.4998  -55.9624 C.2       19 UNK         0.5000 
    108 O         -2.2764  -21.5008  -56.6425 O.2       19 UNK        -0.5000 
    109 N         -4.0839  -22.5833  -55.8357 N.am      20 UNK        -0.5000 
    110 CA        -3.8266  -23.8568  -56.5101 C.3       20 UNK         0.1400 
    111 CB        -5.0665  -24.7566  -56.4113 C.3       20 UNK        -0.1800 
    112 C         -2.5860  -24.5966  -55.9763 C.2       20 UNK         0.5000 
    113 O         -1.9351  -25.3018  -56.7487 O.2       20 UNK        -0.5000 
    114 N         -2.2787  -24.4361  -54.6812 N.am      21 UNK        -0.5000 
    115 CA        -1.1335  -25.0797  -54.0379 C.3       21 UNK         0.1400 
    116 CB        -1.4150  -25.2733  -52.5394 C.3       21 UNK        -0.1800 
    117 C          0.1774  -24.3044  -54.2580 C.2       21 UNK         0.5000 
    118 O          1.2298  -24.9368  -54.3605 O.2       21 UNK        -0.5000 
    119 N          0.1052  -22.9666  -54.3242 N.am      22 UNK        -0.5000 
    120 CA         1.2699  -22.0994  -54.5757 C.3       22 UNK         0.1400 
    121 C          1.6114  -21.9219  -56.0836 C.2       22 UNK         0.5000 
    122 N          0.6599  -22.0535  -57.0009 N.am      22 UNK        -0.7600 
    123 O          2.7650  -21.6785  -56.4270 O.2       22 UNK        -0.5000 
    124 C124        1.1758  -20.7444  -53.8263 C.3       23 UNK        -0.0398 
    125 S125       -0.1887  -19.6729  -54.3945 S.3       23 UNK        -0.2404 
    126 C126        0.5678  -18.0217  -54.3649 C.3       23 UNK        -0.0205 
    127 H127       -6.0862  -17.3657  -45.0054 H         1 UNK         0.0600 
    128 H128       -6.7215  -17.4878  -46.6497 H         1 UNK         0.0600 
    129 H129       -5.1380  -18.1732  -46.2511 H         1 UNK         0.0600 
    130 H130       -3.4773  -16.9335  -47.0823 H         1 UNK         0.3000 
    131 H131       -3.7773  -14.0517  -47.5934 H         1 UNK         0.0600 
    132 H132       -1.4242  -14.3081  -48.4794 H         1 UNK         0.0800 
    133 H133       -1.4946  -16.0180  -48.1200 H         1 UNK         0.0800 
    134 H134       -2.2118  -14.5503  -52.0809 H         1 UNK         0.0800 
    135 H135       -1.2540  -13.8875  -50.7872 H         1 UNK         0.0800 
    136 H136       -1.3125  -16.2880  -53.4312 H         1 UNK         0.1150 
    137 H137        2.2656  -18.3307  -52.2431 H         1 UNK         0.1150 
    138 H138        0.4008  -15.5508  -49.5730 H         1 UNK         0.1150 
    139 H139        3.4701  -17.3484  -50.2512 H         1 UNK         0.0800 
    140 H140        2.6039  -16.4080  -49.0741 H         1 UNK         0.0800 
    141 H141        0.3208  -17.4377  -48.0735 H         1 UNK         0.0800 
    142 H142        1.1138  -18.2133  -46.7293 H         1 UNK         0.0800 
    143 H143       -0.7301  -19.5421  -48.7824 H         1 UNK         0.0600 
    144 H144        1.2890  -20.7854  -47.3315 H         1 UNK         0.3000 
    145 H145       -0.0669  -23.9054  -46.5458 H         1 UNK         0.0600 
    146 H146        1.7556  -23.2659  -48.9316 H         1 UNK         0.0600 
    147 H147        1.6546  -24.8145  -48.0918 H         1 UNK         0.0600 
    148 H148        0.2776  -24.2174  -49.0039 H         1 UNK         0.0600 
    149 H149        2.6192  -22.9668  -46.6156 H         1 UNK         0.3000 
    150 H150        3.6572  -22.5624  -44.5536 H         1 UNK         0.0600 
    151 H151        3.3988  -20.4218  -45.8841 H         1 UNK         0.0600 
    152 H152        4.1826  -20.1022  -44.3494 H         1 UNK         0.0600 
    153 H153        2.4806  -19.7079  -44.5643 H         1 UNK         0.0600 
    154 H154        1.6593  -21.9486  -42.6209 H         1 UNK         0.3000 
    155 H155        2.0470  -21.4963  -40.4521 H         1 UNK         0.0600 
    156 H156        2.6522  -23.9360  -40.4518 H         1 UNK         0.0600 
    157 H157        2.8692  -23.2411  -38.8527 H         1 UNK         0.0600 
    158 H158        4.2704  -23.5469  -39.8782 H         1 UNK         0.0600 
    159 H159        4.7633  -20.5822  -40.1660 H         1 UNK         0.3000 
    160 H160        4.3442  -19.1149  -37.0190 H         1 UNK         0.0600 
    161 H161        6.0322  -19.1024  -39.5873 H         1 UNK         0.0600 
    162 H162        6.2806  -20.1471  -38.1947 H         1 UNK         0.0600 
    163 H163        6.4757  -18.4112  -38.0336 H         1 UNK         0.0600 
    164 H164        3.4445  -17.2224  -37.7061 H         1 UNK         0.3000 
    165 H165        2.2149  -15.8574  -38.9453 H         1 UNK         0.0600 
    166 H166        3.2397  -13.8137  -39.9277 H         1 UNK         0.0600 
    167 H167        4.4446  -14.7130  -39.0194 H         1 UNK         0.0600 
    168 H168        4.4373  -14.7920  -40.7770 H         1 UNK         0.0600 
    169 H169        2.2095  -15.2830  -41.7298 H         1 UNK         0.3000 
    170 H170        0.3585  -17.6508  -43.1017 H         1 UNK         0.0600 
    171 H171       -1.4325  -15.5117  -41.8421 H         1 UNK         0.0600 
    172 H172       -1.7863  -16.3919  -43.3342 H         1 UNK         0.0600 
    173 H173       -1.7115  -17.2447  -41.8018 H         1 UNK         0.0600 
    174 H174        0.3110  -14.7470  -43.4349 H         1 UNK         0.3000 
    175 H175        3.1818  -14.2942  -44.9178 H         1 UNK         0.0600 
    176 H176        2.9492  -15.8528  -46.8329 H         1 UNK         0.0600 
    177 H177        1.2601  -15.3910  -47.0376 H         1 UNK         0.0600 
    178 H178        2.5430  -14.2179  -47.3306 H         1 UNK         0.0600 
    179 H179        0.2752  -13.7308  -45.3751 H         1 UNK         0.3000 
    180 H180        0.4588  -10.6833  -43.6658 H         1 UNK         0.0600 
    181 H181       -0.3383   -9.5409  -45.7215 H         1 UNK         0.0600 
    182 H182        0.2938  -10.8481  -46.7241 H         1 UNK         0.0600 
    183 H183        1.3931   -9.8164  -45.8169 H         1 UNK         0.0600 
    184 H184       -1.5689  -11.7425  -45.3678 H         1 UNK         0.3000 
    185 H185       -2.9107  -14.1551  -43.1484 H         1 UNK         0.0600 
    186 H186       -3.7620  -11.9963  -42.2127 H         1 UNK         0.0600 
    187 H187       -4.0034  -11.3842  -43.8451 H         1 UNK         0.0600 
    188 H188       -4.9374  -12.7643  -43.2670 H         1 UNK         0.0600 
    189 H189       -4.1383  -13.4505  -45.4274 H         1 UNK         0.3000 
    190 H190       -0.7083  -20.3550  -45.3666 H         1 UNK         0.3000 
    191 H191       -2.9062  -18.6030  -44.6007 H         1 UNK         0.0600 
    192 H192       -1.7011  -21.0325  -43.1665 H         1 UNK         0.0600 
    193 H193       -2.7107  -19.7825  -42.4519 H         1 UNK         0.0600 
    194 H194       -1.0916  -19.3931  -43.0080 H         1 UNK         0.0600 
    195 H195       -2.6421  -21.7674  -46.1229 H         1 UNK         0.3000 
    196 H196       -5.1761  -22.7991  -45.0602 H         1 UNK         0.0600 
    197 H197       -4.5523  -24.8221  -46.3128 H         1 UNK         0.0600 
    198 H198       -3.2015  -24.2912  -45.3223 H         1 UNK         0.0600 
    199 H199       -3.1923  -24.0023  -47.0602 H         1 UNK         0.0600 
    200 H200       -6.4579  -21.0389  -45.8950 H         1 UNK         0.3000 
    201 H201       -7.9819  -20.1159  -47.2392 H         1 UNK         0.0600 
    202 H202       -8.8557  -22.4558  -47.2803 H         1 UNK         0.0600 
    203 H203       -7.9207  -22.7928  -48.7358 H         1 UNK         0.0600 
    204 H204       -9.2220  -21.6113  -48.7753 H         1 UNK         0.0600 
    205 H205       -5.5202  -19.2289  -47.7694 H         1 UNK         0.3000 
    206 H206       -4.2221  -18.0583  -49.1450 H         1 UNK         0.0600 
    207 H207       -6.6131  -18.0380  -51.0681 H         1 UNK         0.0600 
    208 H208       -6.3104  -16.8726  -49.7788 H         1 UNK         0.0600 
    209 H209       -5.2195  -16.9774  -51.1501 H         1 UNK         0.0600 
    210 H210       -3.6673  -20.6746  -49.0415 H         1 UNK         0.3000 
    211 H211       -2.6311  -22.4212  -49.9311 H         1 UNK         0.0600 
    212 H212       -1.8391  -20.5108  -52.1868 H         1 UNK         0.0600 
    213 H213       -1.0873  -22.0638  -51.8582 H         1 UNK         0.0600 
    214 H214       -0.9404  -20.7649  -50.6964 H         1 UNK         0.0600 
    215 H215       -5.1746  -22.6507  -50.1079 H         1 UNK         0.3000 
    216 H216       -6.9689  -23.5588  -51.0418 H         1 UNK         0.0600 
    217 H217       -6.6112  -25.5382  -52.5010 H         1 UNK         0.0600 
    218 H218       -5.4407  -25.5257  -51.1912 H         1 UNK         0.0600 
    219 H219       -4.9524  -25.0466  -52.8151 H         1 UNK         0.0600 
    220 H220       -6.8697  -21.0924  -51.8439 H         1 UNK         0.3000 
    221 H221       -7.3282  -19.5051  -53.3183 H         1 UNK         0.0600 
    222 H222       -8.7371  -21.6943  -54.9398 H         1 UNK         0.0600 
    223 H223       -9.4431  -20.8071  -53.5896 H         1 UNK         0.0600 
    224 H224       -9.0136  -19.9630  -55.0688 H         1 UNK         0.0600 
    225 H225       -4.8277  -20.2246  -53.4473 H         1 UNK         0.3000 
    226 H226       -2.9424  -20.1002  -54.4208 H         1 UNK         0.0600 
    227 H227       -4.3338  -19.0219  -56.9259 H         1 UNK         0.0600 
    228 H228       -3.8596  -18.0600  -55.5239 H         1 UNK         0.0600 
    229 H229       -2.6353  -18.8324  -56.5153 H         1 UNK         0.0600 
    230 H230       -4.8900  -22.5414  -55.2245 H         1 UNK         0.3000 
    231 H231       -3.6533  -23.6426  -57.5668 H         1 UNK         0.0600 
    232 H232       -4.9394  -25.6603  -57.0085 H         1 UNK         0.0600 
    233 H233       -5.9582  -24.2466  -56.7763 H         1 UNK         0.0600 
    234 H234       -5.2537  -25.0700  -55.3839 H         1 UNK         0.0600 
    235 H235       -2.8487  -23.8209  -54.1024 H         1 UNK         0.3000 
    236 H236       -1.0029  -26.0741  -54.4706 H         1 UNK         0.0600 
    237 H237       -1.4897  -24.3248  -52.0116 H         1 UNK         0.0600 
    238 H238       -2.3445  -25.8199  -52.3791 H         1 UNK         0.0600 
    239 H239       -0.6154  -25.8443  -52.0662 H         1 UNK         0.0600 
    240 H240       -0.7947  -22.5132  -54.2665 H         1 UNK         0.3000 
    241 H241        2.1419  -22.5975  -54.1467 H         1 UNK         0.0600 
    242 H242        0.8973  -21.9440  -57.9735 H         1 UNK         0.3800 
    243 H243       -0.3146  -22.1367  -56.7350 H         1 UNK         0.3800 
    244 H244        2.1225  -20.2109  -53.9217 H         1 UNK         0.0800 
    245 H245        1.0473  -20.9200  -52.7577 H         1 UNK         0.0800 
    246 H246        1.6040  -18.0711  -54.7023 H         1 UNK         0.0800 
    247 H247        0.0491  -17.3965  -55.0931 H         1 UNK         0.0800 
@<TRIPOS>BOND
     1    1    2 1    
     2    1  127 1    
     3    1  128 1    
     4    1  129 1    
     5    2    3 2    
     6    2    4 am   BACKBONE|DICT|INTERRES
     7    4    5 1    
     8    4  130 1    
     9    5    6 1    
    10    5   65 1    
    11    5  131 1    
    12    6    7 1    
    13    6  132 1    
    14    6  133 1    
    15    7    8 1    
    16    8    9 1    
    17    8  134 1    
    18    8  135 1    
    19    9   10 ar   
    20    9   14 ar   
    21   10   11 ar   
    22   10  136 1    
    23   11   12 ar   
    24   11  126 1    
    25   12   13 ar   
    26   12  137 1    
    27   13   14 ar   
    28   13   15 1    
    29   14  138 1    
    30   15   16 1    
    31   15  139 1    
    32   15  140 1    
    33   16   17 1    
    34   17   18 1    
    35   17  141 1    
    36   17  142 1    
    37   18   19 1    
    38   18   67 1    
    39   18  143 1    
    40   19   20 am   BACKBONE|DICT|INTERRES
    41   19  144 1    
    42   20   21 2    
    43   20   22 1    
    44   22   23 1    
    45   22   24 1    
    46   22  145 1    
    47   23  146 1    
    48   23  147 1    
    49   23  148 1    
    50   24   25 am   BACKBONE|DICT|INTERRES
    51   24  149 1    
    52   25   26 2    
    53   25   27 1    
    54   27   28 1    
    55   27   29 1    
    56   27  150 1    
    57   28  151 1    
    58   28  152 1    
    59   28  153 1    
    60   29   30 am   BACKBONE|DICT|INTERRES
    61   29  154 1    
    62   30   31 2    
    63   30   32 1    
    64   32   33 1    
    65   32   34 1    
    66   32  155 1    
    67   33  156 1    
    68   33  157 1    
    69   33  158 1    
    70   34   35 am   BACKBONE|DICT|INTERRES
    71   34  159 1    
    72   35   36 2    
    73   35   37 1    
    74   37   38 1    
    75   37   39 1    
    76   37  160 1    
    77   38  161 1    
    78   38  162 1    
    79   38  163 1    
    80   39   40 am   BACKBONE|DICT|INTERRES
    81   39  164 1    
    82   40   41 2    
    83   40   42 1    
    84   42   43 1    
    85   42   44 1    
    86   42  165 1    
    87   43  166 1    
    88   43  167 1    
    89   43  168 1    
    90   44   45 am   BACKBONE|DICT|INTERRES
    91   44  169 1    
    92   45   46 2    
    93   45   47 1    
    94   47   48 1    
    95   47   49 1    
    96   47  170 1    
    97   48  171 1    
    98   48  172 1    
    99   48  173 1    
   100   49   50 am   BACKBONE|DICT|INTERRES
   101   49  174 1    
   102   50   51 2    
   103   50   52 1    
   104   52   53 1    
   105   52   54 1    
   106   52  175 1    
   107   53  176 1    
   108   53  177 1    
   109   53  178 1    
   110   54   55 am   BACKBONE|DICT|INTERRES
   111   54  179 1    
   112   55   56 2    
   113   55   57 1    
   114   57   58 1    
   115   57   59 1    
   116   57  180 1    
   117   58  181 1    
   118   58  182 1    
   119   58  183 1    
   120   59   60 am   BACKBONE|DICT|INTERRES
   121   59  184 1    
   122   60   61 2    
   123   60   62 1    
   124   62   63 1    
   125   62   64 1    
   126   62  185 1    
   127   63  186 1    
   128   63  187 1    
   129   63  188 1    
   130   64   65 am   BACKBONE|DICT|INTERRES
   131   64  189 1    
   132   65   66 2    
   133   67   68 2    
   134   67   69 am   BACKBONE|DICT|INTERRES
   135   69   70 1    
   136   69  190 1    
   137   70   71 1    
   138   70   72 1    
   139   70  191 1    
   140   71  192 1    
   141   71  193 1    
   142   71  194 1    
   143   72   73 2    
   144   72   74 am   BACKBONE|DICT|INTERRES
   145   74   75 1    
   146   74  195 1    
   147   75   76 1    
   148   75   77 1    
   149   75  196 1    
   150   76  197 1    
   151   76  198 1    
   152   76  199 1    
   153   77   78 2    
   154   77   79 am   BACKBONE|DICT|INTERRES
   155   79   80 1    
   156   79  200 1    
   157   80   81 1    
   158   80   82 1    
   159   80  201 1    
   160   81  202 1    
   161   81  203 1    
   162   81  204 1    
   163   82   83 2    
   164   82   84 am   BACKBONE|DICT|INTERRES
   165   84   85 1    
   166   84  205 1    
   167   85   86 1    
   168   85   87 1    
   169   85  206 1    
   170   86  207 1    
   171   86  208 1    
   172   86  209 1    
   173   87   88 2    
   174   87   89 am   BACKBONE|DICT|INTERRES
   175   89   90 1    
   176   89  210 1    
   177   90   91 1    
   178   90   92 1    
   179   90  211 1    
   180   91  212 1    
   181   91  213 1    
   182   91  214 1    
   183   92   93 2    
   184   92   94 am   BACKBONE|DICT|INTERRES
   185   94   95 1    
   186   94  215 1    
   187   95   96 1    
   188   95   97 1    
   189   95  216 1    
   190   96  217 1    
   191   96  218 1    
   192   96  219 1    
   193   97   98 2    
   194   97   99 am   BACKBONE|DICT|INTERRES
   195   99  100 1    
   196   99  220 1    
   197  100  101 1    
   198  100  102 1    
   199  100  221 1    
   200  101  222 1    
   201  101  223 1    
   202  101  224 1    
   203  102  103 2    
   204  102  104 am   BACKBONE|DICT|INTERRES
   205  104  105 1    
   206  104  225 1    
   207  105  106 1    
   208  105  107 1    
   209  105  226 1    
   210  106  227 1    
   211  106  228 1    
   212  106  229 1    
   213  107  108 2    
   214  107  109 am   BACKBONE|DICT|INTERRES
   215  109  110 1    
   216  109  230 1    
   217  110  111 1    
   218  110  112 1    
   219  110  231 1    
   220  111  232 1    
   221  111  233 1    
   222  111  234 1    
   223  112  113 2    
   224  112  114 am   BACKBONE|DICT|INTERRES
   225  114  115 1    
   226  114  235 1    
   227  115  116 1    
   228  115  117 1    
   229  115  236 1    
   230  116  237 1    
   231  116  238 1    
   232  116  239 1    
   233  117  118 2    
   234  117  119 am   BACKBONE|DICT|INTERRES
   235  119  120 1    
   236  119  240 1    
   237  120  121 1    
   238  120  124 1    
   239  120  241 1    
   240  121  122 am   BACKBONE|DICT|INTERRES
   241  121  123 2    
   242  122  242 1    
   243  122  243 1    
   244  124  125 1    
   245  124  244 1    
   246  124  245 1    
   247  125  126 1    
   248  126  246 1    
   249  126  247 1    
@<TRIPOS>SUBSTRUCTURE
     1 UNK         1 GROUP             0       ****    0 ROOT    
