@<TRIPOS>MOLECULE
3R540
247   249    1
SMALL
USER_CHARGES


@<TRIPOS>ATOM
      1 CA         -0.3032  -10.0259  -46.9482 C.3       0 UNK        -0.1800 
      2 C           0.2479  -11.3006  -46.3262 C.2       0 UNK         0.5000 
      3 O           0.1940  -11.4574  -45.1064 O.2       0 UNK        -0.5000 
      4 N           0.7550  -12.2198  -47.1605 N.am      1 UNK        -0.5000 
      5 CA          1.3550  -13.5047  -46.7672 C.3       1 UNK         0.1400 
      6 C6          1.9391  -14.2743  -47.9843 C.3       23 UNK        -0.0398 
      7 S7          0.7348  -14.5932  -49.3240 S.3       23 UNK        -0.2404 
      8 C8          0.1798  -16.2840  -48.9321 C.3       23 UNK        -0.0205 
      9 C9          0.8519  -17.3350  -49.8008 C.ar      23 UNK        -0.0193 
     10 C10         0.4240  -17.5153  -51.1190 C.ar      23 UNK        -0.1150 
     11 C11         0.9976  -18.5032  -51.9223 C.ar      23 UNK        -0.0193 
     12 C12         2.0039  -19.3171  -51.3985 C.ar      23 UNK        -0.1150 
     13 C13         2.4435  -19.1480  -50.0832 C.ar      23 UNK        -0.0193 
     14 C14         1.8663  -18.1511  -49.2869 C.ar      23 UNK        -0.1150 
     15 C15         3.5542  -20.0400  -49.5476 C.3       23 UNK        -0.0205 
     16 S16         2.9287  -21.6648  -49.0079 S.3       23 UNK        -0.2404 
     17 C17         2.3638  -21.2646  -47.3243 C.3       23 UNK        -0.0398 
     18 CA          1.0923  -22.0203  -46.8719 C.3       11 UNK         0.1400 
     19 N           0.9209  -21.9217  -45.4189 N.am      11 UNK        -0.5000 
     20 C           0.0040  -22.5772  -44.6948 C.2       10 UNK         0.5000 
     21 O          -0.7664  -23.4117  -45.1653 O.2       10 UNK        -0.5000 
     22 CA         -0.1077  -22.1992  -43.2052 C.3       10 UNK         0.1400 
     23 CB          0.9206  -22.9683  -42.3633 C.3       10 UNK        -0.1800 
     24 N           0.0405  -20.7598  -42.9795 N.am      10 UNK        -0.5000 
     25 C          -0.8135  -19.8317  -43.4366 C.2       9 UNK         0.5000 
     26 O          -1.8575  -20.1039  -44.0283 O.2       9 UNK        -0.5000 
     27 CA         -0.4034  -18.3576  -43.2634 C.3       9 UNK         0.1400 
     28 CB         -0.7329  -17.8451  -41.8545 C.3       9 UNK        -0.1800 
     29 N           1.0149  -18.1467  -43.5459 N.am      9 UNK        -0.5000 
     30 C           1.5856  -18.3139  -44.7461 C.2       8 UNK         0.5000 
     31 O           0.9548  -18.5926  -45.7652 O.2       8 UNK        -0.5000 
     32 CA          3.1230  -18.2334  -44.8053 C.3       8 UNK         0.1400 
     33 CB          3.6149  -16.7963  -45.0142 C.3       8 UNK        -0.1800 
     34 N           3.7453  -18.7875  -43.6042 N.am      8 UNK        -0.5000 
     35 C           3.8161  -20.0958  -43.3279 C.2       7 UNK         0.5000 
     36 O           3.3881  -20.9720  -44.0779 O.2       7 UNK        -0.5000 
     37 CA          4.4365  -20.4856  -41.9732 C.3       7 UNK         0.1400 
     38 CB          5.9666  -20.5602  -42.0810 C.3       7 UNK        -0.1800 
     39 N           4.0704  -19.5597  -40.8996 N.am      7 UNK        -0.5000 
     40 C           2.8316  -19.4353  -40.4033 C.2       6 UNK         0.5000 
     41 O           1.8785  -20.1207  -40.7725 O.2       6 UNK        -0.5000 
     42 CA          2.6095  -18.3231  -39.3585 C.3       6 UNK         0.1400 
     43 CB          2.9343  -18.8370  -37.9481 C.3       6 UNK        -0.1800 
     44 N           3.3748  -17.0968  -39.6179 N.am      6 UNK        -0.5000 
     45 C           3.2899  -16.3669  -40.7382 C.2       5 UNK         0.5000 
     46 O           2.5750  -16.6778  -41.6904 O.2       5 UNK        -0.5000 
     47 CA          4.1555  -15.0927  -40.8094 C.3       5 UNK         0.1400 
     48 CB          5.6496  -15.4560  -40.7669 C.3       5 UNK        -0.1800 
     49 N           3.9163  -14.3185  -42.0334 N.am      5 UNK        -0.5000 
     50 C           2.8522  -13.5687  -42.3589 C.2       4 UNK         0.5000 
     51 O           2.7762  -13.0203  -43.4590 O.2       4 UNK        -0.5000 
     52 CA          1.7336  -13.3164  -41.3299 C.3       4 UNK         0.1400 
     53 CB          2.0929  -12.1199  -40.4261 C.3       4 UNK        -0.1800 
     54 N           0.4849  -13.0456  -42.0379 N.am      4 UNK        -0.5000 
     55 C          -0.7363  -13.0874  -41.4916 C.2       3 UNK         0.5000 
     56 O          -0.9486  -13.3839  -40.3150 O.2       3 UNK        -0.5000 
     57 CA         -1.9242  -12.7420  -42.4045 C.3       3 UNK         0.1400 
     58 CB         -2.0909  -11.2192  -42.5293 C.3       3 UNK        -0.1800 
     59 N          -1.7803  -13.3312  -43.7347 N.am      3 UNK        -0.5000 
     60 C          -2.1629  -14.5788  -44.0456 C.2       2 UNK         0.5000 
     61 O          -2.6947  -15.3471  -43.2440 O.2       2 UNK        -0.5000 
     62 CA         -1.9377  -15.0561  -45.4946 C.3       2 UNK         0.1400 
     63 CB         -3.2416  -14.9798  -46.3028 C.3       2 UNK        -0.1800 
     64 N          -0.9002  -14.3101  -46.2022 N.am      2 UNK        -0.5000 
     65 C           0.4096  -14.3993  -45.9351 C.2       1 UNK         0.5000 
     66 O           0.8727  -15.1336  -45.0667 O.2       1 UNK        -0.5000 
     67 C          -0.1753  -21.5597  -47.6280 C.2       11 UNK         0.5000 
     68 O          -0.6516  -22.2758  -48.5102 O.2       11 UNK        -0.5000 
     69 N          -0.7407  -20.4131  -47.2199 N.am      12 UNK        -0.5000 
     70 CA         -2.0033  -19.8803  -47.7351 C.3       12 UNK         0.1400 
     71 CB         -2.2689  -18.4933  -47.1324 C.3       12 UNK        -0.1800 
     72 C          -3.1965  -20.8131  -47.4632 C.2       12 UNK         0.5000 
     73 O          -4.0215  -21.0134  -48.3545 O.2       12 UNK        -0.5000 
     74 N          -3.2540  -21.3840  -46.2516 N.am      13 UNK        -0.5000 
     75 CA         -4.2650  -22.3566  -45.8375 C.3       13 UNK         0.1400 
     76 CB         -4.1634  -22.6027  -44.3251 C.3       13 UNK        -0.1800 
     77 C          -4.1728  -23.6794  -46.6193 C.2       13 UNK         0.5000 
     78 O          -5.2060  -24.2065  -47.0302 O.2       13 UNK        -0.5000 
     79 N          -2.9471  -24.1678  -46.8576 N.am      14 UNK        -0.5000 
     80 CA         -2.6620  -25.3551  -47.6689 C.3       14 UNK         0.1400 
     81 CB         -1.1766  -25.7245  -47.5389 C.3       14 UNK        -0.1800 
     82 C          -3.0555  -25.1794  -49.1485 C.2       14 UNK         0.5000 
     83 O          -3.5483  -26.1254  -49.7632 O.2       14 UNK        -0.5000 
     84 N          -2.8772  -23.9610  -49.6764 N.am      15 UNK        -0.5000 
     85 CA         -3.3345  -23.5454  -51.0049 C.3       15 UNK         0.1400 
     86 CB         -2.5003  -22.3361  -51.4538 C.3       15 UNK        -0.1800 
     87 C          -4.8416  -23.2111  -51.0598 C.2       15 UNK         0.5000 
     88 O          -5.3463  -22.9039  -52.1412 O.2       15 UNK        -0.5000 
     89 N          -5.5226  -23.2373  -49.9031 N.am      16 UNK        -0.5000 
     90 CA         -6.9310  -22.9004  -49.6767 C.3       16 UNK         0.1400 
     91 CB         -7.8470  -23.9890  -50.2693 C.3       16 UNK        -0.1800 
     92 C          -7.2819  -21.4693  -50.1342 C.2       16 UNK         0.5000 
     93 O          -8.3073  -21.2559  -50.7823 O.2       16 UNK        -0.5000 
     94 N          -6.3957  -20.5211  -49.7930 N.am      17 UNK        -0.5000 
     95 CA         -6.4129  -19.1067  -50.1779 C.3       17 UNK         0.1400 
     96 CB         -7.6284  -18.3762  -49.5693 C.3       17 UNK        -0.1800 
     97 C          -6.2767  -18.9151  -51.7035 C.2       17 UNK         0.5000 
     98 O          -6.9724  -18.0840  -52.2896 O.2       17 UNK        -0.5000 
     99 N          -5.3666  -19.6983  -52.3023 N.am      18 UNK        -0.5000 
    100 CA        -5.0394  -19.7664  -53.7291 C.3       18 UNK         0.1400 
    101 CB        -4.4396  -18.4334  -54.2255 C.3       18 UNK        -0.1800 
    102 C         -6.2375  -20.2448  -54.5741 C.2       18 UNK         0.5000 
    103 O         -6.6837  -19.5400  -55.4832 O.2       18 UNK        -0.5000 
    104 N         -6.7564  -21.4346  -54.2428 N.am      19 UNK        -0.5000 
    105 CA        -7.9099  -22.0692  -54.8849 C.3       19 UNK         0.1400 
    106 CB        -8.4619  -23.1594  -53.9525 C.3       19 UNK        -0.1800 
    107 C         -7.5725  -22.6175  -56.2875 C.2       19 UNK         0.5000 
    108 O         -7.4550  -23.8307  -56.4687 O.2       19 UNK        -0.5000 
    109 N         -7.3981  -21.6979  -57.2471 N.am      20 UNK        -0.5000 
    110 CA        -7.0749  -21.9080  -58.6671 C.3       20 UNK         0.1400 
    111 CB        -8.1644  -22.7451  -59.3696 C.3       20 UNK        -0.1800 
    112 C         -5.6547  -22.4585  -58.9295 C.2       20 UNK         0.5000 
    113 O         -5.3230  -22.7681  -60.0751 O.2       20 UNK        -0.5000 
    114 N         -4.8301  -22.5356  -57.8824 N.am      21 UNK        -0.5000 
    115 CA        -3.4314  -22.9376  -57.8890 C.3       21 UNK         0.1400 
    116 CB        -3.3168  -24.4711  -57.9546 C.3       21 UNK        -0.1800 
    117 C         -2.7987  -22.3886  -56.6046 C.2       21 UNK         0.5000 
    118 O         -3.5073  -22.2048  -55.6114 O.2       21 UNK        -0.5000 
    119 N         -1.4884  -22.1348  -56.6417 N.am      22 UNK        -0.5000 
    120 CA        -0.7087  -21.6172  -55.5066 C.3       22 UNK         0.1400 
    121 C          0.8215  -21.8537  -55.6559 C.2       22 UNK         0.5000 
    122 N          1.3599  -22.0342  -56.8621 N.am      22 UNK        -0.7600 
    123 O          1.5382  -21.9032  -54.6578 O.2       22 UNK        -0.5000 
    124 C124       -1.0395  -20.1295  -55.1884 C.3       23 UNK        -0.0398 
    125 S125       -0.9469  -19.7554  -53.4075 S.3       23 UNK        -0.2404 
    126 C126        0.5288  -18.6990  -53.3529 C.3       23 UNK        -0.0205 
    127 H127        0.2267   -9.1581  -46.5547 H         1 UNK         0.0600 
    128 H128       -1.3612   -9.9187  -46.7074 H         1 UNK         0.0600 
    129 H129       -0.1989  -10.0260  -48.0336 H         1 UNK         0.0600 
    130 H130        0.7459  -12.0389  -48.1546 H         1 UNK         0.3000 
    131 H131        2.1930  -13.2610  -46.1109 H         1 UNK         0.0600 
    132 H132        2.3955  -15.2150  -47.6767 H         1 UNK         0.0800 
    133 H133        2.7545  -13.6908  -48.4138 H         1 UNK         0.0800 
    134 H134       -0.8995  -16.3343  -49.0834 H         1 UNK         0.0800 
    135 H135        0.3479  -16.5059  -47.8780 H         1 UNK         0.0800 
    136 H136       -0.3633  -16.8909  -51.5179 H         1 UNK         0.1150 
    137 H137        2.4429  -20.0894  -52.0154 H         1 UNK         0.1150 
    138 H138        2.1969  -18.0154  -48.2669 H         1 UNK         0.1150 
    139 H139        4.2968  -20.1974  -50.3313 H         1 UNK         0.0800 
    140 H140        4.0837  -19.5507  -48.7284 H         1 UNK         0.0800 
    141 H141        2.2174  -20.1907  -47.2396 H         1 UNK         0.0800 
    142 H142        3.1927  -21.5068  -46.6585 H         1 UNK         0.0800 
    143 H143        1.2356  -23.0795  -47.0957 H         1 UNK         0.0600 
    144 H144        1.5606  -21.3041  -44.9318 H         1 UNK         0.3000 
    145 H145       -1.1037  -22.4877  -42.8639 H         1 UNK         0.0600 
    146 H146        0.8000  -22.7528  -41.3015 H         1 UNK         0.0600 
    147 H147        0.8027  -24.0448  -42.4926 H         1 UNK         0.0600 
    148 H148        1.9433  -22.7148  -42.6410 H         1 UNK         0.0600 
    149 H149        0.8454  -20.4615  -42.4374 H         1 UNK         0.3000 
    150 H150       -0.9766  -17.7678  -43.9795 H         1 UNK         0.0600 
    151 H151       -1.8015  -17.9272  -41.6528 H         1 UNK         0.0600 
    152 H152       -0.4620  -16.7942  -41.7458 H         1 UNK         0.0600 
    153 H153       -0.2080  -18.4092  -41.0844 H         1 UNK         0.0600 
    154 H154        1.5964  -17.8220  -42.7777 H         1 UNK         0.3000 
    155 H155        3.4546  -18.8219  -45.6628 H         1 UNK         0.0600 
    156 H156        3.2811  -16.1340  -44.2161 H         1 UNK         0.0600 
    157 H157        3.2340  -16.3956  -45.9512 H         1 UNK         0.0600 
    158 H158        4.7029  -16.7502  -45.0594 H         1 UNK         0.0600 
    159 H159        4.0477  -18.1246  -42.9060 H         1 UNK         0.3000 
    160 H160        4.0643  -21.4782  -41.7104 H         1 UNK         0.0600 
    161 H161        6.4108  -20.9086  -41.1484 H         1 UNK         0.0600 
    162 H162        6.4031  -19.5894  -42.3193 H         1 UNK         0.0600 
    163 H163        6.2687  -21.2573  -42.8639 H         1 UNK         0.0600 
    164 H164        4.7981  -18.9598  -40.5403 H         1 UNK         0.3000 
    165 H165        1.5507  -18.0584  -39.3859 H         1 UNK         0.0600 
    166 H166        2.6823  -18.0953  -37.1899 H         1 UNK         0.0600 
    167 H167        2.3641  -19.7386  -37.7200 H         1 UNK         0.0600 
    168 H168        3.9919  -19.0815  -37.8415 H         1 UNK         0.0600 
    169 H169        3.9840  -16.7863  -38.8747 H         1 UNK         0.3000 
    170 H170        3.9246  -14.4745  -39.9409 H         1 UNK         0.0600 
    171 H171        5.9120  -15.9705  -39.8419 H         1 UNK         0.0600 
    172 H172        5.9300  -16.1072  -41.5962 H         1 UNK         0.0600 
    173 H173        6.2726  -14.5627  -40.8199 H         1 UNK         0.0600 
    174 H174        4.6186  -14.4396  -42.7464 H         1 UNK         0.3000 
    175 H175        1.5830  -14.2044  -40.7173 H         1 UNK         0.0600 
    176 H176        2.1686  -11.1962  -41.0013 H         1 UNK         0.0600 
    177 H177        1.3457  -11.9673  -39.6474 H         1 UNK         0.0600 
    178 H178        3.0498  -12.2706  -39.9262 H         1 UNK         0.0600 
    179 H179        0.5977  -12.8185  -43.0201 H         1 UNK         0.3000 
    180 H180       -2.8304  -13.1326  -41.9360 H         1 UNK         0.0600 
    181 H181       -1.2069  -10.7462  -42.9575 H         1 UNK         0.0600 
    182 H182       -2.2606  -10.7665  -41.5515 H         1 UNK         0.0600 
    183 H183       -2.9449  -10.9657  -43.1576 H         1 UNK         0.0600 
    184 H184       -1.2949  -12.7729  -44.4276 H         1 UNK         0.3000 
    185 H185       -1.6281  -16.1011  -45.4506 H         1 UNK         0.0600 
    186 H186       -4.0282  -15.5702  -45.8308 H         1 UNK         0.0600 
    187 H187       -3.6041  -13.9544  -46.3854 H         1 UNK         0.0600 
    188 H188       -3.1046  -15.3710  -47.3112 H         1 UNK         0.0600 
    189 H189       -1.2014  -13.6778  -46.9293 H         1 UNK         0.3000 
    190 H190       -0.2618  -19.8541  -46.5187 H         1 UNK         0.3000 
    191 H191       -1.8958  -19.7708  -48.8163 H         1 UNK         0.0600 
    192 H192       -2.4978  -18.5472  -46.0683 H         1 UNK         0.0600 
    193 H193       -3.1143  -18.0114  -47.6246 H         1 UNK         0.0600 
    194 H194       -1.4063  -17.8421  -47.2459 H         1 UNK         0.0600 
    195 H195       -2.5699  -21.1101  -45.5523 H         1 UNK         0.3000 
    196 H196       -5.2450  -21.9202  -46.0415 H         1 UNK         0.0600 
    197 H197       -4.9440  -23.2860  -43.9885 H         1 UNK         0.0600 
    198 H198       -4.2796  -21.6742  -43.7658 H         1 UNK         0.0600 
    199 H199       -3.2044  -23.0407  -44.0503 H         1 UNK         0.0600 
    200 H200       -2.1468  -23.7079  -46.4305 H         1 UNK         0.3000 
    201 H201       -3.2524  -26.1809  -47.2669 H         1 UNK         0.0600 
    202 H202       -0.9112  -25.9289  -46.5015 H         1 UNK         0.0600 
    203 H203       -0.5290  -24.9244  -47.8977 H         1 UNK         0.0600 
    204 H204       -0.9443  -26.6199  -48.1167 H         1 UNK         0.0600 
    205 H205       -2.4027  -23.2571  -49.1201 H         1 UNK         0.3000 
    206 H206       -3.1567  -24.3600  -51.7098 H         1 UNK         0.0600 
    207 H207       -2.7618  -22.0380  -52.4698 H         1 UNK         0.0600 
    208 H208       -2.6557  -21.4736  -50.8047 H         1 UNK         0.0600 
    209 H209       -1.4346  -22.5663  -51.4506 H         1 UNK         0.0600 
    210 H210       -5.0102  -23.4876  -49.0671 H         1 UNK         0.3000 
    211 H211       -7.0784  -22.9069  -48.5960 H         1 UNK         0.0600 
    212 H212       -7.7125  -24.0893  -51.3446 H         1 UNK         0.0600 
    213 H213       -8.8986  -23.7666  -50.0852 H         1 UNK         0.0600 
    214 H214       -7.6381  -24.9594  -49.8189 H         1 UNK         0.0600 
    215 H215       -5.5733  -20.8098  -49.2632 H         1 UNK         0.3000 
    216 H216       -5.5169  -18.6658  -49.7382 H         1 UNK         0.0600 
    217 H217       -7.5611  -17.3011  -49.7392 H         1 UNK         0.0600 
    218 H218       -7.6816  -18.5309  -48.4917 H         1 UNK         0.0600 
    219 H219       -8.5686  -18.7158  -50.0045 H         1 UNK         0.0600 
    220 H220       -4.9019  -20.3846  -51.7259 H         1 UNK         0.3000 
    221 H221       -4.2640  -20.5261  -53.8219 H         1 UNK         0.0600 
    222 H222       -5.1638  -17.6193  -54.1919 H         1 UNK         0.0600 
    223 H223       -3.5789  -18.1401  -53.6247 H         1 UNK         0.0600 
    224 H224       -4.1010  -18.5223  -55.2581 H         1 UNK         0.0600 
    225 H225       -6.3099  -21.9645  -53.4971 H         1 UNK         0.3000 
    226 H226       -8.6932  -21.3182  -55.0073 H         1 UNK         0.0600 
    227 H227       -9.3169  -23.6658  -54.4021 H         1 UNK         0.0600 
    228 H228       -7.7082  -23.9161  -53.7307 H         1 UNK         0.0600 
    229 H229       -8.8010  -22.7312  -53.0099 H         1 UNK         0.0600 
    230 H230       -7.4200  -20.7274  -56.9469 H         1 UNK         0.3000 
    231 H231       -7.0902  -20.9147  -59.1181 H         1 UNK         0.0600 
    232 H232       -9.1575  -22.3336  -59.1881 H         1 UNK         0.0600 
    233 H233       -8.1623  -23.7819  -59.0323 H         1 UNK         0.0600 
    234 H234       -8.0128  -22.7563  -60.4496 H         1 UNK         0.0600 
    235 H235       -5.1645  -22.2492  -56.9706 H         1 UNK         0.3000 
    236 H236       -2.9320  -22.4892  -58.7505 H         1 UNK         0.0600 
    237 H237       -2.2733  -24.7876  -57.9324 H         1 UNK         0.0600 
    238 H238       -3.8239  -24.9458  -57.1133 H         1 UNK         0.0600 
    239 H239       -3.7546  -24.8634  -58.8726 H         1 UNK         0.0600 
    240 H240       -0.9642  -22.3607  -57.4732 H         1 UNK         0.3000 
    241 H241       -1.0054  -22.2249  -54.6485 H         1 UNK         0.0600 
    242 H242        2.3527  -22.2029  -56.9203 H         1 UNK         0.3800 
    243 H243        0.8336  -21.9431  -57.7181 H         1 UNK         0.3800 
    244 H244       -0.4086  -19.4483  -55.7620 H         1 UNK         0.0800 
    245 H245       -2.0589  -19.8896  -55.4891 H         1 UNK         0.0800 
    246 H246        1.3258  -19.1491  -53.9472 H         1 UNK         0.0800 
    247 H247        0.3045  -17.7346  -53.8112 H         1 UNK         0.0800 
@<TRIPOS>BOND
     1    1    2 1    
     2    1  127 1    
     3    1  128 1    
     4    1  129 1    
     5    2    3 2    
     6    2    4 am   BACKBONE|DICT|INTERRES
     7    4    5 1    
     8    4  130 1    
     9    5    6 1    
    10    5   65 1    
    11    5  131 1    
    12    6    7 1    
    13    6  132 1    
    14    6  133 1    
    15    7    8 1    
    16    8    9 1    
    17    8  134 1    
    18    8  135 1    
    19    9   10 ar   
    20    9   14 ar   
    21   10   11 ar   
    22   10  136 1    
    23   11   12 ar   
    24   11  126 1    
    25   12   13 ar   
    26   12  137 1    
    27   13   14 ar   
    28   13   15 1    
    29   14  138 1    
    30   15   16 1    
    31   15  139 1    
    32   15  140 1    
    33   16   17 1    
    34   17   18 1    
    35   17  141 1    
    36   17  142 1    
    37   18   19 1    
    38   18   67 1    
    39   18  143 1    
    40   19   20 am   BACKBONE|DICT|INTERRES
    41   19  144 1    
    42   20   21 2    
    43   20   22 1    
    44   22   23 1    
    45   22   24 1    
    46   22  145 1    
    47   23  146 1    
    48   23  147 1    
    49   23  148 1    
    50   24   25 am   BACKBONE|DICT|INTERRES
    51   24  149 1    
    52   25   26 2    
    53   25   27 1    
    54   27   28 1    
    55   27   29 1    
    56   27  150 1    
    57   28  151 1    
    58   28  152 1    
    59   28  153 1    
    60   29   30 am   BACKBONE|DICT|INTERRES
    61   29  154 1    
    62   30   31 2    
    63   30   32 1    
    64   32   33 1    
    65   32   34 1    
    66   32  155 1    
    67   33  156 1    
    68   33  157 1    
    69   33  158 1    
    70   34   35 am   BACKBONE|DICT|INTERRES
    71   34  159 1    
    72   35   36 2    
    73   35   37 1    
    74   37   38 1    
    75   37   39 1    
    76   37  160 1    
    77   38  161 1    
    78   38  162 1    
    79   38  163 1    
    80   39   40 am   BACKBONE|DICT|INTERRES
    81   39  164 1    
    82   40   41 2    
    83   40   42 1    
    84   42   43 1    
    85   42   44 1    
    86   42  165 1    
    87   43  166 1    
    88   43  167 1    
    89   43  168 1    
    90   44   45 am   BACKBONE|DICT|INTERRES
    91   44  169 1    
    92   45   46 2    
    93   45   47 1    
    94   47   48 1    
    95   47   49 1    
    96   47  170 1    
    97   48  171 1    
    98   48  172 1    
    99   48  173 1    
   100   49   50 am   BACKBONE|DICT|INTERRES
   101   49  174 1    
   102   50   51 2    
   103   50   52 1    
   104   52   53 1    
   105   52   54 1    
   106   52  175 1    
   107   53  176 1    
   108   53  177 1    
   109   53  178 1    
   110   54   55 am   BACKBONE|DICT|INTERRES
   111   54  179 1    
   112   55   56 2    
   113   55   57 1    
   114   57   58 1    
   115   57   59 1    
   116   57  180 1    
   117   58  181 1    
   118   58  182 1    
   119   58  183 1    
   120   59   60 am   BACKBONE|DICT|INTERRES
   121   59  184 1    
   122   60   61 2    
   123   60   62 1    
   124   62   63 1    
   125   62   64 1    
   126   62  185 1    
   127   63  186 1    
   128   63  187 1    
   129   63  188 1    
   130   64   65 am   BACKBONE|DICT|INTERRES
   131   64  189 1    
   132   65   66 2    
   133   67   68 2    
   134   67   69 am   BACKBONE|DICT|INTERRES
   135   69   70 1    
   136   69  190 1    
   137   70   71 1    
   138   70   72 1    
   139   70  191 1    
   140   71  192 1    
   141   71  193 1    
   142   71  194 1    
   143   72   73 2    
   144   72   74 am   BACKBONE|DICT|INTERRES
   145   74   75 1    
   146   74  195 1    
   147   75   76 1    
   148   75   77 1    
   149   75  196 1    
   150   76  197 1    
   151   76  198 1    
   152   76  199 1    
   153   77   78 2    
   154   77   79 am   BACKBONE|DICT|INTERRES
   155   79   80 1    
   156   79  200 1    
   157   80   81 1    
   158   80   82 1    
   159   80  201 1    
   160   81  202 1    
   161   81  203 1    
   162   81  204 1    
   163   82   83 2    
   164   82   84 am   BACKBONE|DICT|INTERRES
   165   84   85 1    
   166   84  205 1    
   167   85   86 1    
   168   85   87 1    
   169   85  206 1    
   170   86  207 1    
   171   86  208 1    
   172   86  209 1    
   173   87   88 2    
   174   87   89 am   BACKBONE|DICT|INTERRES
   175   89   90 1    
   176   89  210 1    
   177   90   91 1    
   178   90   92 1    
   179   90  211 1    
   180   91  212 1    
   181   91  213 1    
   182   91  214 1    
   183   92   93 2    
   184   92   94 am   BACKBONE|DICT|INTERRES
   185   94   95 1    
   186   94  215 1    
   187   95   96 1    
   188   95   97 1    
   189   95  216 1    
   190   96  217 1    
   191   96  218 1    
   192   96  219 1    
   193   97   98 2    
   194   97   99 am   BACKBONE|DICT|INTERRES
   195   99  100 1    
   196   99  220 1    
   197  100  101 1    
   198  100  102 1    
   199  100  221 1    
   200  101  222 1    
   201  101  223 1    
   202  101  224 1    
   203  102  103 2    
   204  102  104 am   BACKBONE|DICT|INTERRES
   205  104  105 1    
   206  104  225 1    
   207  105  106 1    
   208  105  107 1    
   209  105  226 1    
   210  106  227 1    
   211  106  228 1    
   212  106  229 1    
   213  107  108 2    
   214  107  109 am   BACKBONE|DICT|INTERRES
   215  109  110 1    
   216  109  230 1    
   217  110  111 1    
   218  110  112 1    
   219  110  231 1    
   220  111  232 1    
   221  111  233 1    
   222  111  234 1    
   223  112  113 2    
   224  112  114 am   BACKBONE|DICT|INTERRES
   225  114  115 1    
   226  114  235 1    
   227  115  116 1    
   228  115  117 1    
   229  115  236 1    
   230  116  237 1    
   231  116  238 1    
   232  116  239 1    
   233  117  118 2    
   234  117  119 am   BACKBONE|DICT|INTERRES
   235  119  120 1    
   236  119  240 1    
   237  120  121 1    
   238  120  124 1    
   239  120  241 1    
   240  121  122 am   BACKBONE|DICT|INTERRES
   241  121  123 2    
   242  122  242 1    
   243  122  243 1    
   244  124  125 1    
   245  124  244 1    
   246  124  245 1    
   247  125  126 1    
   248  126  246 1    
   249  126  247 1    
@<TRIPOS>SUBSTRUCTURE
     1 UNK         1 GROUP             0       ****    0 ROOT    
