@<TRIPOS>MOLECULE
3R540
247   249    1
SMALL
USER_CHARGES


@<TRIPOS>ATOM
      1 CA          6.5320  -16.1122  -49.0407 C.3       0 UNK        -0.1800 
      2 C           5.0837  -16.3107  -48.6178 C.2       0 UNK         0.5000 
      3 O           4.7651  -16.1540  -47.4412 O.2       0 UNK        -0.5000 
      4 N           4.2141  -16.6749  -49.5694 N.am      1 UNK        -0.5000 
      5 CA          2.7614  -16.8959  -49.4446 C.3       1 UNK         0.1400 
      6 C6          1.9685  -15.6865  -48.8811 C.3       23 UNK        -0.0398 
      7 S7          2.2661  -14.1391  -49.8031 S.3       23 UNK        -0.2404 
      8 C8          0.8536  -13.1207  -49.2716 C.3       23 UNK        -0.0205 
      9 C9         -0.4159  -13.4810  -50.0277 C.ar      23 UNK        -0.0193 
     10 C10        -0.6277  -12.9860  -51.3160 C.ar      23 UNK        -0.1150 
     11 C11        -1.7892  -13.3116  -52.0213 C.ar      23 UNK        -0.0193 
     12 C12        -2.7362  -14.1597  -51.4357 C.ar      23 UNK        -0.1150 
     13 C13        -2.5386  -14.6563  -50.1425 C.ar      23 UNK        -0.0193 
     14 C14        -1.3859  -14.2947  -49.4393 C.ar      23 UNK        -0.1150 
     15 C15        -3.5880  -15.5433  -49.4849 C.3       23 UNK        -0.0205 
     16 S16        -3.3461  -17.3180  -49.8348 S.3       23 UNK        -0.2404 
     17 C17        -1.9141  -17.7411  -48.7763 C.3       23 UNK        -0.0398 
     18 CA         -2.1899  -18.5031  -47.4509 C.3       11 UNK         0.1400 
     19 N          -2.7318  -17.6852  -46.3538 N.am      11 UNK        -0.5000 
     20 C          -3.9587  -17.1861  -46.1470 C.2       10 UNK         0.5000 
     21 O          -4.9034  -17.3314  -46.9202 O.2       10 UNK        -0.5000 
     22 CA         -4.1933  -16.4538  -44.8156 C.3       10 UNK         0.1400 
     23 CB         -4.6624  -17.4545  -43.7473 C.3       10 UNK        -0.1800 
     24 N          -2.9853  -15.7840  -44.3331 N.am      10 UNK        -0.5000 
     25 C          -2.7599  -14.4653  -44.4086 C.2       9 UNK         0.5000 
     26 O          -3.5568  -13.6609  -44.8930 O.2       9 UNK        -0.5000 
     27 CA         -1.4220  -13.9476  -43.8405 C.3       9 UNK         0.1400 
     28 CB         -1.5928  -13.5120  -42.3772 C.3       9 UNK        -0.1800 
     29 N          -0.3389  -14.9272  -43.9141 N.am      9 UNK        -0.5000 
     30 C           0.2126  -15.3705  -45.0508 C.2       8 UNK         0.5000 
     31 O          -0.0924  -14.9586  -46.1684 O.2       8 UNK        -0.5000 
     32 CA          1.2605  -16.4882  -44.9224 C.3       8 UNK         0.1400 
     33 CB          2.6699  -15.8851  -44.8548 C.3       8 UNK        -0.1800 
     34 N           1.0700  -17.3786  -43.7728 N.am      8 UNK        -0.5000 
     35 C          -0.0251  -18.1027  -43.5011 C.2       7 UNK         0.5000 
     36 O          -1.0634  -18.0423  -44.1572 O.2       7 UNK        -0.5000 
     37 CA          0.0417  -19.0356  -42.2818 C.3       7 UNK         0.1400 
     38 CB          0.6427  -20.3958  -42.6677 C.3       7 UNK        -0.1800 
     39 N           0.8206  -18.4499  -41.1932 N.am      7 UNK        -0.5000 
     40 C           0.3560  -17.5206  -40.3468 C.2       6 UNK         0.5000 
     41 O          -0.7997  -17.0961  -40.3614 O.2       6 UNK        -0.5000 
     42 CA          1.3611  -16.9576  -39.3244 C.3       6 UNK         0.1400 
     43 CB          1.4016  -17.8372  -38.0656 C.3       6 UNK        -0.1800 
     44 N           2.7131  -16.8394  -39.8733 N.am      6 UNK        -0.5000 
     45 C           3.0703  -15.9608  -40.8203 C.2       5 UNK         0.5000 
     46 O           2.3067  -15.1197  -41.2951 O.2       5 UNK        -0.5000 
     47 CA          4.5165  -16.0578  -41.3446 C.3       5 UNK         0.1400 
     48 CB          5.4438  -15.1447  -40.5288 C.3       5 UNK        -0.1800 
     49 N           5.0632  -17.4194  -41.3484 N.am      5 UNK        -0.5000 
     50 C           4.5750  -18.4435  -42.0602 C.2       4 UNK         0.5000 
     51 O           3.5489  -18.3819  -42.7413 O.2       4 UNK        -0.5000 
     52 CA          5.3313  -19.7717  -41.9567 C.3       4 UNK         0.1400 
     53 CB          4.7823  -20.6167  -40.7954 C.3       4 UNK        -0.1800 
     54 N           5.1731  -20.5068  -43.2078 N.am      4 UNK        -0.5000 
     55 C           6.1191  -21.2530  -43.7903 C.2       3 UNK         0.5000 
     56 O           7.2406  -21.4220  -43.3090 O.2       3 UNK        -0.5000 
     57 CA          5.7683  -21.9471  -45.1239 C.3       3 UNK         0.1400 
     58 CB          5.5897  -23.4585  -44.9075 C.3       3 UNK        -0.1800 
     59 N           4.5650  -21.4281  -45.7797 N.am      3 UNK        -0.5000 
     60 C           4.4867  -20.2595  -46.4280 C.2       2 UNK         0.5000 
     61 O           5.4266  -19.4668  -46.5277 O.2       2 UNK        -0.5000 
     62 CA          3.1260  -19.9326  -47.0649 C.3       2 UNK         0.1400 
     63 CB          2.0041  -19.9143  -46.0104 C.3       2 UNK        -0.1800 
     64 N           3.2137  -18.6491  -47.7537 N.am      2 UNK        -0.5000 
     65 C           2.3865  -18.2018  -48.7043 C.2       1 UNK         0.5000 
     66 O           1.3634  -18.7986  -49.0382 O.2       1 UNK        -0.5000 
     67 C          -2.8593  -19.8795  -47.6613 C.2       11 UNK         0.5000 
     68 O          -2.1844  -20.7944  -48.1321 O.2       11 UNK        -0.5000 
     69 N          -4.1334  -20.0295  -47.2727 N.am      12 UNK        -0.5000 
     70 CA         -5.0009  -21.2017  -47.4273 C.3       12 UNK         0.1400 
     71 CB         -6.3091  -20.9548  -46.6628 C.3       12 UNK        -0.1800 
     72 C          -4.3882  -22.5519  -47.0093 C.2       12 UNK         0.5000 
     73 O          -4.6842  -23.5642  -47.6438 O.2       12 UNK        -0.5000 
     74 N          -3.5342  -22.5419  -45.9776 N.am      13 UNK        -0.5000 
     75 CA         -2.8132  -23.7153  -45.4805 C.3       13 UNK         0.1400 
     76 CB         -2.1160  -23.3508  -44.1610 C.3       13 UNK        -0.1800 
     77 C          -1.7932  -24.2833  -46.4881 C.2       13 UNK         0.5000 
     78 O          -1.6215  -25.5010  -46.5518 O.2       13 UNK        -0.5000 
     79 N          -1.1474  -23.3983  -47.2585 N.am      14 UNK        -0.5000 
     80 CA         -0.1963  -23.7514  -48.3141 C.3       14 UNK         0.1400 
     81 CB          0.9319  -22.7098  -48.3357 C.3       14 UNK        -0.1800 
     82 C          -0.8864  -23.8288  -49.6866 C.2       14 UNK         0.5000 
     83 O          -0.5104  -24.6562  -50.5163 O.2       14 UNK        -0.5000 
     84 N          -1.9012  -22.9800  -49.8884 N.am      15 UNK        -0.5000 
     85 CA         -2.6949  -22.8431  -51.1083 C.3       15 UNK         0.1400 
     86 CB         -3.3034  -21.4331  -51.1208 C.3       15 UNK        -0.1800 
     87 C          -3.7824  -23.9229  -51.2933 C.2       15 UNK         0.5000 
     88 O          -4.6088  -23.7798  -52.1952 O.2       15 UNK        -0.5000 
     89 N          -3.7821  -24.9638  -50.4477 N.am      16 UNK        -0.5000 
     90 CA         -4.6610  -26.1382  -50.4806 C.3       16 UNK         0.1400 
     91 CB         -4.3825  -26.9858  -51.7401 C.3       16 UNK        -0.1800 
     92 C          -6.1470  -25.7618  -50.3254 C.2       16 UNK         0.5000 
     93 O          -6.9541  -26.0201  -51.2189 O.2       16 UNK        -0.5000 
     94 N          -6.4613  -25.1112  -49.1968 N.am      17 UNK        -0.5000 
     95 CA         -7.7681  -24.5521  -48.8310 C.3       17 UNK         0.1400 
     96 CB         -8.8470  -25.6501  -48.7182 C.3       17 UNK        -0.1800 
     97 C          -8.1754  -23.3807  -49.7480 C.2       17 UNK         0.5000 
     98 O          -9.3555  -23.2127  -50.0584 O.2       17 UNK        -0.5000 
     99 N          -7.1672  -22.5951  -50.1566 N.am      18 UNK        -0.5000 
    100 CA        -7.2451  -21.4180  -51.0288 C.3       18 UNK         0.1400 
    101 CB        -8.1055  -20.3077  -50.3892 C.3       18 UNK        -0.1800 
    102 C         -7.6536  -21.7424  -52.4823 C.2       18 UNK         0.5000 
    103 O         -8.1369  -20.8595  -53.1922 O.2       18 UNK        -0.5000 
    104 N         -7.4176  -22.9865  -52.9216 N.am      19 UNK        -0.5000 
    105 CA        -7.6031  -23.4272  -54.3051 C.3       19 UNK         0.1400 
    106 CB        -7.5684  -24.9615  -54.3558 C.3       19 UNK        -0.1800 
    107 C         -6.5420  -22.8320  -55.2500 C.2       19 UNK         0.5000 
    108 O         -6.8592  -22.5019  -56.3930 O.2       19 UNK        -0.5000 
    109 N         -5.3133  -22.6845  -54.7410 N.am      20 UNK        -0.5000 
    110 CA        -4.1640  -22.0921  -55.4214 C.3       20 UNK         0.1400 
    111 CB        -3.0461  -23.1475  -55.5054 C.3       20 UNK        -0.1800 
    112 C         -3.7193  -20.8159  -54.6823 C.2       20 UNK         0.5000 
    113 O         -2.5234  -20.6150  -54.4552 O.2       20 UNK        -0.5000 
    114 N         -4.6959  -19.9899  -54.2731 N.am      21 UNK        -0.5000 
    115 CA        -4.4904  -18.7361  -53.5420 C.3       21 UNK         0.1400 
    116 CB        -5.8478  -18.0872  -53.2389 C.3       21 UNK        -0.1800 
    117 C         -3.5816  -17.7598  -54.3075 C.2       21 UNK         0.5000 
    118 O         -3.7686  -17.5705  -55.5118 O.2       21 UNK        -0.5000 
    119 N         -2.6109  -17.1803  -53.5922 N.am      22 UNK        -0.5000 
    120 CA        -1.5332  -16.3363  -54.1349 C.3       22 UNK         0.1400 
    121 C         -0.4346  -17.1147  -54.9285 C.2       22 UNK         0.5000 
    122 N         -0.4614  -18.4416  -54.9986 N.am      22 UNK        -0.7600 
    123 O          0.4866  -16.5103  -55.4698 O.2       22 UNK        -0.5000 
    124 C124       -2.0816  -15.0996  -54.9070 C.3       23 UNK        -0.0398 
    125 S125       -1.0753  -13.5951  -54.6866 S.3       23 UNK        -0.2404 
    126 C126       -2.0197  -12.7175  -53.4024 C.3       23 UNK        -0.0205 
    127 H127        6.8503  -15.0936  -48.8186 H         1 UNK         0.0600 
    128 H128        6.6719  -16.2875  -50.1076 H         1 UNK         0.0600 
    129 H129        7.1782  -16.7996  -48.4947 H         1 UNK         0.0600 
    130 H130        4.5695  -16.8063  -50.5060 H         1 UNK         0.3000 
    131 H131        2.4189  -17.0413  -50.4705 H         1 UNK         0.0600 
    132 H132        2.2145  -15.5128  -47.8353 H         1 UNK         0.0800 
    133 H133        0.9001  -15.9018  -48.9076 H         1 UNK         0.0800 
    134 H134        1.0918  -12.0707  -49.4472 H         1 UNK         0.0800 
    135 H135        0.7087  -13.2233  -48.1949 H         1 UNK         0.0800 
    136 H136        0.1130  -12.3429  -51.7707 H         1 UNK         0.1150 
    137 H137       -3.6338  -14.4207  -51.9786 H         1 UNK         0.1150 
    138 H138       -1.2407  -14.6461  -48.4288 H         1 UNK         0.1150 
    139 H139       -3.5931  -15.3773  -48.4075 H         1 UNK         0.0800 
    140 H140       -4.5799  -15.2549  -49.8353 H         1 UNK         0.0800 
    141 H141       -1.3412  -16.8464  -48.5502 H         1 UNK         0.0800 
    142 H142       -1.2484  -18.3447  -49.3951 H         1 UNK         0.0800 
    143 H143       -1.2006  -18.7636  -47.0712 H         1 UNK         0.0600 
    144 H144       -2.0827  -17.5938  -45.5761 H         1 UNK         0.3000 
    145 H145       -4.9949  -15.7293  -44.9740 H         1 UNK         0.0600 
    146 H146       -4.8916  -16.9486  -42.8093 H         1 UNK         0.0600 
    147 H147       -5.5677  -17.9730  -44.0664 H         1 UNK         0.0600 
    148 H148       -3.9045  -18.2118  -43.5421 H         1 UNK         0.0600 
    149 H149       -2.2584  -16.3813  -43.9570 H         1 UNK         0.3000 
    150 H150       -1.1293  -13.0745  -44.4276 H         1 UNK         0.0600 
    151 H151       -2.3779  -12.7608  -42.2813 H         1 UNK         0.0600 
    152 H152       -0.6743  -13.0737  -41.9863 H         1 UNK         0.0600 
    153 H153       -1.8616  -14.3533  -41.7365 H         1 UNK         0.0600 
    154 H154       -0.0082  -15.3131  -43.0407 H         1 UNK         0.3000 
    155 H155        1.1903  -17.0955  -45.8262 H         1 UNK         0.0600 
    156 H156        2.8136  -15.3159  -43.9379 H         1 UNK         0.0600 
    157 H157        2.8525  -15.2005  -45.6824 H         1 UNK         0.0600 
    158 H158        3.4358  -16.6597  -44.9000 H         1 UNK         0.0600 
    159 H159        1.8985  -17.5512  -43.2109 H         1 UNK         0.3000 
    160 H160       -0.9812  -19.2050  -41.9384 H         1 UNK         0.0600 
    161 H161        0.5808  -21.1010  -41.8389 H         1 UNK         0.0600 
    162 H162        1.6905  -20.3123  -42.9555 H         1 UNK         0.0600 
    163 H163        0.1061  -20.8346  -43.5091 H         1 UNK         0.0600 
    164 H164        1.7970  -18.7029  -41.1481 H         1 UNK         0.3000 
    165 H165        1.0198  -15.9614  -39.0348 H         1 UNK         0.0600 
    166 H166        2.0569  -17.4095  -37.3067 H         1 UNK         0.0600 
    167 H167        0.4093  -17.9292  -37.6221 H         1 UNK         0.0600 
    168 H168        1.7567  -18.8444  -38.2877 H         1 UNK         0.0600 
    169 H169        3.4069  -17.4874  -39.5309 H         1 UNK         0.3000 
    170 H170        4.5175  -15.7024  -42.3762 H         1 UNK         0.0600 
    171 H171        5.0778  -14.1169  -40.5275 H         1 UNK         0.0600 
    172 H172        5.5165  -15.4686  -39.4899 H         1 UNK         0.0600 
    173 H173        6.4502  -15.1282  -40.9475 H         1 UNK         0.0600 
    174 H174        5.8986  -17.5633  -40.7995 H         1 UNK         0.3000 
    175 H175        6.3863  -19.5515  -41.7802 H         1 UNK         0.0600 
    176 H176        3.7260  -20.8522  -40.9337 H         1 UNK         0.0600 
    177 H177        5.3245  -21.5581  -40.7043 H         1 UNK         0.0600 
    178 H178        4.8821  -20.0918  -39.8447 H         1 UNK         0.0600 
    179 H179        4.2973  -20.3496  -43.6870 H         1 UNK         0.3000 
    180 H180        6.6157  -21.7991  -45.7967 H         1 UNK         0.0600 
    181 H181        4.7486  -23.6735  -44.2471 H         1 UNK         0.0600 
    182 H182        6.4806  -23.8984  -44.4572 H         1 UNK         0.0600 
    183 H183        5.4175  -23.9755  -45.8517 H         1 UNK         0.0600 
    184 H184        3.7502  -22.0227  -45.7406 H         1 UNK         0.3000 
    185 H185        2.9170  -20.7025  -47.8090 H         1 UNK         0.0600 
    186 H186        1.8197  -20.9104  -45.6084 H         1 UNK         0.0600 
    187 H187        2.2761  -19.2723  -45.1750 H         1 UNK         0.0600 
    188 H188        1.0595  -19.5599  -46.4213 H         1 UNK         0.0600 
    189 H189        4.0383  -18.1013  -47.5231 H         1 UNK         0.3000 
    190 H190       -4.5961  -19.1785  -46.9661 H         1 UNK         0.3000 
    191 H191       -5.2515  -21.2732  -48.4841 H         1 UNK         0.0600 
    192 H192       -7.0043  -21.7852  -46.7929 H         1 UNK         0.0600 
    193 H193       -6.8105  -20.0548  -47.0192 H         1 UNK         0.0600 
    194 H194       -6.1322  -20.8363  -45.5930 H         1 UNK         0.0600 
    195 H195       -3.3474  -21.6623  -45.5198 H         1 UNK         0.3000 
    196 H196       -3.5466  -24.4981  -45.2756 H         1 UNK         0.0600 
    197 H197       -1.5898  -24.2115  -43.7460 H         1 UNK         0.0600 
    198 H198       -2.8351  -23.0186  -43.4120 H         1 UNK         0.0600 
    199 H199       -1.3841  -22.5553  -44.3014 H         1 UNK         0.0600 
    200 H200       -1.4004  -22.4190  -47.1923 H         1 UNK         0.3000 
    201 H201        0.2498  -24.7266  -48.1075 H         1 UNK         0.0600 
    202 H202        1.4720  -22.7056  -47.3895 H         1 UNK         0.0600 
    203 H203        0.5508  -21.7023  -48.5111 H         1 UNK         0.0600 
    204 H204        1.6547  -22.9301  -49.1222 H         1 UNK         0.0600 
    205 H205       -2.0942  -22.2943  -49.1626 H         1 UNK         0.3000 
    206 H206       -2.0280  -22.9269  -51.9688 H         1 UNK         0.0600 
    207 H207       -2.5280  -20.6701  -51.1948 H         1 UNK         0.0600 
    208 H208       -3.9764  -21.2972  -51.9622 H         1 UNK         0.0600 
    209 H209       -3.8797  -21.2350  -50.2217 H         1 UNK         0.0600 
    210 H210       -3.0889  -24.9565  -49.7137 H         1 UNK         0.3000 
    211 H211       -4.4020  -26.7460  -49.6123 H         1 UNK         0.0600 
    212 H212       -3.3326  -27.2729  -51.7963 H         1 UNK         0.0600 
    213 H213       -4.6319  -26.4504  -52.6568 H         1 UNK         0.0600 
    214 H214       -4.9706  -27.9041  -51.7291 H         1 UNK         0.0600 
    215 H215       -5.7043  -24.8644  -48.5625 H         1 UNK         0.3000 
    216 H216       -7.6405  -24.1220  -47.8367 H         1 UNK         0.0600 
    217 H217       -9.7656  -25.2493  -48.2883 H         1 UNK         0.0600 
    218 H218       -8.5158  -26.4635  -48.0728 H         1 UNK         0.0600 
    219 H219       -9.1026  -26.0739  -49.6896 H         1 UNK         0.0600 
    220 H220       -6.2383  -22.8718  -49.8745 H         1 UNK         0.3000 
    221 H221       -6.2291  -21.0300  -51.0958 H         1 UNK         0.0600 
    222 H222       -9.1595  -20.5824  -50.3481 H         1 UNK         0.0600 
    223 H223       -7.7753  -20.0887  -49.3741 H         1 UNK         0.0600 
    224 H224       -8.0378  -19.3787  -50.9552 H         1 UNK         0.0600 
    225 H225       -6.9839  -23.6509  -52.2933 H         1 UNK         0.3000 
    226 H226       -8.5855  -23.0944  -54.6464 H         1 UNK         0.0600 
    227 H227       -7.7256  -25.3238  -55.3724 H         1 UNK         0.0600 
    228 H228       -6.6105  -25.3529  -54.0102 H         1 UNK         0.0600 
    229 H229       -8.3498  -25.3939  -53.7304 H         1 UNK         0.0600 
    230 H230       -5.1454  -23.0059  -53.7891 H         1 UNK         0.3000 
    231 H231       -4.4270  -21.7929  -56.4376 H         1 UNK         0.0600 
    232 H232       -3.3851  -24.0366  -56.0373 H         1 UNK         0.0600 
    233 H233       -2.7125  -23.4583  -54.5146 H         1 UNK         0.0600 
    234 H234       -2.1786  -22.7606  -56.0412 H         1 UNK         0.0600 
    235 H235       -5.6494  -20.2219  -54.5109 H         1 UNK         0.3000 
    236 H236       -4.0138  -18.9816  -52.5916 H         1 UNK         0.0600 
    237 H237       -6.4653  -18.7379  -52.6226 H         1 UNK         0.0600 
    238 H238       -5.7201  -17.1518  -52.6922 H         1 UNK         0.0600 
    239 H239       -6.4007  -17.8638  -54.1521 H         1 UNK         0.0600 
    240 H240       -2.5365  -17.3927  -52.6072 H         1 UNK         0.3000 
    241 H241       -1.0189  -15.9721  -53.2448 H         1 UNK         0.0600 
    242 H242       -1.2185  -18.9852  -54.6009 H         1 UNK         0.3800 
    243 H243        0.2676  -18.9165  -55.5062 H         1 UNK         0.3800 
    244 H244       -2.1642  -15.3125  -55.9742 H         1 UNK         0.0800 
    245 H245       -3.0979  -14.8705  -54.5852 H         1 UNK         0.0800 
    246 H246       -3.0817  -12.7114  -53.6524 H         1 UNK         0.0800 
    247 H247       -1.7091  -11.6716  -53.3975 H         1 UNK         0.0800 
@<TRIPOS>BOND
     1    1    2 1    
     2    1  127 1    
     3    1  128 1    
     4    1  129 1    
     5    2    3 2    
     6    2    4 am   BACKBONE|DICT|INTERRES
     7    4    5 1    
     8    4  130 1    
     9    5    6 1    
    10    5   65 1    
    11    5  131 1    
    12    6    7 1    
    13    6  132 1    
    14    6  133 1    
    15    7    8 1    
    16    8    9 1    
    17    8  134 1    
    18    8  135 1    
    19    9   10 ar   
    20    9   14 ar   
    21   10   11 ar   
    22   10  136 1    
    23   11   12 ar   
    24   11  126 1    
    25   12   13 ar   
    26   12  137 1    
    27   13   14 ar   
    28   13   15 1    
    29   14  138 1    
    30   15   16 1    
    31   15  139 1    
    32   15  140 1    
    33   16   17 1    
    34   17   18 1    
    35   17  141 1    
    36   17  142 1    
    37   18   19 1    
    38   18   67 1    
    39   18  143 1    
    40   19   20 am   BACKBONE|DICT|INTERRES
    41   19  144 1    
    42   20   21 2    
    43   20   22 1    
    44   22   23 1    
    45   22   24 1    
    46   22  145 1    
    47   23  146 1    
    48   23  147 1    
    49   23  148 1    
    50   24   25 am   BACKBONE|DICT|INTERRES
    51   24  149 1    
    52   25   26 2    
    53   25   27 1    
    54   27   28 1    
    55   27   29 1    
    56   27  150 1    
    57   28  151 1    
    58   28  152 1    
    59   28  153 1    
    60   29   30 am   BACKBONE|DICT|INTERRES
    61   29  154 1    
    62   30   31 2    
    63   30   32 1    
    64   32   33 1    
    65   32   34 1    
    66   32  155 1    
    67   33  156 1    
    68   33  157 1    
    69   33  158 1    
    70   34   35 am   BACKBONE|DICT|INTERRES
    71   34  159 1    
    72   35   36 2    
    73   35   37 1    
    74   37   38 1    
    75   37   39 1    
    76   37  160 1    
    77   38  161 1    
    78   38  162 1    
    79   38  163 1    
    80   39   40 am   BACKBONE|DICT|INTERRES
    81   39  164 1    
    82   40   41 2    
    83   40   42 1    
    84   42   43 1    
    85   42   44 1    
    86   42  165 1    
    87   43  166 1    
    88   43  167 1    
    89   43  168 1    
    90   44   45 am   BACKBONE|DICT|INTERRES
    91   44  169 1    
    92   45   46 2    
    93   45   47 1    
    94   47   48 1    
    95   47   49 1    
    96   47  170 1    
    97   48  171 1    
    98   48  172 1    
    99   48  173 1    
   100   49   50 am   BACKBONE|DICT|INTERRES
   101   49  174 1    
   102   50   51 2    
   103   50   52 1    
   104   52   53 1    
   105   52   54 1    
   106   52  175 1    
   107   53  176 1    
   108   53  177 1    
   109   53  178 1    
   110   54   55 am   BACKBONE|DICT|INTERRES
   111   54  179 1    
   112   55   56 2    
   113   55   57 1    
   114   57   58 1    
   115   57   59 1    
   116   57  180 1    
   117   58  181 1    
   118   58  182 1    
   119   58  183 1    
   120   59   60 am   BACKBONE|DICT|INTERRES
   121   59  184 1    
   122   60   61 2    
   123   60   62 1    
   124   62   63 1    
   125   62   64 1    
   126   62  185 1    
   127   63  186 1    
   128   63  187 1    
   129   63  188 1    
   130   64   65 am   BACKBONE|DICT|INTERRES
   131   64  189 1    
   132   65   66 2    
   133   67   68 2    
   134   67   69 am   BACKBONE|DICT|INTERRES
   135   69   70 1    
   136   69  190 1    
   137   70   71 1    
   138   70   72 1    
   139   70  191 1    
   140   71  192 1    
   141   71  193 1    
   142   71  194 1    
   143   72   73 2    
   144   72   74 am   BACKBONE|DICT|INTERRES
   145   74   75 1    
   146   74  195 1    
   147   75   76 1    
   148   75   77 1    
   149   75  196 1    
   150   76  197 1    
   151   76  198 1    
   152   76  199 1    
   153   77   78 2    
   154   77   79 am   BACKBONE|DICT|INTERRES
   155   79   80 1    
   156   79  200 1    
   157   80   81 1    
   158   80   82 1    
   159   80  201 1    
   160   81  202 1    
   161   81  203 1    
   162   81  204 1    
   163   82   83 2    
   164   82   84 am   BACKBONE|DICT|INTERRES
   165   84   85 1    
   166   84  205 1    
   167   85   86 1    
   168   85   87 1    
   169   85  206 1    
   170   86  207 1    
   171   86  208 1    
   172   86  209 1    
   173   87   88 2    
   174   87   89 am   BACKBONE|DICT|INTERRES
   175   89   90 1    
   176   89  210 1    
   177   90   91 1    
   178   90   92 1    
   179   90  211 1    
   180   91  212 1    
   181   91  213 1    
   182   91  214 1    
   183   92   93 2    
   184   92   94 am   BACKBONE|DICT|INTERRES
   185   94   95 1    
   186   94  215 1    
   187   95   96 1    
   188   95   97 1    
   189   95  216 1    
   190   96  217 1    
   191   96  218 1    
   192   96  219 1    
   193   97   98 2    
   194   97   99 am   BACKBONE|DICT|INTERRES
   195   99  100 1    
   196   99  220 1    
   197  100  101 1    
   198  100  102 1    
   199  100  221 1    
   200  101  222 1    
   201  101  223 1    
   202  101  224 1    
   203  102  103 2    
   204  102  104 am   BACKBONE|DICT|INTERRES
   205  104  105 1    
   206  104  225 1    
   207  105  106 1    
   208  105  107 1    
   209  105  226 1    
   210  106  227 1    
   211  106  228 1    
   212  106  229 1    
   213  107  108 2    
   214  107  109 am   BACKBONE|DICT|INTERRES
   215  109  110 1    
   216  109  230 1    
   217  110  111 1    
   218  110  112 1    
   219  110  231 1    
   220  111  232 1    
   221  111  233 1    
   222  111  234 1    
   223  112  113 2    
   224  112  114 am   BACKBONE|DICT|INTERRES
   225  114  115 1    
   226  114  235 1    
   227  115  116 1    
   228  115  117 1    
   229  115  236 1    
   230  116  237 1    
   231  116  238 1    
   232  116  239 1    
   233  117  118 2    
   234  117  119 am   BACKBONE|DICT|INTERRES
   235  119  120 1    
   236  119  240 1    
   237  120  121 1    
   238  120  124 1    
   239  120  241 1    
   240  121  122 am   BACKBONE|DICT|INTERRES
   241  121  123 2    
   242  122  242 1    
   243  122  243 1    
   244  124  125 1    
   245  124  244 1    
   246  124  245 1    
   247  125  126 1    
   248  126  246 1    
   249  126  247 1    
@<TRIPOS>SUBSTRUCTURE
     1 UNK         1 GROUP             0       ****    0 ROOT    
