@<TRIPOS>MOLECULE
3R540
247   249    1
SMALL
USER_CHARGES


@<TRIPOS>ATOM
      1 CA         -3.6922  -12.1001  -49.0944 C.3       0 UNK        -0.1800 
      2 C          -2.7516  -12.8540  -48.1664 C.2       0 UNK         0.5000 
      3 O          -2.3614  -12.3230  -47.1267 O.2       0 UNK        -0.5000 
      4 N          -2.4012  -14.0965  -48.5281 N.am      1 UNK        -0.5000 
      5 CA         -1.4604  -14.9762  -47.8151 C.3       1 UNK         0.1400 
      6 C6         -1.2473  -16.3200  -48.5538 C.3       23 UNK        -0.0398 
      7 S7         -0.5866  -16.0752  -50.2347 S.3       23 UNK        -0.2404 
      8 C8          1.1997  -16.3440  -49.9967 C.3       23 UNK        -0.0205 
      9 C9          1.6827  -17.6488  -50.6158 C.ar      23 UNK        -0.0193 
     10 C10         1.7546  -17.7576  -52.0067 C.ar      23 UNK        -0.1150 
     11 C11         2.2732  -18.9070  -52.6171 C.ar      23 UNK        -0.0193 
     12 C12         2.7130  -19.9564  -51.8022 C.ar      23 UNK        -0.1150 
     13 C13         2.6629  -19.8607  -50.4065 C.ar      23 UNK        -0.0193 
     14 C14         2.1305  -18.7076  -49.8181 C.ar      23 UNK        -0.1150 
     15 C15         3.2850  -20.9599  -49.5495 C.3       23 UNK        -0.0205 
     16 S16         2.1080  -22.2642  -49.0672 S.3       23 UNK        -0.2404 
     17 C17         1.5074  -21.6113  -47.4764 C.3       23 UNK        -0.0398 
     18 CA          0.4948  -22.5407  -46.7558 C.3       11 UNK         0.1400 
     19 N           0.3898  -22.2217  -45.3274 N.am      11 UNK        -0.5000 
     20 C          -0.3684  -22.8745  -44.4327 C.2       10 UNK         0.5000 
     21 O          -1.0180  -23.8865  -44.6902 O.2       10 UNK        -0.5000 
     22 CA         -0.4720  -22.2584  -43.0255 C.3       10 UNK         0.1400 
     23 CB          0.7328  -22.6534  -42.1593 C.3       10 UNK        -0.1800 
     24 N          -0.6085  -20.8013  -43.0604 N.am      10 UNK        -0.5000 
     25 C          -1.6397  -20.1509  -43.6196 C.2       9 UNK         0.5000 
     26 O          -2.6172  -20.7137  -44.1093 O.2       9 UNK        -0.5000 
     27 CA         -1.5402  -18.6192  -43.7004 C.3       9 UNK         0.1400 
     28 CB         -1.9287  -17.9685  -42.3646 C.3       9 UNK        -0.1800 
     29 N          -0.2084  -18.1730  -44.0996 N.am      9 UNK        -0.5000 
     30 C           0.3507  -18.4237  -45.2907 C.2       8 UNK         0.5000 
     31 O          -0.2297  -19.0044  -46.2086 O.2       8 UNK        -0.5000 
     32 CA          1.8255  -18.0170  -45.4626 C.3       8 UNK         0.1400 
     33 CB          1.9677  -16.5386  -45.8461 C.3       8 UNK        -0.1800 
     34 N           2.6108  -18.2793  -44.2580 N.am      8 UNK        -0.5000 
     35 C           2.9186  -19.5017  -43.8057 C.2       7 UNK         0.5000 
     36 O           2.6098  -20.5412  -44.3868 O.2       7 UNK        -0.5000 
     37 CA          3.6602  -19.5690  -42.4583 C.3       7 UNK         0.1400 
     38 CB          5.1722  -19.3962  -42.6641 C.3       7 UNK        -0.1800 
     39 N           3.1811  -18.5634  -41.5076 N.am      7 UNK        -0.5000 
     40 C           1.9639  -18.5750  -40.9452 C.2       6 UNK         0.5000 
     41 O           1.1319  -19.4602  -41.1398 O.2       6 UNK        -0.5000 
     42 CA          1.5995  -17.3675  -40.0600 C.3       6 UNK         0.1400 
     43 CB          2.1143  -17.5703  -38.6274 C.3       6 UNK        -0.1800 
     44 N           2.1111  -16.0991  -40.5897 N.am      6 UNK        -0.5000 
     45 C           1.7254  -15.5637  -41.7548 C.2       5 UNK         0.5000 
     46 O           0.8801  -16.0744  -42.4919 O.2       5 UNK        -0.5000 
     47 CA          2.4474  -14.2877  -42.2020 C.3       5 UNK         0.1400 
     48 CB          3.8482  -14.6422  -42.7447 C.3       5 UNK        -0.1800 
     49 N           1.6464  -13.6340  -43.2343 N.am      5 UNK        -0.5000 
     50 C           1.8681  -12.4188  -43.7471 C.2       4 UNK         0.5000 
     51 O           2.7749  -11.6714  -43.3773 O.2       4 UNK        -0.5000 
     52 CA          0.9133  -11.9536  -44.8595 C.3       4 UNK         0.1400 
     53 CB          1.2820  -12.6026  -46.2026 C.3       4 UNK        -0.1800 
     54 N          -0.4938  -12.2185  -44.5603 N.am      4 UNK        -0.5000 
     55 C          -1.2143  -11.5522  -43.6467 C.2       3 UNK         0.5000 
     56 O          -0.7358  -10.6996  -42.8972 O.2       3 UNK        -0.5000 
     57 CA         -2.7242  -11.8496  -43.5660 C.3       3 UNK         0.1400 
     58 CB         -3.5306  -10.6630  -44.1191 C.3       3 UNK        -0.1800 
     59 N          -3.0992  -13.0482  -44.3165 N.am      3 UNK        -0.5000 
     60 C          -3.3981  -14.2319  -43.7650 C.2       2 UNK         0.5000 
     61 O          -3.4184  -14.4338  -42.5506 O.2       2 UNK        -0.5000 
     62 CA         -3.7365  -15.3946  -44.7220 C.3       2 UNK         0.1400 
     63 CB         -5.2578  -15.5636  -44.8479 C.3       2 UNK        -0.1800 
     64 N          -3.1631  -15.2659  -46.0634 N.am      2 UNK        -0.5000 
     65 C          -1.8527  -15.2215  -46.3429 C.2       1 UNK         0.5000 
     66 O          -0.9724  -15.2941  -45.4885 O.2       1 UNK        -0.5000 
     67 C          -0.8899  -22.5145  -47.4349 C.2       11 UNK         0.5000 
     68 O          -1.3106  -23.5225  -48.0065 O.2       11 UNK        -0.5000 
     69 N          -1.5878  -21.3765  -47.3036 N.am      12 UNK        -0.5000 
     70 CA         -2.9263  -21.1435  -47.8440 C.3       12 UNK         0.1400 
     71 CB         -3.3227  -19.6818  -47.5980 C.3       12 UNK        -0.1800 
     72 C          -3.9921  -22.1047  -47.2898 C.2       12 UNK         0.5000 
     73 O          -4.8605  -22.5350  -48.0448 O.2       12 UNK        -0.5000 
     74 N          -3.9041  -22.4447  -45.9980 N.am      13 UNK        -0.5000 
     75 CA         -4.7826  -23.4134  -45.3449 C.3       13 UNK         0.1400 
     76 CB         -4.6101  -23.3199  -43.8211 C.3       13 UNK        -0.1800 
     77 C          -4.5461  -24.8551  -45.8313 C.2       13 UNK         0.5000 
     78 O          -5.5144  -25.5780  -46.0690 O.2       13 UNK        -0.5000 
     79 N          -3.2722  -25.2503  -45.9590 N.am      14 UNK        -0.5000 
     80 CA         -2.8641  -26.6033  -46.3319 C.3       14 UNK         0.1400 
     81 CB         -1.3861  -26.8150  -45.9674 C.3       14 UNK        -0.1800 
     82 C          -3.1042  -26.9219  -47.8165 C.2       14 UNK         0.5000 
     83 O          -3.6843  -27.9643  -48.1239 O.2       14 UNK        -0.5000 
     84 N          -2.6342  -26.0389  -48.7066 N.am      15 UNK        -0.5000 
     85 CA         -2.6294  -26.2623  -50.1553 C.3       15 UNK         0.1400 
     86 CB         -1.2708  -25.8197  -50.7188 C.3       15 UNK        -0.1800 
     87 C          -3.8107  -25.5995  -50.8893 C.2       15 UNK         0.5000 
     88 O          -3.9500  -25.8012  -52.0971 O.2       15 UNK        -0.5000 
     89 N          -4.6567  -24.8527  -50.1643 N.am      16 UNK        -0.5000 
     90 CA         -5.8902  -24.2183  -50.6406 C.3       16 UNK         0.1400 
     91 CB         -6.9622  -25.2948  -50.9288 C.3       16 UNK        -0.1800 
     92 C          -5.6282  -23.2506  -51.8146 C.2       16 UNK         0.5000 
     93 O          -4.7377  -22.4034  -51.7179 O.2       16 UNK        -0.5000 
     94 N          -6.3776  -23.4042  -52.9136 N.am      17 UNK        -0.5000 
     95 CA         -6.3191  -22.5829  -54.1261 C.3       17 UNK         0.1400 
     96 CB         -7.4786  -22.9931  -55.0479 C.3       17 UNK        -0.1800 
     97 C          -4.9783  -22.6250  -54.8907 C.2       17 UNK         0.5000 
     98 O          -4.7889  -21.8114  -55.7950 O.2       17 UNK        -0.5000 
     99 N          -4.0773  -23.5493  -54.5293 N.am      18 UNK        -0.5000 
    100 CA        -2.7127  -23.6245  -55.0524 C.3       18 UNK         0.1400 
    101 CB        -2.2707  -25.0966  -55.0770 C.3       18 UNK        -0.1800 
    102 C         -1.7124  -22.7665  -54.2485 C.2       18 UNK         0.5000 
    103 O         -0.5640  -22.6448  -54.6772 O.2       18 UNK        -0.5000 
    104 N         -2.1355  -22.1989  -53.1094 N.am      19 UNK        -0.5000 
    105 CA        -1.2950  -21.3774  -52.2373 C.3       19 UNK         0.1400 
    106 CB        -0.9181  -22.1707  -50.9888 C.3       19 UNK        -0.1800 
    107 C         -1.9506  -20.0491  -51.8463 C.2       19 UNK         0.5000 
    108 O         -1.2344  -19.0587  -51.7271 O.2       19 UNK        -0.5000 
    109 N         -3.2794  -20.0141  -51.6771 N.am      20 UNK        -0.5000 
    110 CA        -4.0507  -18.8002  -51.4003 C.3       20 UNK         0.1400 
    111 CB        -5.5088  -19.1911  -51.1107 C.3       20 UNK        -0.1800 
    112 C         -3.9438  -17.8112  -52.5777 C.2       20 UNK         0.5000 
    113 O         -4.5687  -18.0345  -53.6158 O.2       20 UNK        -0.5000 
    114 N         -3.0672  -16.8055  -52.4296 N.am      21 UNK        -0.5000 
    115 CA        -2.5837  -15.8913  -53.4761 C.3       21 UNK         0.1400 
    116 CB        -3.7107  -14.9484  -53.9454 C.3       21 UNK        -0.1800 
    117 C         -1.8908  -16.6399  -54.6399 C.2       21 UNK         0.5000 
    118 O         -1.9888  -16.2238  -55.7954 O.2       21 UNK        -0.5000 
    119 N         -1.2400  -17.7607  -54.3020 N.am      22 UNK        -0.5000 
    120 CA        -0.7070  -18.7889  -55.2095 C.3       22 UNK         0.1400 
    121 C         -1.7861  -19.5658  -56.0249 C.2       22 UNK         0.5000 
    122 N         -3.0632  -19.5033  -55.6703 N.am      22 UNK        -0.7600 
    123 O         -1.4589  -20.2833  -56.9658 O.2       22 UNK        -0.5000 
    124 C124        0.4851  -18.3129  -56.0841 C.3       23 UNK        -0.0398 
    125 S125        1.8784  -17.6119  -55.1351 S.3       23 UNK        -0.2404 
    126 C126        2.4440  -19.0411  -54.1355 C.3       23 UNK        -0.0205 
    127 H127       -4.6091  -11.8387  -48.5661 H         1 UNK         0.0600 
    128 H128       -3.9596  -12.6920  -49.9702 H         1 UNK         0.0600 
    129 H129       -3.2204  -11.1792  -49.4367 H         1 UNK         0.0600 
    130 H130       -2.7489  -14.4617  -49.4028 H         1 UNK         0.3000 
    131 H131       -0.5019  -14.4546  -47.7958 H         1 UNK         0.0600 
    132 H132       -0.5836  -16.9851  -47.9998 H         1 UNK         0.0800 
    133 H133       -2.1965  -16.8479  -48.6450 H         1 UNK         0.0800 
    134 H134        1.4622  -16.2954  -48.9418 H         1 UNK         0.0800 
    135 H135        1.7331  -15.5176  -50.4684 H         1 UNK         0.0800 
    136 H136        1.4173  -16.9210  -52.5994 H         1 UNK         0.1150 
    137 H137        3.1386  -20.8396  -52.2579 H         1 UNK         0.1150 
    138 H138        2.1053  -18.6163  -48.7422 H         1 UNK         0.1150 
    139 H139        4.1007  -21.4286  -50.1021 H         1 UNK         0.0800 
    140 H140        3.7470  -20.5261  -48.6613 H         1 UNK         0.0800 
    141 H141        1.0937  -20.6178  -47.6443 H         1 UNK         0.0800 
    142 H142        2.3847  -21.4710  -46.8444 H         1 UNK         0.0800 
    143 H143        0.8701  -23.5645  -46.8145 H         1 UNK         0.0600 
    144 H144        0.9370  -21.4312  -45.0025 H         1 UNK         0.3000 
    145 H145       -1.3706  -22.6614  -42.5540 H         1 UNK         0.0600 
    146 H146        0.6285  -22.2736  -41.1428 H         1 UNK         0.0600 
    147 H147        1.6678  -22.2688  -42.5653 H         1 UNK         0.0600 
    148 H148        0.8257  -23.7381  -42.0935 H         1 UNK         0.0600 
    149 H149        0.1288  -20.2621  -42.6164 H         1 UNK         0.3000 
    150 H150       -2.2413  -18.2861  -44.4670 H         1 UNK         0.0600 
    151 H151       -1.8535  -16.8822  -42.4167 H         1 UNK         0.0600 
    152 H152       -1.2881  -18.3046  -41.5497 H         1 UNK         0.0600 
    153 H153       -2.9571  -18.2134  -42.0970 H         1 UNK         0.0600 
    154 H154        0.3003  -17.6011  -43.4310 H         1 UNK         0.3000 
    155 H155        2.2379  -18.6172  -46.2760 H         1 UNK         0.0600 
    156 H156        1.3411  -16.2930  -46.7006 H         1 UNK         0.0600 
    157 H157        2.9962  -16.2948  -46.1120 H         1 UNK         0.0600 
    158 H158        1.6673  -15.8818  -45.0316 H         1 UNK         0.0600 
    159 H159        2.8641  -17.4805  -43.6981 H         1 UNK         0.3000 
    160 H160        3.4844  -20.5576  -42.0291 H         1 UNK         0.0600 
    161 H161        5.4159  -18.4137  -43.0706 H         1 UNK         0.0600 
    162 H162        5.5591  -20.1439  -43.3578 H         1 UNK         0.0600 
    163 H163        5.7136  -19.5149  -41.7253 H         1 UNK         0.0600 
    164 H164        3.8079  -17.8037  -41.2882 H         1 UNK         0.3000 
    165 H165        0.5100  -17.3015  -40.0239 H         1 UNK         0.0600 
    166 H166        1.7899  -16.7605  -37.9736 H         1 UNK         0.0600 
    167 H167        1.7326  -18.5005  -38.2041 H         1 UNK         0.0600 
    168 H168        3.2034  -17.6158  -38.5914 H         1 UNK         0.0600 
    169 H169        2.8131  -15.6280  -40.0371 H         1 UNK         0.3000 
    170 H170        2.5364  -13.6181  -41.3443 H         1 UNK         0.0600 
    171 H171        4.4181  -13.7495  -43.0010 H         1 UNK         0.0600 
    172 H172        4.4352  -15.1867  -42.0043 H         1 UNK         0.0600 
    173 H173        3.7878  -15.2639  -43.6384 H         1 UNK         0.0600 
    174 H174        0.8622  -14.1863  -43.5641 H         1 UNK         0.3000 
    175 H175        1.0346  -10.8737  -44.9692 H         1 UNK         0.0600 
    176 H176        1.1830  -13.6870  -46.1668 H         1 UNK         0.0600 
    177 H177        0.6458  -12.2329  -47.0072 H         1 UNK         0.0600 
    178 H178        2.3142  -12.3777  -46.4740 H         1 UNK         0.0600 
    179 H179       -0.9558  -12.9174  -45.1249 H         1 UNK         0.3000 
    180 H180       -2.9750  -11.9634  -42.5095 H         1 UNK         0.0600 
    181 H181       -4.6025  -10.8397  -44.0293 H         1 UNK         0.0600 
    182 H182       -3.3077  -10.4809  -45.1713 H         1 UNK         0.0600 
    183 H183       -3.3064   -9.7464  -43.5720 H         1 UNK         0.0600 
    184 H184       -3.0772  -12.9615  -45.3273 H         1 UNK         0.3000 
    185 H185       -3.3339  -16.3022  -44.2754 H         1 UNK         0.0600 
    186 H186       -5.7210  -14.6945  -45.3167 H         1 UNK         0.0600 
    187 H187       -5.5098  -16.4422  -45.4422 H         1 UNK         0.0600 
    188 H188       -5.7195  -15.6933  -43.8681 H         1 UNK         0.0600 
    189 H189       -3.8176  -15.1581  -46.8243 H         1 UNK         0.3000 
    190 H190       -1.1620  -20.5981  -46.8073 H         1 UNK         0.3000 
    191 H191       -2.8795  -21.2997  -48.9226 H         1 UNK         0.0600 
    192 H192       -4.3055  -19.4641  -48.0173 H         1 UNK         0.0600 
    193 H193       -2.6082  -19.0092  -48.0689 H         1 UNK         0.0600 
    194 H194       -3.3555  -19.4455  -46.5340 H         1 UNK         0.0600 
    195 H195       -3.2094  -21.9877  -45.4138 H         1 UNK         0.3000 
    196 H196       -5.8148  -23.1475  -45.5825 H         1 UNK         0.0600 
    197 H197       -4.8598  -22.3231  -43.4574 H         1 UNK         0.0600 
    198 H198       -3.5862  -23.5393  -43.5175 H         1 UNK         0.0600 
    199 H199       -5.2643  -24.0266  -43.3090 H         1 UNK         0.0600 
    200 H200       -2.5265  -24.6047  -45.7140 H         1 UNK         0.3000 
    201 H201       -3.4537  -27.3092  -45.7429 H         1 UNK         0.0600 
    202 H202       -1.2258  -26.6999  -44.8952 H         1 UNK         0.0600 
    203 H203       -0.7382  -26.1021  -46.4796 H         1 UNK         0.0600 
    204 H204       -1.0539  -27.8176  -46.2398 H         1 UNK         0.0600 
    205 H205       -2.1811  -25.1890  -48.3756 H         1 UNK         0.3000 
    206 H206       -2.7204  -27.3299  -50.3654 H         1 UNK         0.0600 
    207 H207       -0.9925  -24.8361  -50.3524 H         1 UNK         0.0600 
    208 H208       -0.4845  -26.5107  -50.4151 H         1 UNK         0.0600 
    209 H209       -1.2693  -25.7869  -51.8086 H         1 UNK         0.0600 
    210 H210       -4.4332  -24.6890  -49.1924 H         1 UNK         0.3000 
    211 H211       -6.2708  -23.6036  -49.8265 H         1 UNK         0.0600 
    212 H212       -6.6825  -25.9454  -51.7583 H         1 UNK         0.0600 
    213 H213       -7.9262  -24.8426  -51.1653 H         1 UNK         0.0600 
    214 H214       -7.1174  -25.9280  -50.0551 H         1 UNK         0.0600 
    215 H215       -7.0597  -24.1485  -52.9177 H         1 UNK         0.3000 
    216 H216       -6.4745  -21.5448  -53.8251 H         1 UNK         0.0600 
    217 H217       -7.5043  -22.3756  -55.9468 H         1 UNK         0.0600 
    218 H218       -8.4411  -22.8748  -54.5496 H         1 UNK         0.0600 
    219 H219       -7.3890  -24.0324  -55.3663 H         1 UNK         0.0600 
    220 H220       -4.3077  -24.1916  -53.7810 H         1 UNK         0.3000 
    221 H221       -2.6973  -23.2561  -56.0804 H         1 UNK         0.0600 
    222 H222       -2.2074  -25.5159  -54.0734 H         1 UNK         0.0600 
    223 H223       -2.9646  -25.7082  -55.6537 H         1 UNK         0.0600 
    224 H224       -1.2871  -25.2015  -55.5365 H         1 UNK         0.0600 
    225 H225       -3.0946  -22.3438  -52.8122 H         1 UNK         0.3000 
    226 H226       -0.3648  -21.1103  -52.7428 H         1 UNK         0.0600 
    227 H227       -0.1844  -22.9382  -51.2313 H         1 UNK         0.0600 
    228 H228       -0.4694  -21.5225  -50.2357 H         1 UNK         0.0600 
    229 H229       -1.7900  -22.6486  -50.5422 H         1 UNK         0.0600 
    230 H230       -3.8175  -20.8743  -51.7551 H         1 UNK         0.3000 
    231 H231       -3.6413  -18.3304  -50.5037 H         1 UNK         0.0600 
    232 H232       -6.1128  -18.3105  -50.8895 H         1 UNK         0.0600 
    233 H233       -5.5739  -19.8577  -50.2503 H         1 UNK         0.0600 
    234 H234       -5.9662  -19.7009  -51.9596 H         1 UNK         0.0600 
    235 H235       -2.5311  -16.7769  -51.5714 H         1 UNK         0.3000 
    236 H236       -1.8113  -15.2755  -53.0134 H         1 UNK         0.0600 
    237 H237       -4.4931  -15.4861  -54.4816 H         1 UNK         0.0600 
    238 H238       -4.1727  -14.4363  -53.1015 H         1 UNK         0.0600 
    239 H239       -3.3234  -14.1813  -54.6168 H         1 UNK         0.0600 
    240 H240       -1.2101  -18.0136  -53.3174 H         1 UNK         0.3000 
    241 H241       -0.3159  -19.5527  -54.5403 H         1 UNK         0.0600 
    242 H242       -3.7303  -20.1105  -56.1309 H         1 UNK         0.3800 
    243 H243       -3.3891  -18.9040  -54.9205 H         1 UNK         0.3800 
    244 H244        0.1496  -17.5640  -56.8024 H         1 UNK         0.0800 
    245 H245        0.8807  -19.1395  -56.6765 H         1 UNK         0.0800 
    246 H246        1.9552  -19.9554  -54.4735 H         1 UNK         0.0800 
    247 H247        3.5061  -19.1800  -54.3415 H         1 UNK         0.0800 
@<TRIPOS>BOND
     1    1    2 1    
     2    1  127 1    
     3    1  128 1    
     4    1  129 1    
     5    2    3 2    
     6    2    4 am   BACKBONE|DICT|INTERRES
     7    4    5 1    
     8    4  130 1    
     9    5    6 1    
    10    5   65 1    
    11    5  131 1    
    12    6    7 1    
    13    6  132 1    
    14    6  133 1    
    15    7    8 1    
    16    8    9 1    
    17    8  134 1    
    18    8  135 1    
    19    9   10 ar   
    20    9   14 ar   
    21   10   11 ar   
    22   10  136 1    
    23   11   12 ar   
    24   11  126 1    
    25   12   13 ar   
    26   12  137 1    
    27   13   14 ar   
    28   13   15 1    
    29   14  138 1    
    30   15   16 1    
    31   15  139 1    
    32   15  140 1    
    33   16   17 1    
    34   17   18 1    
    35   17  141 1    
    36   17  142 1    
    37   18   19 1    
    38   18   67 1    
    39   18  143 1    
    40   19   20 am   BACKBONE|DICT|INTERRES
    41   19  144 1    
    42   20   21 2    
    43   20   22 1    
    44   22   23 1    
    45   22   24 1    
    46   22  145 1    
    47   23  146 1    
    48   23  147 1    
    49   23  148 1    
    50   24   25 am   BACKBONE|DICT|INTERRES
    51   24  149 1    
    52   25   26 2    
    53   25   27 1    
    54   27   28 1    
    55   27   29 1    
    56   27  150 1    
    57   28  151 1    
    58   28  152 1    
    59   28  153 1    
    60   29   30 am   BACKBONE|DICT|INTERRES
    61   29  154 1    
    62   30   31 2    
    63   30   32 1    
    64   32   33 1    
    65   32   34 1    
    66   32  155 1    
    67   33  156 1    
    68   33  157 1    
    69   33  158 1    
    70   34   35 am   BACKBONE|DICT|INTERRES
    71   34  159 1    
    72   35   36 2    
    73   35   37 1    
    74   37   38 1    
    75   37   39 1    
    76   37  160 1    
    77   38  161 1    
    78   38  162 1    
    79   38  163 1    
    80   39   40 am   BACKBONE|DICT|INTERRES
    81   39  164 1    
    82   40   41 2    
    83   40   42 1    
    84   42   43 1    
    85   42   44 1    
    86   42  165 1    
    87   43  166 1    
    88   43  167 1    
    89   43  168 1    
    90   44   45 am   BACKBONE|DICT|INTERRES
    91   44  169 1    
    92   45   46 2    
    93   45   47 1    
    94   47   48 1    
    95   47   49 1    
    96   47  170 1    
    97   48  171 1    
    98   48  172 1    
    99   48  173 1    
   100   49   50 am   BACKBONE|DICT|INTERRES
   101   49  174 1    
   102   50   51 2    
   103   50   52 1    
   104   52   53 1    
   105   52   54 1    
   106   52  175 1    
   107   53  176 1    
   108   53  177 1    
   109   53  178 1    
   110   54   55 am   BACKBONE|DICT|INTERRES
   111   54  179 1    
   112   55   56 2    
   113   55   57 1    
   114   57   58 1    
   115   57   59 1    
   116   57  180 1    
   117   58  181 1    
   118   58  182 1    
   119   58  183 1    
   120   59   60 am   BACKBONE|DICT|INTERRES
   121   59  184 1    
   122   60   61 2    
   123   60   62 1    
   124   62   63 1    
   125   62   64 1    
   126   62  185 1    
   127   63  186 1    
   128   63  187 1    
   129   63  188 1    
   130   64   65 am   BACKBONE|DICT|INTERRES
   131   64  189 1    
   132   65   66 2    
   133   67   68 2    
   134   67   69 am   BACKBONE|DICT|INTERRES
   135   69   70 1    
   136   69  190 1    
   137   70   71 1    
   138   70   72 1    
   139   70  191 1    
   140   71  192 1    
   141   71  193 1    
   142   71  194 1    
   143   72   73 2    
   144   72   74 am   BACKBONE|DICT|INTERRES
   145   74   75 1    
   146   74  195 1    
   147   75   76 1    
   148   75   77 1    
   149   75  196 1    
   150   76  197 1    
   151   76  198 1    
   152   76  199 1    
   153   77   78 2    
   154   77   79 am   BACKBONE|DICT|INTERRES
   155   79   80 1    
   156   79  200 1    
   157   80   81 1    
   158   80   82 1    
   159   80  201 1    
   160   81  202 1    
   161   81  203 1    
   162   81  204 1    
   163   82   83 2    
   164   82   84 am   BACKBONE|DICT|INTERRES
   165   84   85 1    
   166   84  205 1    
   167   85   86 1    
   168   85   87 1    
   169   85  206 1    
   170   86  207 1    
   171   86  208 1    
   172   86  209 1    
   173   87   88 2    
   174   87   89 am   BACKBONE|DICT|INTERRES
   175   89   90 1    
   176   89  210 1    
   177   90   91 1    
   178   90   92 1    
   179   90  211 1    
   180   91  212 1    
   181   91  213 1    
   182   91  214 1    
   183   92   93 2    
   184   92   94 am   BACKBONE|DICT|INTERRES
   185   94   95 1    
   186   94  215 1    
   187   95   96 1    
   188   95   97 1    
   189   95  216 1    
   190   96  217 1    
   191   96  218 1    
   192   96  219 1    
   193   97   98 2    
   194   97   99 am   BACKBONE|DICT|INTERRES
   195   99  100 1    
   196   99  220 1    
   197  100  101 1    
   198  100  102 1    
   199  100  221 1    
   200  101  222 1    
   201  101  223 1    
   202  101  224 1    
   203  102  103 2    
   204  102  104 am   BACKBONE|DICT|INTERRES
   205  104  105 1    
   206  104  225 1    
   207  105  106 1    
   208  105  107 1    
   209  105  226 1    
   210  106  227 1    
   211  106  228 1    
   212  106  229 1    
   213  107  108 2    
   214  107  109 am   BACKBONE|DICT|INTERRES
   215  109  110 1    
   216  109  230 1    
   217  110  111 1    
   218  110  112 1    
   219  110  231 1    
   220  111  232 1    
   221  111  233 1    
   222  111  234 1    
   223  112  113 2    
   224  112  114 am   BACKBONE|DICT|INTERRES
   225  114  115 1    
   226  114  235 1    
   227  115  116 1    
   228  115  117 1    
   229  115  236 1    
   230  116  237 1    
   231  116  238 1    
   232  116  239 1    
   233  117  118 2    
   234  117  119 am   BACKBONE|DICT|INTERRES
   235  119  120 1    
   236  119  240 1    
   237  120  121 1    
   238  120  124 1    
   239  120  241 1    
   240  121  122 am   BACKBONE|DICT|INTERRES
   241  121  123 2    
   242  122  242 1    
   243  122  243 1    
   244  124  125 1    
   245  124  244 1    
   246  124  245 1    
   247  125  126 1    
   248  126  246 1    
   249  126  247 1    
@<TRIPOS>SUBSTRUCTURE
     1 UNK         1 GROUP             0       ****    0 ROOT    
