@<TRIPOS>MOLECULE
3R540
247   249    1
SMALL
USER_CHARGES


@<TRIPOS>ATOM
      1 CA         -3.0318  -17.4523  -41.5639 C.3       0 UNK        -0.1800 
      2 C          -3.6169  -16.3468  -42.4319 C.2       0 UNK         0.5000 
      3 O          -4.3922  -15.5286  -41.9363 O.2       0 UNK        -0.5000 
      4 N          -3.2553  -16.3199  -43.7218 N.am      1 UNK        -0.5000 
      5 CA         -3.6345  -15.2690  -44.6715 C.3       1 UNK         0.1400 
      6 C6         -3.3857  -15.7261  -46.1281 C.3       23 UNK        -0.0398 
      7 S7         -4.3375  -14.7638  -47.3555 S.3       23 UNK        -0.2404 
      8 C8         -3.0179  -14.0916  -48.4196 C.3       23 UNK        -0.0205 
      9 C9         -2.7014  -14.9879  -49.6131 C.ar      23 UNK        -0.0193 
     10 C10        -2.8016  -14.4816  -50.9114 C.ar      23 UNK        -0.1150 
     11 C11        -2.4780  -15.2753  -52.0155 C.ar      23 UNK        -0.0193 
     12 C12        -2.0595  -16.5950  -51.8167 C.ar      23 UNK        -0.1150 
     13 C13        -1.9520  -17.1171  -50.5237 C.ar      23 UNK        -0.0193 
     14 C14        -2.2752  -16.3066  -49.4318 C.ar      23 UNK        -0.1150 
     15 C15        -1.4438  -18.5371  -50.3039 C.3       23 UNK        -0.0205 
     16 S16        -2.7352  -19.7937  -50.5199 S.3       23 UNK        -0.2404 
     17 C17        -3.6427  -19.6561  -48.9416 C.3       23 UNK        -0.0398 
     18 CA         -3.4889  -20.9174  -48.0559 C.3       11 UNK         0.1400 
     19 N          -2.1210  -21.0958  -47.5432 N.am      11 UNK        -0.5000 
     20 C          -1.6577  -22.2444  -47.0264 C.2       10 UNK         0.5000 
     21 O          -2.3429  -23.2593  -46.9175 O.2       10 UNK        -0.5000 
     22 CA         -0.2243  -22.2552  -46.4616 C.3       10 UNK         0.1400 
     23 CB          0.7938  -22.5930  -47.5595 C.3       10 UNK        -0.1800 
     24 N           0.1502  -21.0028  -45.8054 N.am      10 UNK        -0.5000 
     25 C          -0.4850  -20.4737  -44.7496 C.2       9 UNK         0.5000 
     26 O          -1.4569  -21.0000  -44.2075 O.2       9 UNK        -0.5000 
     27 CA         -0.0015  -19.1003  -44.2510 C.3       9 UNK         0.1400 
     28 CB          1.0197  -19.2623  -43.1168 C.3       9 UNK        -0.1800 
     29 N           0.5696  -18.2604  -45.3029 N.am      9 UNK        -0.5000 
     30 C          -0.0747  -17.8577  -46.4056 C.2       8 UNK         0.5000 
     31 O          -1.2443  -18.1488  -46.6554 O.2       8 UNK        -0.5000 
     32 CA          0.7438  -17.0315  -47.4119 C.3       8 UNK         0.1400 
     33 CB          0.8366  -15.5650  -46.9721 C.3       8 UNK        -0.1800 
     34 N           2.0827  -17.5840  -47.6071 N.am      8 UNK        -0.5000 
     35 C           2.3358  -18.7402  -48.2382 C.2       7 UNK         0.5000 
     36 O           1.4647  -19.4500  -48.7365 O.2       7 UNK        -0.5000 
     37 CA          3.8045  -19.2009  -48.2803 C.3       7 UNK         0.1400 
     38 CB          4.5298  -18.5923  -49.4895 C.3       7 UNK        -0.1800 
     39 N           4.5309  -18.8551  -47.0575 N.am      7 UNK        -0.5000 
     40 C           4.3229  -19.4321  -45.8652 C.2       6 UNK         0.5000 
     41 O           3.5423  -20.3668  -45.6831 O.2       6 UNK        -0.5000 
     42 CA          5.0804  -18.8217  -44.6683 C.3       6 UNK         0.1400 
     43 CB          6.4849  -19.4316  -44.5468 C.3       6 UNK        -0.1800 
     44 N           5.1869  -17.3583  -44.7370 N.am      6 UNK        -0.5000 
     45 C           4.1340  -16.5304  -44.7292 C.2       5 UNK         0.5000 
     46 O           2.9688  -16.9264  -44.6689 O.2       5 UNK        -0.5000 
     47 CA          4.4235  -15.0250  -44.8835 C.3       5 UNK         0.1400 
     48 CB          4.7354  -14.6895  -46.3510 C.3       5 UNK        -0.1800 
     49 N           3.2833  -14.2129  -44.4561 N.am      5 UNK        -0.5000 
     50 C           2.8956  -14.0423  -43.1867 C.2       4 UNK         0.5000 
     51 O           3.5371  -14.4738  -42.2267 O.2       4 UNK        -0.5000 
     52 CA          1.5660  -13.2980  -42.9270 C.3       4 UNK         0.1400 
     53 CB          1.7283  -12.1961  -41.8599 C.3       4 UNK        -0.1800 
     54 N           0.8669  -12.7668  -44.1074 N.am      4 UNK        -0.5000 
     55 C           1.2598  -11.7839  -44.9347 C.2       3 UNK         0.5000 
     56 O           2.3816  -11.2780  -44.9115 O.2       3 UNK        -0.5000 
     57 CA          0.2226  -11.2553  -45.9515 C.3       3 UNK         0.1400 
     58 CB          0.4859  -11.8060  -47.3607 C.3       3 UNK        -0.1800 
     59 N          -1.1662  -11.5357  -45.5752 N.am      3 UNK        -0.5000 
     60 C          -1.8016  -10.9559  -44.5476 C.2       2 UNK         0.5000 
     61 O          -1.3052  -10.0628  -43.8600 O.2       2 UNK        -0.5000 
     62 CA         -3.2235  -11.4521  -44.2138 C.3       2 UNK         0.1400 
     63 CB         -4.2691  -10.4852  -44.7912 C.3       2 UNK        -0.1800 
     64 N          -3.5653  -12.8160  -44.6391 N.am      2 UNK        -0.5000 
     65 C          -2.9086  -13.9444  -44.3354 C.2       1 UNK         0.5000 
     66 O          -1.7869  -13.9712  -43.8218 O.2       1 UNK        -0.5000 
     67 C          -4.5602  -20.9354  -46.9413 C.2       11 UNK         0.5000 
     68 O          -5.7419  -21.0667  -47.2602 O.2       11 UNK        -0.5000 
     69 N          -4.1514  -20.8256  -45.6699 N.am      12 UNK        -0.5000 
     70 CA         -5.0155  -21.0259  -44.5093 C.3       12 UNK         0.1400 
     71 CB         -4.7138  -19.9488  -43.4562 C.3       12 UNK        -0.1800 
     72 C          -4.8199  -22.4366  -43.9274 C.2       12 UNK         0.5000 
     73 O          -5.8061  -23.1230  -43.6610 O.2       12 UNK        -0.5000 
     74 N          -3.5559  -22.8410  -43.7360 N.am      13 UNK        -0.5000 
     75 CA         -3.1679  -24.0854  -43.0711 C.3       13 UNK         0.1400 
     76 CB         -1.6769  -24.0170  -42.7053 C.3       13 UNK        -0.1800 
     77 C          -3.4671  -25.3534  -43.8906 C.2       13 UNK         0.5000 
     78 O          -3.9969  -26.3177  -43.3368 O.2       13 UNK        -0.5000 
     79 N          -3.1173  -25.3356  -45.1826 N.am      14 UNK        -0.5000 
     80 CA         -3.3094  -26.4489  -46.1162 C.3       14 UNK         0.1400 
     81 CB         -2.0290  -26.6219  -46.9499 C.3       14 UNK        -0.1800 
     82 C          -4.5286  -26.2303  -47.0311 C.2       14 UNK         0.5000 
     83 O          -4.9404  -27.1662  -47.7182 O.2       14 UNK        -0.5000 
     84 N          -5.0868  -25.0109  -47.0225 N.am      15 UNK        -0.5000 
     85 CA         -6.2370  -24.5615  -47.8071 C.3       15 UNK         0.1400 
     86 CB         -7.5284  -25.2634  -47.3278 C.3       15 UNK        -0.1800 
     87 C          -5.9656  -24.6753  -49.3218 C.2       15 UNK         0.5000 
     88 O          -4.9404  -24.1763  -49.7900 O.2       15 UNK        -0.5000 
     89 N          -6.8680  -25.3358  -50.0598 N.am      16 UNK        -0.5000 
     90 CA         -6.8136  -25.5211  -51.5120 C.3       16 UNK         0.1400 
     91 CB         -8.0992  -26.2245  -51.9722 C.3       16 UNK        -0.1800 
     92 C          -5.5736  -26.2850  -52.0168 C.2       16 UNK         0.5000 
     93 O          -5.1868  -26.0987  -53.1707 O.2       16 UNK        -0.5000 
     94 N          -4.9465  -27.0976  -51.1528 N.am      17 UNK        -0.5000 
     95 CA         -3.7203  -27.8410  -51.4557 C.3       17 UNK         0.1400 
     96 CB         -3.4588  -28.8682  -50.3452 C.3       17 UNK        -0.1800 
     97 C          -2.4860  -26.9404  -51.6717 C.2       17 UNK         0.5000 
     98 O          -1.5353  -27.3751  -52.3225 O.2       17 UNK        -0.5000 
     99 N          -2.5255  -25.7014  -51.1587 N.am      18 UNK        -0.5000 
    100 CA        -1.5089  -24.6753  -51.4030 C.3       18 UNK         0.1400 
    101 CB        -1.5170  -23.6811  -50.2357 C.3       18 UNK        -0.1800 
    102 C         -1.7111  -23.9293  -52.7369 C.2       18 UNK         0.5000 
    103 O         -0.8421  -23.1410  -53.1114 O.2       18 UNK        -0.5000 
    104 N         -2.8430  -24.1731  -53.4181 N.am      19 UNK        -0.5000 
    105 CA        -3.3050  -23.5274  -54.6474 C.3       19 UNK         0.1400 
    106 CB        -2.4016  -23.9021  -55.8438 C.3       19 UNK        -0.1800 
    107 C         -3.4848  -22.0105  -54.4455 C.2       19 UNK         0.5000 
    108 O         -4.5086  -21.5927  -53.9029 O.2       19 UNK        -0.5000 
    109 N         -2.4893  -21.2250  -54.8652 N.am      20 UNK        -0.5000 
    110 CA        -2.4206  -19.7808  -54.6970 C.3       20 UNK         0.1400 
    111 CB        -3.2114  -19.0738  -55.8152 C.3       20 UNK        -0.1800 
    112 C         -0.9408  -19.3782  -54.6511 C.2       20 UNK         0.5000 
    113 O         -0.4521  -18.7026  -55.5592 O.2       20 UNK        -0.5000 
    114 N         -0.2394  -19.8233  -53.5995 N.am      21 UNK        -0.5000 
    115 CA         1.1694  -19.5301  -53.3025 C.3       21 UNK         0.1400 
    116 CB         1.6659  -20.5382  -52.2497 C.3       21 UNK        -0.1800 
    117 C          1.3949  -18.0596  -52.8728 C.2       21 UNK         0.5000 
    118 O          1.8547  -17.7898  -51.7637 O.2       21 UNK        -0.5000 
    119 N          1.0164  -17.1343  -53.7578 N.am      22 UNK        -0.5000 
    120 CA         0.9621  -15.6813  -53.5428 C.3       22 UNK         0.1400 
    121 C          2.3422  -14.9577  -53.5106 C.2       22 UNK         0.5000 
    122 N          3.4465  -15.6149  -53.8434 N.am      22 UNK        -0.7600 
    123 O          2.4158  -13.7795  -53.1737 O.2       22 UNK        -0.5000 
    124 C124       -0.0149  -15.0364  -54.5667 C.3       23 UNK        -0.0398 
    125 S125       -1.0838  -13.7424  -53.8532 S.3       23 UNK        -0.2404 
    126 C126       -2.5791  -14.6897  -53.4155 C.3       23 UNK        -0.0205 
    127 H127       -2.4476  -17.0200  -40.7516 H         1 UNK         0.0600 
    128 H128       -3.8321  -18.0503  -41.1280 H         1 UNK         0.0600 
    129 H129       -2.3821  -18.1174  -42.1307 H         1 UNK         0.0600 
    130 H130       -2.5960  -17.0010  -44.0664 H         1 UNK         0.3000 
    131 H131       -4.7076  -15.1058  -44.5477 H         1 UNK         0.0600 
    132 H132       -3.6920  -16.7667  -46.2475 H         1 UNK         0.0800 
    133 H133       -2.3217  -15.7033  -46.3565 H         1 UNK         0.0800 
    134 H134       -3.3429  -13.1093  -48.7660 H         1 UNK         0.0800 
    135 H135       -2.1100  -13.9164  -47.8431 H         1 UNK         0.0800 
    136 H136       -3.1184  -13.4598  -51.0675 H         1 UNK         0.1150 
    137 H137       -1.8018  -17.2102  -52.6660 H         1 UNK         0.1150 
    138 H138       -2.1904  -16.7025  -48.4347 H         1 UNK         0.1150 
    139 H139       -0.6338  -18.7437  -50.9985 H         1 UNK         0.0800 
    140 H140       -1.0146  -18.6525  -49.3110 H         1 UNK         0.0800 
    141 H141       -3.3332  -18.7670  -48.3926 H         1 UNK         0.0800 
    142 H142       -4.6894  -19.4935  -49.2054 H         1 UNK         0.0800 
    143 H143       -3.7148  -21.7828  -48.6826 H         1 UNK         0.0600 
    144 H144       -1.5250  -20.2781  -47.5453 H         1 UNK         0.3000 
    145 H145       -0.1734  -23.0412  -45.7060 H         1 UNK         0.0600 
    146 H146        1.8160  -22.5466  -47.1832 H         1 UNK         0.0600 
    147 H147        0.6332  -23.6029  -47.9379 H         1 UNK         0.0600 
    148 H148        0.7153  -21.9122  -48.4068 H         1 UNK         0.0600 
    149 H149        0.9400  -20.5034  -46.1909 H         1 UNK         0.3000 
    150 H150       -0.8715  -18.5761  -43.8554 H         1 UNK         0.0600 
    151 H151        0.6080  -19.8580  -42.3010 H         1 UNK         0.0600 
    152 H152        1.3050  -18.2951  -42.7023 H         1 UNK         0.0600 
    153 H153        1.9271  -19.7584  -43.4625 H         1 UNK         0.0600 
    154 H154        1.5178  -17.9230  -45.1472 H         1 UNK         0.3000 
    155 H155        0.2382  -17.0507  -48.3760 H         1 UNK         0.0600 
    156 H156        1.4367  -14.9822  -47.6708 H         1 UNK         0.0600 
    157 H157        1.2707  -15.4597  -45.9794 H         1 UNK         0.0600 
    158 H158       -0.1535  -15.1139  -46.9374 H         1 UNK         0.0600 
    159 H159        2.8470  -17.0944  -47.1693 H         1 UNK         0.3000 
    160 H160        3.8102  -20.2876  -48.3897 H         1 UNK         0.0600 
    161 H161        4.5554  -17.5030  -49.4400 H         1 UNK         0.0600 
    162 H162        4.0293  -18.8650  -50.4193 H         1 UNK         0.0600 
    163 H163        5.5567  -18.9518  -49.5572 H         1 UNK         0.0600 
    164 H164        5.1995  -18.1018  -47.1190 H         1 UNK         0.3000 
    165 H165        4.5211  -19.0727  -43.7644 H         1 UNK         0.0600 
    166 H166        7.1070  -19.1883  -45.4089 H         1 UNK         0.0600 
    167 H167        6.9945  -19.0730  -43.6523 H         1 UNK         0.0600 
    168 H168        6.4330  -20.5189  -44.4755 H         1 UNK         0.0600 
    169 H169        6.1191  -16.9738  -44.7960 H         1 UNK         0.3000 
    170 H170        5.2885  -14.7703  -44.2677 H         1 UNK         0.0600 
    171 H171        5.6079  -15.2393  -46.7058 H         1 UNK         0.0600 
    172 H172        3.9020  -14.9351  -47.0097 H         1 UNK         0.0600 
    173 H173        4.9538  -13.6282  -46.4725 H         1 UNK         0.0600 
    174 H174        2.7035  -13.8200  -45.1810 H         1 UNK         0.3000 
    175 H175        0.8925  -14.0501  -42.5134 H         1 UNK         0.0600 
    176 H176        0.7749  -11.7126  -41.6458 H         1 UNK         0.0600 
    177 H177        2.0987  -12.6082  -40.9206 H         1 UNK         0.0600 
    178 H178        2.4315  -11.4258  -42.1774 H         1 UNK         0.0600 
    179 H179       -0.0812  -13.1189  -44.2122 H         1 UNK         0.3000 
    180 H180        0.3478  -10.1711  -45.9925 H         1 UNK         0.0600 
    181 H181       -0.1386  -11.3038  -48.0998 H         1 UNK         0.0600 
    182 H182        1.5244  -11.6527  -47.6572 H         1 UNK         0.0600 
    183 H183        0.2788  -12.8715  -47.4230 H         1 UNK         0.0600 
    184 H184       -1.6485  -12.2566  -46.0887 H         1 UNK         0.3000 
    185 H185       -3.3110  -11.4324  -43.1257 H         1 UNK         0.0600 
    186 H186       -5.2737  -10.7399  -44.4529 H         1 UNK         0.0600 
    187 H187       -4.0740   -9.4594  -44.4753 H         1 UNK         0.0600 
    188 H188       -4.2675  -10.4987  -45.8819 H         1 UNK         0.0600 
    189 H189       -4.4569  -12.9060  -45.1055 H         1 UNK         0.3000 
    190 H190       -3.1606  -20.7362  -45.4837 H         1 UNK         0.3000 
    191 H191       -6.0657  -20.9238  -44.7908 H         1 UNK         0.0600 
    192 H192       -5.3600  -20.0633  -42.5852 H         1 UNK         0.0600 
    193 H193       -4.8843  -18.9503  -43.8586 H         1 UNK         0.0600 
    194 H194       -3.6827  -19.9983  -43.1072 H         1 UNK         0.0600 
    195 H195       -2.7979  -22.1979  -43.9531 H         1 UNK         0.3000 
    196 H196       -3.7353  -24.1551  -42.1404 H         1 UNK         0.0600 
    197 H197       -1.3608  -24.9187  -42.1794 H         1 UNK         0.0600 
    198 H198       -1.4705  -23.1695  -42.0513 H         1 UNK         0.0600 
    199 H199       -1.0487  -23.9149  -43.5904 H         1 UNK         0.0600 
    200 H200       -2.7199  -24.4910  -45.5868 H         1 UNK         0.3000 
    201 H201       -3.4775  -27.3772  -45.5668 H         1 UNK         0.0600 
    202 H202       -1.1518  -26.7226  -46.3108 H         1 UNK         0.0600 
    203 H203       -1.8626  -25.7771  -47.6172 H         1 UNK         0.0600 
    204 H204       -2.0829  -27.5191  -47.5658 H         1 UNK         0.0600 
    205 H205       -4.6270  -24.3017  -46.4707 H         1 UNK         0.3000 
    206 H206       -6.3554  -23.4998  -47.6019 H         1 UNK         0.0600 
    207 H207       -7.6682  -25.1226  -46.2558 H         1 UNK         0.0600 
    208 H208       -8.4097  -24.8485  -47.8184 H         1 UNK         0.0600 
    209 H209       -7.5123  -26.3372  -47.5175 H         1 UNK         0.0600 
    210 H210       -7.6669  -25.7348  -49.5886 H         1 UNK         0.3000 
    211 H211       -6.7852  -24.5289  -51.9671 H         1 UNK         0.0600 
    212 H212       -8.1990  -27.2134  -51.5228 H         1 UNK         0.0600 
    213 H213       -8.1086  -26.3538  -53.0555 H         1 UNK         0.0600 
    214 H214       -8.9836  -25.6440  -51.7092 H         1 UNK         0.0600 
    215 H215       -5.3033  -27.1745  -50.2092 H         1 UNK         0.3000 
    216 H216       -3.8860  -28.3884  -52.3860 H         1 UNK         0.0600 
    217 H217       -2.5876  -29.4819  -50.5776 H         1 UNK         0.0600 
    218 H218       -4.3069  -29.5416  -50.2203 H         1 UNK         0.0600 
    219 H219       -3.2711  -28.3840  -49.3883 H         1 UNK         0.0600 
    220 H220       -3.3479  -25.4043  -50.6449 H         1 UNK         0.3000 
    221 H221       -0.5240  -25.1454  -51.4370 H         1 UNK         0.0600 
    222 H222       -2.4679  -23.1539  -50.1645 H         1 UNK         0.0600 
    223 H223       -1.3427  -24.1928  -49.2913 H         1 UNK         0.0600 
    224 H224       -0.7350  -22.9292  -50.3496 H         1 UNK         0.0600 
    225 H225       -3.4956  -24.8414  -53.0265 H         1 UNK         0.3000 
    226 H226       -4.2982  -23.9300  -54.8521 H         1 UNK         0.0600 
    227 H227       -2.4144  -24.9788  -56.0136 H         1 UNK         0.0600 
    228 H228       -2.7530  -23.4281  -56.7612 H         1 UNK         0.0600 
    229 H229       -1.3625  -23.6075  -55.6964 H         1 UNK         0.0600 
    230 H230       -1.6581  -21.6635  -55.2389 H         1 UNK         0.3000 
    231 H231       -2.8584  -19.5037  -53.7353 H         1 UNK         0.0600 
    232 H232       -3.1432  -17.9898  -55.7154 H         1 UNK         0.0600 
    233 H233       -4.2687  -19.3360  -55.7780 H         1 UNK         0.0600 
    234 H234       -2.8354  -19.3399  -56.8037 H         1 UNK         0.0600 
    235 H235       -0.7135  -20.4145  -52.9303 H         1 UNK         0.3000 
    236 H236        1.7505  -19.6901  -54.2129 H         1 UNK         0.0600 
    237 H237        1.1104  -20.4542  -51.3149 H         1 UNK         0.0600 
    238 H238        1.5621  -21.5632  -52.6065 H         1 UNK         0.0600 
    239 H239        2.7203  -20.3806  -52.0205 H         1 UNK         0.0600 
    240 H240        0.6280  -17.4734  -54.6337 H         1 UNK         0.3000 
    241 H241        0.5473  -15.5461  -52.5421 H         1 UNK         0.0600 
    242 H242        4.3353  -15.1403  -53.8163 H         1 UNK         0.3800 
    243 H243        3.4021  -16.5845  -54.1120 H         1 UNK         0.3800 
    244 H244       -0.6658  -15.7896  -55.0130 H         1 UNK         0.0800 
    245 H245        0.5265  -14.6088  -55.4127 H         1 UNK         0.0800 
    246 H246       -3.4390  -14.0199  -53.4632 H         1 UNK         0.0800 
    247 H247       -2.7722  -15.4725  -54.1503 H         1 UNK         0.0800 
@<TRIPOS>BOND
     1    1    2 1    
     2    1  127 1    
     3    1  128 1    
     4    1  129 1    
     5    2    3 2    
     6    2    4 am   BACKBONE|DICT|INTERRES
     7    4    5 1    
     8    4  130 1    
     9    5    6 1    
    10    5   65 1    
    11    5  131 1    
    12    6    7 1    
    13    6  132 1    
    14    6  133 1    
    15    7    8 1    
    16    8    9 1    
    17    8  134 1    
    18    8  135 1    
    19    9   10 ar   
    20    9   14 ar   
    21   10   11 ar   
    22   10  136 1    
    23   11   12 ar   
    24   11  126 1    
    25   12   13 ar   
    26   12  137 1    
    27   13   14 ar   
    28   13   15 1    
    29   14  138 1    
    30   15   16 1    
    31   15  139 1    
    32   15  140 1    
    33   16   17 1    
    34   17   18 1    
    35   17  141 1    
    36   17  142 1    
    37   18   19 1    
    38   18   67 1    
    39   18  143 1    
    40   19   20 am   BACKBONE|DICT|INTERRES
    41   19  144 1    
    42   20   21 2    
    43   20   22 1    
    44   22   23 1    
    45   22   24 1    
    46   22  145 1    
    47   23  146 1    
    48   23  147 1    
    49   23  148 1    
    50   24   25 am   BACKBONE|DICT|INTERRES
    51   24  149 1    
    52   25   26 2    
    53   25   27 1    
    54   27   28 1    
    55   27   29 1    
    56   27  150 1    
    57   28  151 1    
    58   28  152 1    
    59   28  153 1    
    60   29   30 am   BACKBONE|DICT|INTERRES
    61   29  154 1    
    62   30   31 2    
    63   30   32 1    
    64   32   33 1    
    65   32   34 1    
    66   32  155 1    
    67   33  156 1    
    68   33  157 1    
    69   33  158 1    
    70   34   35 am   BACKBONE|DICT|INTERRES
    71   34  159 1    
    72   35   36 2    
    73   35   37 1    
    74   37   38 1    
    75   37   39 1    
    76   37  160 1    
    77   38  161 1    
    78   38  162 1    
    79   38  163 1    
    80   39   40 am   BACKBONE|DICT|INTERRES
    81   39  164 1    
    82   40   41 2    
    83   40   42 1    
    84   42   43 1    
    85   42   44 1    
    86   42  165 1    
    87   43  166 1    
    88   43  167 1    
    89   43  168 1    
    90   44   45 am   BACKBONE|DICT|INTERRES
    91   44  169 1    
    92   45   46 2    
    93   45   47 1    
    94   47   48 1    
    95   47   49 1    
    96   47  170 1    
    97   48  171 1    
    98   48  172 1    
    99   48  173 1    
   100   49   50 am   BACKBONE|DICT|INTERRES
   101   49  174 1    
   102   50   51 2    
   103   50   52 1    
   104   52   53 1    
   105   52   54 1    
   106   52  175 1    
   107   53  176 1    
   108   53  177 1    
   109   53  178 1    
   110   54   55 am   BACKBONE|DICT|INTERRES
   111   54  179 1    
   112   55   56 2    
   113   55   57 1    
   114   57   58 1    
   115   57   59 1    
   116   57  180 1    
   117   58  181 1    
   118   58  182 1    
   119   58  183 1    
   120   59   60 am   BACKBONE|DICT|INTERRES
   121   59  184 1    
   122   60   61 2    
   123   60   62 1    
   124   62   63 1    
   125   62   64 1    
   126   62  185 1    
   127   63  186 1    
   128   63  187 1    
   129   63  188 1    
   130   64   65 am   BACKBONE|DICT|INTERRES
   131   64  189 1    
   132   65   66 2    
   133   67   68 2    
   134   67   69 am   BACKBONE|DICT|INTERRES
   135   69   70 1    
   136   69  190 1    
   137   70   71 1    
   138   70   72 1    
   139   70  191 1    
   140   71  192 1    
   141   71  193 1    
   142   71  194 1    
   143   72   73 2    
   144   72   74 am   BACKBONE|DICT|INTERRES
   145   74   75 1    
   146   74  195 1    
   147   75   76 1    
   148   75   77 1    
   149   75  196 1    
   150   76  197 1    
   151   76  198 1    
   152   76  199 1    
   153   77   78 2    
   154   77   79 am   BACKBONE|DICT|INTERRES
   155   79   80 1    
   156   79  200 1    
   157   80   81 1    
   158   80   82 1    
   159   80  201 1    
   160   81  202 1    
   161   81  203 1    
   162   81  204 1    
   163   82   83 2    
   164   82   84 am   BACKBONE|DICT|INTERRES
   165   84   85 1    
   166   84  205 1    
   167   85   86 1    
   168   85   87 1    
   169   85  206 1    
   170   86  207 1    
   171   86  208 1    
   172   86  209 1    
   173   87   88 2    
   174   87   89 am   BACKBONE|DICT|INTERRES
   175   89   90 1    
   176   89  210 1    
   177   90   91 1    
   178   90   92 1    
   179   90  211 1    
   180   91  212 1    
   181   91  213 1    
   182   91  214 1    
   183   92   93 2    
   184   92   94 am   BACKBONE|DICT|INTERRES
   185   94   95 1    
   186   94  215 1    
   187   95   96 1    
   188   95   97 1    
   189   95  216 1    
   190   96  217 1    
   191   96  218 1    
   192   96  219 1    
   193   97   98 2    
   194   97   99 am   BACKBONE|DICT|INTERRES
   195   99  100 1    
   196   99  220 1    
   197  100  101 1    
   198  100  102 1    
   199  100  221 1    
   200  101  222 1    
   201  101  223 1    
   202  101  224 1    
   203  102  103 2    
   204  102  104 am   BACKBONE|DICT|INTERRES
   205  104  105 1    
   206  104  225 1    
   207  105  106 1    
   208  105  107 1    
   209  105  226 1    
   210  106  227 1    
   211  106  228 1    
   212  106  229 1    
   213  107  108 2    
   214  107  109 am   BACKBONE|DICT|INTERRES
   215  109  110 1    
   216  109  230 1    
   217  110  111 1    
   218  110  112 1    
   219  110  231 1    
   220  111  232 1    
   221  111  233 1    
   222  111  234 1    
   223  112  113 2    
   224  112  114 am   BACKBONE|DICT|INTERRES
   225  114  115 1    
   226  114  235 1    
   227  115  116 1    
   228  115  117 1    
   229  115  236 1    
   230  116  237 1    
   231  116  238 1    
   232  116  239 1    
   233  117  118 2    
   234  117  119 am   BACKBONE|DICT|INTERRES
   235  119  120 1    
   236  119  240 1    
   237  120  121 1    
   238  120  124 1    
   239  120  241 1    
   240  121  122 am   BACKBONE|DICT|INTERRES
   241  121  123 2    
   242  122  242 1    
   243  122  243 1    
   244  124  125 1    
   245  124  244 1    
   246  124  245 1    
   247  125  126 1    
   248  126  246 1    
   249  126  247 1    
@<TRIPOS>SUBSTRUCTURE
     1 UNK         1 GROUP             0       ****    0 ROOT    
