@<TRIPOS>MOLECULE
3R540
247   249    1
SMALL
USER_CHARGES


@<TRIPOS>ATOM
      1 CA          5.9968  -17.9298  -48.4168 C.3       0 UNK        -0.1800 
      2 C           5.2560  -16.9420  -47.5276 C.2       0 UNK         0.5000 
      3 O           4.7765  -17.3146  -46.4586 O.2       0 UNK        -0.5000 
      4 N           5.1898  -15.6691  -47.9425 N.am      1 UNK        -0.5000 
      5 CA          4.4960  -14.5856  -47.2261 C.3       1 UNK         0.1400 
      6 C6          4.2639  -13.3429  -48.1340 C.3       23 UNK        -0.0398 
      7 S7          2.5028  -12.8566  -48.2170 S.3       23 UNK        -0.2404 
      8 C8          2.1626  -12.8908  -50.0103 C.3       23 UNK        -0.0205 
      9 C9          1.6386  -14.2356  -50.5045 C.ar      23 UNK        -0.0193 
     10 C10         0.3895  -14.3146  -51.1310 C.ar      23 UNK        -0.1150 
     11 C11        -0.0836  -15.5324  -51.6305 C.ar      23 UNK        -0.0193 
     12 C12         0.7033  -16.6782  -51.5015 C.ar      23 UNK        -0.1150 
     13 C13         1.9395  -16.6210  -50.8527 C.ar      23 UNK        -0.0193 
     14 C14         2.4065  -15.3960  -50.3718 C.ar      23 UNK        -0.1150 
     15 C15         2.7662  -17.8825  -50.6584 C.3       23 UNK        -0.0205 
     16 S16         2.3318  -18.7265  -49.1041 S.3       23 UNK        -0.2404 
     17 C17         0.6528  -19.3076  -49.4990 C.3       23 UNK        -0.0398 
     18 CA          0.1728  -20.4495  -48.5793 C.3       11 UNK         0.1400 
     19 N           0.0981  -20.0592  -47.1691 N.am      11 UNK        -0.5000 
     20 C          -0.1488  -20.9036  -46.1569 C.2       10 UNK         0.5000 
     21 O          -0.2786  -22.1198  -46.2928 O.2       10 UNK        -0.5000 
     22 CA         -0.3497  -20.2725  -44.7695 C.3       10 UNK         0.1400 
     23 CB          0.9997  -20.0035  -44.0883 C.3       10 UNK        -0.1800 
     24 N          -1.1293  -19.0367  -44.8584 N.am      10 UNK        -0.5000 
     25 C          -2.4394  -19.0095  -45.1506 C.2       9 UNK         0.5000 
     26 O          -3.1214  -20.0225  -45.3017 O.2       9 UNK        -0.5000 
     27 CA         -3.0972  -17.6325  -45.3529 C.3       9 UNK         0.1400 
     28 CB         -3.7489  -17.1484  -44.0496 C.3       9 UNK        -0.1800 
     29 N          -2.1641  -16.6242  -45.8584 N.am      9 UNK        -0.5000 
     30 C          -1.6310  -16.6553  -47.0904 C.2       8 UNK         0.5000 
     31 O          -1.8931  -17.5337  -47.9114 O.2       8 UNK        -0.5000 
     32 CA         -0.6067  -15.5602  -47.4546 C.3       8 UNK         0.1400 
     33 CB         -1.3195  -14.3622  -48.0981 C.3       8 UNK        -0.1800 
     34 N           0.1715  -15.0725  -46.3155 N.am      8 UNK        -0.5000 
     35 C           0.9310  -15.8190  -45.5043 C.2       7 UNK         0.5000 
     36 O           1.0904  -17.0312  -45.6469 O.2       7 UNK        -0.5000 
     37 CA          1.5592  -15.1115  -44.2850 C.3       7 UNK         0.1400 
     38 CB          1.4775  -13.5687  -44.3382 C.3       7 UNK        -0.1800 
     39 N           0.9725  -15.5892  -43.0310 N.am      7 UNK        -0.5000 
     40 C          -0.3286  -15.5911  -42.7039 C.2       6 UNK         0.5000 
     41 O          -1.2298  -15.2009  -43.4472 O.2       6 UNK        -0.5000 
     42 CA         -0.6758  -16.0819  -41.2899 C.3       6 UNK         0.1400 
     43 CB         -0.5214  -17.6066  -41.1737 C.3       6 UNK        -0.1800 
     44 N           0.1445  -15.4192  -40.2766 N.am      6 UNK        -0.5000 
     45 C           0.0107  -14.1326  -39.9190 C.2       5 UNK         0.5000 
     46 O          -0.8628  -13.3884  -40.3662 O.2       5 UNK        -0.5000 
     47 CA          1.0017  -13.5776  -38.8768 C.3       5 UNK         0.1400 
     48 CB          0.3372  -13.4976  -37.4933 C.3       5 UNK        -0.1800 
     49 N           2.2257  -14.3713  -38.7654 N.am      5 UNK        -0.5000 
     50 C           3.2293  -14.3584  -39.6519 C.2       4 UNK         0.5000 
     51 O           3.2537  -13.6221  -40.6402 O.2       4 UNK        -0.5000 
     52 CA          4.4086  -15.3209  -39.3869 C.3       4 UNK         0.1400 
     53 CB          4.1130  -16.3989  -38.3189 C.3       4 UNK        -0.1800 
     54 N           4.9042  -15.9608  -40.6075 N.am      4 UNK        -0.5000 
     55 C           4.2144  -16.6906  -41.4926 C.2       3 UNK         0.5000 
     56 O           2.9951  -16.8682  -41.4308 O.2       3 UNK        -0.5000 
     57 CA          5.0411  -17.3398  -42.6265 C.3       3 UNK         0.1400 
     58 CB          4.2103  -18.3452  -43.4427 C.3       3 UNK        -0.1800 
     59 N           5.6476  -16.3741  -43.5487 N.am      3 UNK        -0.5000 
     60 C           6.6364  -15.5097  -43.2677 C.2       2 UNK         0.5000 
     61 O           7.1752  -15.4388  -42.1616 O.2       2 UNK        -0.5000 
     62 CA          7.1414  -14.5835  -44.3975 C.3       2 UNK         0.1400 
     63 CB          8.6260  -14.8507  -44.6957 C.3       2 UNK        -0.1800 
     64 N           6.3918  -14.7121  -45.6470 N.am      2 UNK        -0.5000 
     65 C           5.1758  -14.2031  -45.8865 C.2       1 UNK         0.5000 
     66 O           4.5852  -13.4785  -45.0884 O.2       1 UNK        -0.5000 
     67 C          -1.1780  -20.9898  -49.0825 C.2       11 UNK         0.5000 
     68 O          -1.2019  -22.0360  -49.7272 O.2       11 UNK        -0.5000 
     69 N          -2.2745  -20.2919  -48.7520 N.am      12 UNK        -0.5000 
     70 CA         -3.6427  -20.7013  -49.0689 C.3       12 UNK         0.1400 
     71 CB         -4.6235  -19.6019  -48.6385 C.3       12 UNK        -0.1800 
     72 C          -4.0177  -22.0514  -48.4324 C.2       12 UNK         0.5000 
     73 O          -4.5719  -22.9082  -49.1201 O.2       12 UNK        -0.5000 
     74 N          -3.6737  -22.2370  -47.1496 N.am      13 UNK        -0.5000 
     75 CA         -3.8572  -23.4907  -46.4173 C.3       13 UNK         0.1400 
     76 CB         -3.4931  -23.2903  -44.9388 C.3       13 UNK        -0.1800 
     77 C          -3.0592  -24.6564  -47.0284 C.2       13 UNK         0.5000 
     78 O          -3.6248  -25.7329  -47.2267 O.2       13 UNK        -0.5000 
     79 N          -1.7815  -24.4065  -47.3549 N.am      14 UNK        -0.5000 
     80 CA         -0.8886  -25.3533  -48.0279 C.3       14 UNK         0.1400 
     81 CB          0.5331  -24.7752  -48.0859 C.3       14 UNK        -0.1800 
     82 C          -1.3784  -25.7433  -49.4347 C.2       14 UNK         0.5000 
     83 O          -1.2949  -26.9151  -49.8036 O.2       14 UNK        -0.5000 
     84 N          -1.9463  -24.7776  -50.1684 N.am      15 UNK        -0.5000 
     85 CA         -2.6038  -24.9473  -51.4658 C.3       15 UNK         0.1400 
     86 CB         -2.6108  -23.5951  -52.2021 C.3       15 UNK        -0.1800 
     87 C          -4.0207  -25.5547  -51.3502 C.2       15 UNK         0.5000 
     88 O          -4.9356  -25.1021  -52.0384 O.2       15 UNK        -0.5000 
     89 N          -4.1760  -26.5676  -50.4848 N.am      16 UNK        -0.5000 
     90 CA         -5.3754  -27.3750  -50.2395 C.3       16 UNK         0.1400 
     91 CB         -5.5797  -28.3716  -51.3981 C.3       16 UNK        -0.1800 
     92 C          -6.6373  -26.5433  -49.9233 C.2       16 UNK         0.5000 
     93 O          -7.7122  -26.8263  -50.4555 O.2       16 UNK        -0.5000 
     94 N          -6.4687  -25.5300  -49.0608 N.am      17 UNK        -0.5000 
     95 CA         -7.4750  -24.5437  -48.6521 C.3       17 UNK         0.1400 
     96 CB         -8.6192  -25.2085  -47.8577 C.3       17 UNK        -0.1800 
     97 C          -7.9642  -23.6910  -49.8421 C.2       17 UNK         0.5000 
     98 O          -9.1615  -23.6394  -50.1303 O.2       17 UNK        -0.5000 
     99 N          -6.9986  -23.0342  -50.4967 N.am      18 UNK        -0.5000 
    100 CA        -7.1326  -22.1147  -51.6271 C.3       18 UNK         0.1400 
    101 CB        -7.8803  -20.8336  -51.2035 C.3       18 UNK        -0.1800 
    102 C         -7.7350  -22.7737  -52.8838 C.2       18 UNK         0.5000 
    103 O         -8.6493  -22.2202  -53.5001 O.2       18 UNK        -0.5000 
    104 N         -7.2065  -23.9451  -53.2599 N.am      19 UNK        -0.5000 
    105 CA        -7.5955  -24.7019  -54.4498 C.3       19 UNK         0.1400 
    106 CB        -7.1691  -26.1691  -54.2758 C.3       19 UNK        -0.1800 
    107 C         -7.0185  -24.0650  -55.7309 C.2       19 UNK         0.5000 
    108 O         -6.0684  -24.5890  -56.3150 O.2       19 UNK        -0.5000 
    109 N         -7.6040  -22.9251  -56.1229 N.am      20 UNK        -0.5000 
    110 CA        -7.2874  -22.1076  -57.3008 C.3       20 UNK         0.1400 
    111 CB        -7.5272  -22.8971  -58.6055 C.3       20 UNK        -0.1800 
    112 C         -5.8956  -21.4387  -57.2502 C.2       20 UNK         0.5000 
    113 O         -5.3413  -21.0981  -58.2971 O.2       20 UNK        -0.5000 
    114 N         -5.3683  -21.2270  -56.0392 N.am      21 UNK        -0.5000 
    115 CA        -4.1243  -20.5156  -55.7717 C.3       21 UNK         0.1400 
    116 CB        -2.9348  -21.4893  -55.8122 C.3       21 UNK        -0.1800 
    117 C         -4.2587  -19.8392  -54.4034 C.2       21 UNK         0.5000 
    118 O         -4.5348  -20.5252  -53.4183 O.2       21 UNK        -0.5000 
    119 N         -4.0896  -18.5115  -54.3740 N.am      22 UNK        -0.5000 
    120 CA        -4.2468  -17.6525  -53.1863 C.3       22 UNK         0.1400 
    121 C         -5.6938  -17.6238  -52.5940 C.2       22 UNK         0.5000 
    122 N         -6.7256  -17.8480  -53.3996 N.am      22 UNK        -0.7600 
    123 O         -5.8976  -17.3787  -51.4089 O.2       22 UNK        -0.5000 
    124 C124       -3.1261  -17.8916  -52.1322 C.3       23 UNK        -0.0398 
    125 S125       -2.6926  -16.3656  -51.2266 S.3       23 UNK        -0.2404 
    126 C126       -1.4393  -15.6136  -52.3147 C.3       23 UNK        -0.0205 
    127 H127        6.2667  -17.4880  -49.3762 H         1 UNK         0.0600 
    128 H128        5.3737  -18.8030  -48.6088 H         1 UNK         0.0600 
    129 H129        6.9095  -18.2649  -47.9244 H         1 UNK         0.0600 
    130 H130        5.6393  -15.4112  -48.8095 H         1 UNK         0.3000 
    131 H131        3.5233  -14.9962  -46.9467 H         1 UNK         0.0600 
    132 H132        4.8306  -12.4737  -47.7941 H         1 UNK         0.0800 
    133 H133        4.6302  -13.5249  -49.1444 H         1 UNK         0.0800 
    134 H134        1.4316  -12.1085  -50.2194 H         1 UNK         0.0800 
    135 H135        3.0553  -12.6175  -50.5739 H         1 UNK         0.0800 
    136 H136       -0.2154  -13.4250  -51.2363 H         1 UNK         0.1150 
    137 H137        0.3385  -17.6194  -51.8869 H         1 UNK         0.1150 
    138 H138        3.3683  -15.3522  -49.8881 H         1 UNK         0.1150 
    139 H139        2.6310  -18.5616  -51.5015 H         1 UNK         0.0800 
    140 H140        3.8275  -17.6317  -50.6389 H         1 UNK         0.0800 
    141 H141        0.6492  -19.6444  -50.5374 H         1 UNK         0.0800 
    142 H142       -0.0271  -18.4569  -49.4478 H         1 UNK         0.0800 
    143 H143        0.8950  -21.2656  -48.6524 H         1 UNK         0.0600 
    144 H144        0.2047  -19.0746  -46.9665 H         1 UNK         0.3000 
    145 H145       -0.9032  -20.9819  -44.1504 H         1 UNK         0.0600 
    146 H146        0.8712  -19.5113  -43.1250 H         1 UNK         0.0600 
    147 H147        1.5336  -20.9371  -43.9081 H         1 UNK         0.0600 
    148 H148        1.6457  -19.3776  -44.7031 H         1 UNK         0.0600 
    149 H149       -0.6095  -18.1684  -44.8311 H         1 UNK         0.3000 
    150 H150       -3.8894  -17.7476  -46.0947 H         1 UNK         0.0600 
    151 H151       -4.5495  -17.8237  -43.7453 H         1 UNK         0.0600 
    152 H152       -4.1865  -16.1570  -44.1678 H         1 UNK         0.0600 
    153 H153       -3.0343  -17.1064  -43.2286 H         1 UNK         0.0600 
    154 H154       -1.8668  -15.9079  -45.2021 H         1 UNK         0.3000 
    155 H155        0.0917  -15.9832  -48.1801 H         1 UNK         0.0600 
    156 H156       -2.0215  -13.8931  -47.4077 H         1 UNK         0.0600 
    157 H157       -0.6066  -13.6029  -48.4189 H         1 UNK         0.0600 
    158 H158       -1.8826  -14.6689  -48.9788 H         1 UNK         0.0600 
    159 H159        0.0763  -14.0909  -46.1012 H         1 UNK         0.3000 
    160 H160        2.6126  -15.3942  -44.2697 H         1 UNK         0.0600 
    161 H161        0.4528  -13.2011  -44.2780 H         1 UNK         0.0600 
    162 H162        1.9171  -13.1786  -45.2559 H         1 UNK         0.0600 
    163 H163        2.0320  -13.1281  -43.5091 H         1 UNK         0.0600 
    164 H164        1.6339  -15.9785  -42.3627 H         1 UNK         0.3000 
    165 H165       -1.7232  -15.8368  -41.1004 H         1 UNK         0.0600 
    166 H166       -0.8672  -17.9627  -40.2033 H         1 UNK         0.0600 
    167 H167       -1.1088  -18.1201  -41.9357 H         1 UNK         0.0600 
    168 H168        0.5158  -17.9201  -41.2924 H         1 UNK         0.0600 
    169 H169        0.9116  -15.9508  -39.8915 H         1 UNK         0.3000 
    170 H170        1.2696  -12.5647  -39.1850 H         1 UNK         0.0600 
    171 H171        0.0503  -14.4839  -37.1264 H         1 UNK         0.0600 
    172 H172        1.0057  -13.0466  -36.7597 H         1 UNK         0.0600 
    173 H173       -0.5650  -12.8853  -37.5277 H         1 UNK         0.0600 
    174 H174        2.2868  -14.9978  -37.9758 H         1 UNK         0.3000 
    175 H175        5.2256  -14.7008  -39.0157 H         1 UNK         0.0600 
    176 H176        4.9728  -17.0549  -38.1810 H         1 UNK         0.0600 
    177 H177        3.2640  -17.0254  -38.5960 H         1 UNK         0.0600 
    178 H178        3.9008  -15.9528  -37.3466 H         1 UNK         0.0600 
    179 H179        5.8816  -15.7906  -40.8298 H         1 UNK         0.3000 
    180 H180        5.8485  -17.8978  -42.1481 H         1 UNK         0.0600 
    181 H181        4.8316  -18.8811  -44.1602 H         1 UNK         0.0600 
    182 H182        3.4130  -17.8485  -43.9969 H         1 UNK         0.0600 
    183 H183        3.7472  -19.0922  -42.7967 H         1 UNK         0.0600 
    184 H184        5.2927  -16.3974  -44.4968 H         1 UNK         0.3000 
    185 H185        7.0458  -13.5567  -44.0385 H         1 UNK         0.0600 
    186 H186        9.2380  -14.7133  -43.8033 H         1 UNK         0.0600 
    187 H187        8.7876  -15.8693  -45.0508 H         1 UNK         0.0600 
    188 H188        9.0059  -14.1657  -45.4541 H         1 UNK         0.0600 
    189 H189        6.8004  -15.3041  -46.3554 H         1 UNK         0.3000 
    190 H190       -2.1628  -19.4024  -48.2723 H         1 UNK         0.3000 
    191 H191       -3.7125  -20.8142  -50.1529 H         1 UNK         0.0600 
    192 H192       -4.3812  -18.6469  -49.1057 H         1 UNK         0.0600 
    193 H193       -5.6428  -19.8556  -48.9268 H         1 UNK         0.0600 
    194 H194       -4.6184  -19.4578  -47.5589 H         1 UNK         0.0600 
    195 H195       -3.2644  -21.4655  -46.6312 H         1 UNK         0.3000 
    196 H196       -4.9160  -23.7517  -46.4693 H         1 UNK         0.0600 
    197 H197       -3.6303  -24.2129  -44.3736 H         1 UNK         0.0600 
    198 H198       -4.1243  -22.5302  -44.4781 H         1 UNK         0.0600 
    199 H199       -2.4551  -22.9806  -44.8164 H         1 UNK         0.0600 
    200 H200       -1.3846  -23.4998  -47.1240 H         1 UNK         0.3000 
    201 H201       -0.8596  -26.2633  -47.4254 H         1 UNK         0.0600 
    202 H202        0.9180  -24.5754  -47.0858 H         1 UNK         0.0600 
    203 H203        0.5662  -23.8423  -48.6490 H         1 UNK         0.0600 
    204 H204        1.2201  -25.4735  -48.5654 H         1 UNK         0.0600 
    205 H205       -1.9346  -23.8294  -49.8031 H         1 UNK         0.3000 
    206 H206       -2.0118  -25.6437  -52.0625 H         1 UNK         0.0600 
    207 H207       -1.6021  -23.1964  -52.3098 H         1 UNK         0.0600 
    208 H208       -3.0269  -23.6979  -53.2043 H         1 UNK         0.0600 
    209 H209       -3.2099  -22.8529  -51.6731 H         1 UNK         0.0600 
    210 H210       -3.3501  -26.8488  -49.9690 H         1 UNK         0.3000 
    211 H211       -5.1705  -27.9572  -49.3400 H         1 UNK         0.0600 
    212 H212       -5.7745  -27.8595  -52.3394 H         1 UNK         0.0600 
    213 H213       -6.4214  -29.0373  -51.2038 H         1 UNK         0.0600 
    214 H214       -4.6987  -28.9982  -51.5366 H         1 UNK         0.0600 
    215 H215       -5.5311  -25.3667  -48.7156 H         1 UNK         0.3000 
    216 H216       -6.9703  -23.8567  -47.9715 H         1 UNK         0.0600 
    217 H217       -9.3019  -24.4566  -47.4605 H         1 UNK         0.0600 
    218 H218       -8.2327  -25.7756  -47.0110 H         1 UNK         0.0600 
    219 H219       -9.2082  -25.8869  -48.4753 H         1 UNK         0.0600 
    220 H220       -6.0468  -23.1567  -50.1547 H         1 UNK         0.3000 
    221 H221       -6.1150  -21.8289  -51.8899 H         1 UNK         0.0600 
    222 H222       -8.9224  -21.0346  -50.9542 H         1 UNK         0.0600 
    223 H223       -7.4125  -20.3680  -50.3379 H         1 UNK         0.0600 
    224 H224       -7.8728  -20.0976  -52.0074 H         1 UNK         0.0600 
    225 H225       -6.4293  -24.3301  -52.7235 H         1 UNK         0.3000 
    226 H226       -8.6843  -24.6881  -54.5328 H         1 UNK         0.0600 
    227 H227       -7.6199  -26.6044  -53.3838 H         1 UNK         0.0600 
    228 H228       -7.4853  -26.7713  -55.1282 H         1 UNK         0.0600 
    229 H229       -6.0867  -26.2673  -54.1880 H         1 UNK         0.0600 
    230 H230       -8.3207  -22.5501  -55.5091 H         1 UNK         0.3000 
    231 H231       -8.0045  -21.2859  -57.2872 H         1 UNK         0.0600 
    232 H232       -6.7941  -23.6929  -58.7395 H         1 UNK         0.0600 
    233 H233       -7.4605  -22.2441  -59.4764 H         1 UNK         0.0600 
    234 H234       -8.5194  -23.3483  -58.6173 H         1 UNK         0.0600 
    235 H235       -5.8810  -21.5211  -55.2192 H         1 UNK         0.3000 
    236 H236       -3.9723  -19.7447  -56.5304 H         1 UNK         0.0600 
    237 H237       -2.8139  -21.9220  -56.8054 H         1 UNK         0.0600 
    238 H238       -2.0033  -20.9806  -55.5613 H         1 UNK         0.0600 
    239 H239       -3.0648  -22.3092  -55.1062 H         1 UNK         0.0600 
    240 H240       -3.8816  -18.0274  -55.2359 H         1 UNK         0.3000 
    241 H241       -4.1064  -16.6451  -53.5796 H         1 UNK         0.0600 
    242 H242       -6.5865  -18.0337  -54.3794 H         1 UNK         0.3800 
    243 H243       -7.6592  -17.8138  -53.0230 H         1 UNK         0.3800 
    244 H244       -3.4223  -18.6608  -51.4183 H         1 UNK         0.0800 
    245 H245       -2.2210  -18.2717  -52.6074 H         1 UNK         0.0800 
    246 H246       -1.3464  -16.1734  -53.2463 H         1 UNK         0.0800 
    247 H247       -1.7805  -14.6168  -52.5978 H         1 UNK         0.0800 
@<TRIPOS>BOND
     1    1    2 1    
     2    1  127 1    
     3    1  128 1    
     4    1  129 1    
     5    2    3 2    
     6    2    4 am   BACKBONE|DICT|INTERRES
     7    4    5 1    
     8    4  130 1    
     9    5    6 1    
    10    5   65 1    
    11    5  131 1    
    12    6    7 1    
    13    6  132 1    
    14    6  133 1    
    15    7    8 1    
    16    8    9 1    
    17    8  134 1    
    18    8  135 1    
    19    9   10 ar   
    20    9   14 ar   
    21   10   11 ar   
    22   10  136 1    
    23   11   12 ar   
    24   11  126 1    
    25   12   13 ar   
    26   12  137 1    
    27   13   14 ar   
    28   13   15 1    
    29   14  138 1    
    30   15   16 1    
    31   15  139 1    
    32   15  140 1    
    33   16   17 1    
    34   17   18 1    
    35   17  141 1    
    36   17  142 1    
    37   18   19 1    
    38   18   67 1    
    39   18  143 1    
    40   19   20 am   BACKBONE|DICT|INTERRES
    41   19  144 1    
    42   20   21 2    
    43   20   22 1    
    44   22   23 1    
    45   22   24 1    
    46   22  145 1    
    47   23  146 1    
    48   23  147 1    
    49   23  148 1    
    50   24   25 am   BACKBONE|DICT|INTERRES
    51   24  149 1    
    52   25   26 2    
    53   25   27 1    
    54   27   28 1    
    55   27   29 1    
    56   27  150 1    
    57   28  151 1    
    58   28  152 1    
    59   28  153 1    
    60   29   30 am   BACKBONE|DICT|INTERRES
    61   29  154 1    
    62   30   31 2    
    63   30   32 1    
    64   32   33 1    
    65   32   34 1    
    66   32  155 1    
    67   33  156 1    
    68   33  157 1    
    69   33  158 1    
    70   34   35 am   BACKBONE|DICT|INTERRES
    71   34  159 1    
    72   35   36 2    
    73   35   37 1    
    74   37   38 1    
    75   37   39 1    
    76   37  160 1    
    77   38  161 1    
    78   38  162 1    
    79   38  163 1    
    80   39   40 am   BACKBONE|DICT|INTERRES
    81   39  164 1    
    82   40   41 2    
    83   40   42 1    
    84   42   43 1    
    85   42   44 1    
    86   42  165 1    
    87   43  166 1    
    88   43  167 1    
    89   43  168 1    
    90   44   45 am   BACKBONE|DICT|INTERRES
    91   44  169 1    
    92   45   46 2    
    93   45   47 1    
    94   47   48 1    
    95   47   49 1    
    96   47  170 1    
    97   48  171 1    
    98   48  172 1    
    99   48  173 1    
   100   49   50 am   BACKBONE|DICT|INTERRES
   101   49  174 1    
   102   50   51 2    
   103   50   52 1    
   104   52   53 1    
   105   52   54 1    
   106   52  175 1    
   107   53  176 1    
   108   53  177 1    
   109   53  178 1    
   110   54   55 am   BACKBONE|DICT|INTERRES
   111   54  179 1    
   112   55   56 2    
   113   55   57 1    
   114   57   58 1    
   115   57   59 1    
   116   57  180 1    
   117   58  181 1    
   118   58  182 1    
   119   58  183 1    
   120   59   60 am   BACKBONE|DICT|INTERRES
   121   59  184 1    
   122   60   61 2    
   123   60   62 1    
   124   62   63 1    
   125   62   64 1    
   126   62  185 1    
   127   63  186 1    
   128   63  187 1    
   129   63  188 1    
   130   64   65 am   BACKBONE|DICT|INTERRES
   131   64  189 1    
   132   65   66 2    
   133   67   68 2    
   134   67   69 am   BACKBONE|DICT|INTERRES
   135   69   70 1    
   136   69  190 1    
   137   70   71 1    
   138   70   72 1    
   139   70  191 1    
   140   71  192 1    
   141   71  193 1    
   142   71  194 1    
   143   72   73 2    
   144   72   74 am   BACKBONE|DICT|INTERRES
   145   74   75 1    
   146   74  195 1    
   147   75   76 1    
   148   75   77 1    
   149   75  196 1    
   150   76  197 1    
   151   76  198 1    
   152   76  199 1    
   153   77   78 2    
   154   77   79 am   BACKBONE|DICT|INTERRES
   155   79   80 1    
   156   79  200 1    
   157   80   81 1    
   158   80   82 1    
   159   80  201 1    
   160   81  202 1    
   161   81  203 1    
   162   81  204 1    
   163   82   83 2    
   164   82   84 am   BACKBONE|DICT|INTERRES
   165   84   85 1    
   166   84  205 1    
   167   85   86 1    
   168   85   87 1    
   169   85  206 1    
   170   86  207 1    
   171   86  208 1    
   172   86  209 1    
   173   87   88 2    
   174   87   89 am   BACKBONE|DICT|INTERRES
   175   89   90 1    
   176   89  210 1    
   177   90   91 1    
   178   90   92 1    
   179   90  211 1    
   180   91  212 1    
   181   91  213 1    
   182   91  214 1    
   183   92   93 2    
   184   92   94 am   BACKBONE|DICT|INTERRES
   185   94   95 1    
   186   94  215 1    
   187   95   96 1    
   188   95   97 1    
   189   95  216 1    
   190   96  217 1    
   191   96  218 1    
   192   96  219 1    
   193   97   98 2    
   194   97   99 am   BACKBONE|DICT|INTERRES
   195   99  100 1    
   196   99  220 1    
   197  100  101 1    
   198  100  102 1    
   199  100  221 1    
   200  101  222 1    
   201  101  223 1    
   202  101  224 1    
   203  102  103 2    
   204  102  104 am   BACKBONE|DICT|INTERRES
   205  104  105 1    
   206  104  225 1    
   207  105  106 1    
   208  105  107 1    
   209  105  226 1    
   210  106  227 1    
   211  106  228 1    
   212  106  229 1    
   213  107  108 2    
   214  107  109 am   BACKBONE|DICT|INTERRES
   215  109  110 1    
   216  109  230 1    
   217  110  111 1    
   218  110  112 1    
   219  110  231 1    
   220  111  232 1    
   221  111  233 1    
   222  111  234 1    
   223  112  113 2    
   224  112  114 am   BACKBONE|DICT|INTERRES
   225  114  115 1    
   226  114  235 1    
   227  115  116 1    
   228  115  117 1    
   229  115  236 1    
   230  116  237 1    
   231  116  238 1    
   232  116  239 1    
   233  117  118 2    
   234  117  119 am   BACKBONE|DICT|INTERRES
   235  119  120 1    
   236  119  240 1    
   237  120  121 1    
   238  120  124 1    
   239  120  241 1    
   240  121  122 am   BACKBONE|DICT|INTERRES
   241  121  123 2    
   242  122  242 1    
   243  122  243 1    
   244  124  125 1    
   245  124  244 1    
   246  124  245 1    
   247  125  126 1    
   248  126  246 1    
   249  126  247 1    
@<TRIPOS>SUBSTRUCTURE
     1 UNK         1 GROUP             0       ****    0 ROOT    
