@<TRIPOS>MOLECULE
3R540
247   249    1
SMALL
USER_CHARGES


@<TRIPOS>ATOM
      1 CA          1.2111  -12.4020  -52.2693 C.3       0 UNK        -0.1800 
      2 C           0.9268  -12.4415  -50.7742 C.2       0 UNK         0.5000 
      3 O           0.6422  -11.4044  -50.1746 O.2       0 UNK        -0.5000 
      4 N           1.0102  -13.6325  -50.1721 N.am      1 UNK        -0.5000 
      5 CA          0.7120  -13.8821  -48.7612 C.3       1 UNK         0.1400 
      6 C6          1.2566  -15.2570  -48.2994 C.3       23 UNK        -0.0398 
      7 S7          3.0637  -15.2639  -48.0417 S.3       23 UNK        -0.2404 
      8 C8          3.7254  -15.7518  -49.6685 C.3       23 UNK        -0.0205 
      9 C9          3.1084  -17.0375  -50.1980 C.ar      23 UNK        -0.0193 
     10 C10         2.2857  -17.0033  -51.3283 C.ar      23 UNK        -0.1150 
     11 C11         1.7024  -18.1747  -51.8153 C.ar      23 UNK        -0.0193 
     12 C12         1.9554  -19.3879  -51.1732 C.ar      23 UNK        -0.1150 
     13 C13         2.7773  -19.4353  -50.0449 C.ar      23 UNK        -0.0193 
     14 C14         3.3527  -18.2577  -49.5592 C.ar      23 UNK        -0.1150 
     15 C15         3.0401  -20.7677  -49.3688 C.3       23 UNK        -0.0205 
     16 S16         1.6157  -21.2861  -48.3662 S.3       23 UNK        -0.2404 
     17 C17         1.8783  -23.0913  -48.3873 C.3       23 UNK        -0.0398 
     18 CA          1.1259  -23.8758  -47.2857 C.3       11 UNK         0.1400 
     19 N           1.5718  -23.4904  -45.9448 N.am      11 UNK        -0.5000 
     20 C           2.3614  -24.2348  -45.1611 C.2       10 UNK         0.5000 
     21 O           2.8035  -25.3390  -45.4870 O.2       10 UNK        -0.5000 
     22 CA          2.7193  -23.6343  -43.7882 C.3       10 UNK         0.1400 
     23 CB          3.5919  -24.5609  -42.9160 C.3       10 UNK        -0.1800 
     24 N           3.3247  -22.3083  -43.9068 N.am      10 UNK        -0.5000 
     25 C           4.4806  -21.9560  -44.4868 C.2       9 UNK         0.5000 
     26 O           5.2625  -22.7475  -45.0144 O.2       9 UNK        -0.5000 
     27 CA          4.8290  -20.4510  -44.4632 C.3       9 UNK         0.1400 
     28 CB          4.4944  -19.8017  -45.8150 C.3       9 UNK        -0.1800 
     29 N           4.1420  -19.7164  -43.3955 N.am      9 UNK        -0.5000 
     30 C           4.4144  -19.8336  -42.0872 C.2       8 UNK         0.5000 
     31 O           5.3508  -20.4972  -41.6406 O.2       8 UNK        -0.5000 
     32 CA          3.4500  -19.1303  -41.1117 C.3       8 UNK         0.1400 
     33 CB          3.8377  -17.6580  -40.9060 C.3       8 UNK        -0.1800 
     34 N           2.0567  -19.2196  -41.5541 N.am      8 UNK        -0.5000 
     35 C           1.3388  -20.3525  -41.5616 C.2       7 UNK         0.5000 
     36 O           1.7498  -21.4254  -41.1208 O.2       7 UNK        -0.5000 
     37 CA         -0.0542  -20.2927  -42.2108 C.3       7 UNK         0.1400 
     38 CB         -1.1123  -19.8484  -41.1898 C.3       7 UNK        -0.1800 
     39 N          -0.0824  -19.4144  -43.3821 N.am      7 UNK        -0.5000 
     40 C           0.5263  -19.6863  -44.5465 C.2       6 UNK         0.5000 
     41 O           1.0955  -20.7513  -44.7762 O.2       6 UNK        -0.5000 
     42 CA          0.5262  -18.5856  -45.6235 C.3       6 UNK         0.1400 
     43 CB         -0.6880  -18.7315  -46.5443 C.3       6 UNK        -0.1800 
     44 N           0.5480  -17.2396  -45.0562 N.am      6 UNK        -0.5000 
     45 C           1.5626  -16.7317  -44.3453 C.2       5 UNK         0.5000 
     46 O           2.6223  -17.3265  -44.1533 O.2       5 UNK        -0.5000 
     47 CA          1.3191  -15.3687  -43.6750 C.3       5 UNK         0.1400 
     48 CB          1.6158  -14.2051  -44.6317 C.3       5 UNK        -0.1800 
     49 N          -0.0514  -15.2561  -43.1727 N.am      5 UNK        -0.5000 
     50 C          -0.4957  -15.8673  -42.0665 C.2       4 UNK         0.5000 
     51 O           0.2231  -16.5474  -41.3342 O.2       4 UNK        -0.5000 
     52 CA         -1.9944  -15.7153  -41.7378 C.3       4 UNK         0.1400 
     53 CB         -2.2413  -14.4281  -40.9373 C.3       4 UNK        -0.1800 
     54 N          -2.8474  -15.7130  -42.9293 N.am      4 UNK        -0.5000 
     55 C          -3.0739  -16.7875  -43.6987 C.2       3 UNK         0.5000 
     56 O          -2.6059  -17.8995  -43.4638 O.2       3 UNK        -0.5000 
     57 CA         -3.9158  -16.5751  -44.9754 C.3       3 UNK         0.1400 
     58 CB         -5.4099  -16.7702  -44.6801 C.3       3 UNK        -0.1800 
     59 N          -3.7079  -15.2738  -45.6245 N.am      3 UNK        -0.5000 
     60 C          -2.5187  -14.8232  -46.0446 C.2       2 UNK         0.5000 
     61 O          -1.4646  -15.4374  -45.8624 O.2       2 UNK        -0.5000 
     62 CA         -2.4855  -13.4423  -46.7291 C.3       2 UNK         0.1400 
     63 CB         -2.7047  -12.3257  -45.6956 C.3       2 UNK        -0.1800 
     64 N          -1.1852  -13.2352  -47.3670 N.am      2 UNK        -0.5000 
     65 C          -0.8070  -13.8214  -48.5090 C.2       1 UNK         0.5000 
     66 O          -1.5858  -14.3613  -49.2986 O.2       1 UNK        -0.5000 
     67 C          -0.4093  -23.7832  -47.4133 C.2       11 UNK         0.5000 
     68 O          -1.0748  -23.1923  -46.5590 O.2       11 UNK        -0.5000 
     69 N          -0.9423  -24.3859  -48.4887 N.am      12 UNK        -0.5000 
     70 CA         -2.3712  -24.5876  -48.7671 C.3       12 UNK         0.1400 
     71 CB         -2.5160  -25.3364  -50.1008 C.3       12 UNK        -0.1800 
     72 C          -3.2350  -23.3135  -48.7880 C.2       12 UNK         0.5000 
     73 O          -4.4237  -23.3866  -48.4708 O.2       12 UNK        -0.5000 
     74 N          -2.6235  -22.1661  -49.1133 N.am      13 UNK        -0.5000 
     75 CA         -3.2521  -20.8424  -49.0910 C.3       13 UNK         0.1400 
     76 CB         -2.2758  -19.8093  -49.6774 C.3       13 UNK        -0.1800 
     77 C          -3.7672  -20.4166  -47.6978 C.2       13 UNK         0.5000 
     78 O          -4.6601  -19.5743  -47.6205 O.2       13 UNK        -0.5000 
     79 N          -3.2428  -21.0311  -46.6257 N.am      14 UNK        -0.5000 
     80 CA         -3.7205  -20.8613  -45.2533 C.3       14 UNK         0.1400 
     81 CB         -2.7654  -21.5897  -44.2988 C.3       14 UNK        -0.1800 
     82 C          -5.1459  -21.4022  -45.0522 C.2       14 UNK         0.5000 
     83 O          -5.9572  -20.7604  -44.3851 O.2       14 UNK        -0.5000 
     84 N          -5.4108  -22.5822  -45.6268 N.am      15 UNK        -0.5000 
     85 CA         -6.6884  -23.2815  -45.5293 C.3       15 UNK         0.1400 
     86 CB         -6.4422  -24.7940  -45.6443 C.3       15 UNK        -0.1800 
     87 C          -7.6699  -22.8101  -46.6111 C.2       15 UNK         0.5000 
     88 O          -8.8568  -22.6458  -46.3268 O.2       15 UNK        -0.5000 
     89 N          -7.1580  -22.6077  -47.8322 N.am      16 UNK        -0.5000 
     90 CA         -7.9456  -22.2136  -48.9978 C.3       16 UNK         0.1400 
     91 CB         -7.1232  -22.4888  -50.2643 C.3       16 UNK        -0.1800 
     92 C          -8.3862  -20.7402  -48.9752 C.2       16 UNK         0.5000 
     93 O          -9.3861  -20.4110  -49.6131 O.2       16 UNK        -0.5000 
     94 N          -7.6055  -19.8737  -48.3106 N.am      17 UNK        -0.5000 
     95 CA         -7.6928  -18.4044  -48.2507 C.3       17 UNK         0.1400 
     96 CB         -9.0435  -17.9351  -47.6780 C.3       17 UNK        -0.1800 
     97 C          -7.3641  -17.6947  -49.5836 C.2       17 UNK         0.5000 
     98 O          -6.7972  -16.6013  -49.5653 O.2       17 UNK        -0.5000 
     99 N          -7.7019  -18.3326  -50.7097 N.am      18 UNK        -0.5000 
    100 CA        -7.2950  -17.9891  -52.0688 C.3       18 UNK         0.1400 
    101 CB        -8.1760  -18.7927  -53.0416 C.3       18 UNK        -0.1800 
    102 C         -5.7988  -18.2759  -52.3193 C.2       18 UNK         0.5000 
    103 O         -5.1180  -18.8490  -51.4658 O.2       18 UNK        -0.5000 
    104 N         -5.3245  -17.8869  -53.5114 N.am      19 UNK        -0.5000 
    105 CA        -3.9353  -18.0110  -53.9664 C.3       19 UNK         0.1400 
    106 CB        -3.8185  -17.3852  -55.3641 C.3       19 UNK        -0.1800 
    107 C         -3.3779  -19.4496  -53.9658 C.2       19 UNK         0.5000 
    108 O         -2.1847  -19.6223  -53.7201 O.2       19 UNK        -0.5000 
    109 N         -4.2508  -20.4414  -54.2038 N.am      20 UNK        -0.5000 
    110 CA        -4.0180  -21.8867  -54.1030 C.3       20 UNK         0.1400 
    111 CB        -3.9366  -22.3034  -52.6186 C.3       20 UNK        -0.1800 
    112 C         -2.8123  -22.3761  -54.9321 C.2       20 UNK         0.5000 
    113 O         -2.9686  -22.6612  -56.1199 O.2       20 UNK        -0.5000 
    114 N         -1.6424  -22.4744  -54.2864 N.am      21 UNK        -0.5000 
    115 CA        -0.3691  -22.8693  -54.8852 C.3       21 UNK         0.1400 
    116 CB         0.6419  -23.1373  -53.7586 C.3       21 UNK        -0.1800 
    117 C          0.1910  -21.8289  -55.8747 C.2       21 UNK         0.5000 
    118 O          0.8917  -22.2117  -56.8131 O.2       21 UNK        -0.5000 
    119 N         -0.1182  -20.5454  -55.6535 N.am      22 UNK        -0.5000 
    120 CA         0.2492  -19.4413  -56.5495 C.3       22 UNK         0.1400 
    121 C         -0.7558  -19.3195  -57.7260 C.2       22 UNK         0.5000 
    122 N         -0.2770  -19.0626  -58.9356 N.am      22 UNK        -0.7600 
    123 O         -1.9677  -19.4118  -57.5475 O.2       22 UNK        -0.5000 
    124 C124        0.3657  -18.0972  -55.7902 C.3       23 UNK        -0.0398 
    125 S125        1.7269  -18.0966  -54.5756 S.3       23 UNK        -0.2404 
    126 C126        0.7851  -18.1300  -53.0229 C.3       23 UNK        -0.0205 
    127 H127        1.4600  -13.3884  -52.6618 H         1 UNK         0.0600 
    128 H128        2.0476  -11.7340  -52.4746 H         1 UNK         0.0600 
    129 H129        0.3381  -12.0325  -52.8074 H         1 UNK         0.0600 
    130 H130        1.2057  -14.4524  -50.7245 H         1 UNK         0.3000 
    131 H131        1.1903  -13.1003  -48.1665 H         1 UNK         0.0600 
    132 H132        0.8227  -15.5412  -47.3406 H         1 UNK         0.0800 
    133 H133        0.9541  -16.0496  -48.9840 H         1 UNK         0.0800 
    134 H134        4.8043  -15.8861  -49.5810 H         1 UNK         0.0800 
    135 H135        3.5807  -14.9309  -50.3720 H         1 UNK         0.0800 
    136 H136        2.0961  -16.0678  -51.8343 H         1 UNK         0.1150 
    137 H137        1.5065  -20.2980  -51.5457 H         1 UNK         0.1150 
    138 H138        3.9841  -18.2865  -48.6821 H         1 UNK         0.1150 
    139 H139        3.2471  -21.5155  -50.1360 H         1 UNK         0.0800 
    140 H140        3.9287  -20.7181  -48.7388 H         1 UNK         0.0800 
    141 H141        2.9474  -23.2836  -48.2834 H         1 UNK         0.0800 
    142 H142        1.6097  -23.4644  -49.3767 H         1 UNK         0.0800 
    143 H143        1.3521  -24.9323  -47.4429 H         1 UNK         0.0600 
    144 H144        1.2380  -22.5896  -45.6114 H         1 UNK         0.3000 
    145 H145        1.7740  -23.4887  -43.2632 H         1 UNK         0.0600 
    146 H146        3.7898  -24.1104  -41.9432 H         1 UNK         0.0600 
    147 H147        3.0903  -25.5125  -42.7373 H         1 UNK         0.0600 
    148 H148        4.5512  -24.7804  -43.3854 H         1 UNK         0.0600 
    149 H149        2.7309  -21.5492  -43.5996 H         1 UNK         0.3000 
    150 H150        5.9047  -20.3612  -44.2986 H         1 UNK         0.0600 
    151 H151        5.0829  -20.2510  -46.6153 H         1 UNK         0.0600 
    152 H152        4.7122  -18.7334  -45.8103 H         1 UNK         0.0600 
    153 H153        3.4431  -19.9293  -46.0721 H         1 UNK         0.0600 
    154 H154        3.4092  -19.0738  -43.6809 H         1 UNK         0.3000 
    155 H155        3.5292  -19.6341  -40.1460 H         1 UNK         0.0600 
    156 H156        4.8490  -17.5761  -40.5060 H         1 UNK         0.0600 
    157 H157        3.1670  -17.1688  -40.1993 H         1 UNK         0.0600 
    158 H158        3.8099  -17.0938  -41.8376 H         1 UNK         0.0600 
    159 H159        1.6341  -18.3733  -41.9123 H         1 UNK         0.3000 
    160 H160       -0.3066  -21.3034  -42.5375 H         1 UNK         0.0600 
    161 H161       -0.9098  -18.8507  -40.8026 H         1 UNK         0.0600 
    162 H162       -1.1392  -20.5291  -40.3382 H         1 UNK         0.0600 
    163 H163       -2.1097  -19.8391  -41.6277 H         1 UNK         0.0600 
    164 H164       -0.6290  -18.5651  -43.3033 H         1 UNK         0.3000 
    165 H165        1.4252  -18.7101  -46.2298 H         1 UNK         0.0600 
    166 H166       -0.6488  -18.0215  -47.3706 H         1 UNK         0.0600 
    167 H167       -0.7195  -19.7344  -46.9690 H         1 UNK         0.0600 
    168 H168       -1.6213  -18.5738  -46.0059 H         1 UNK         0.0600 
    169 H169       -0.2758  -16.6627  -45.2116 H         1 UNK         0.3000 
    170 H170        2.0090  -15.2899  -42.8319 H         1 UNK         0.0600 
    171 H171        2.6180  -14.2913  -45.0534 H         1 UNK         0.0600 
    172 H172        0.9103  -14.1712  -45.4597 H         1 UNK         0.0600 
    173 H173        1.5634  -13.2486  -44.1118 H         1 UNK         0.0600 
    174 H174       -0.7154  -14.7802  -43.7660 H         1 UNK         0.3000 
    175 H175       -2.2830  -16.5639  -41.1137 H         1 UNK         0.0600 
    176 H176       -1.6334  -14.4092  -40.0316 H         1 UNK         0.0600 
    177 H177       -1.9943  -13.5379  -41.5172 H         1 UNK         0.0600 
    178 H178       -3.2839  -14.3497  -40.6287 H         1 UNK         0.0600 
    179 H179       -3.2672  -14.8339  -43.1925 H         1 UNK         0.3000 
    180 H180       -3.6176  -17.3419  -45.6927 H         1 UNK         0.0600 
    181 H181       -5.5937  -17.7479  -44.2318 H         1 UNK         0.0600 
    182 H182       -5.7870  -16.0145  -43.9901 H         1 UNK         0.0600 
    183 H183       -6.0025  -16.7192  -45.5936 H         1 UNK         0.0600 
    184 H184       -4.5325  -14.7146  -45.7883 H         1 UNK         0.3000 
    185 H185       -3.2753  -13.3998  -47.4819 H         1 UNK         0.0600 
    186 H186       -3.6837  -12.4110  -45.2226 H         1 UNK         0.0600 
    187 H187       -1.9540  -12.3532  -44.9044 H         1 UNK         0.0600 
    188 H188       -2.6597  -11.3424  -46.1645 H         1 UNK         0.0600 
    189 H189       -0.4758  -12.8212  -46.7811 H         1 UNK         0.3000 
    190 H190       -0.3154  -24.8371  -49.1388 H         1 UNK         0.3000 
    191 H191       -2.7666  -25.2244  -47.9733 H         1 UNK         0.0600 
    192 H192       -2.0897  -24.7687  -50.9290 H         1 UNK         0.0600 
    193 H193       -3.5655  -25.5206  -50.3358 H         1 UNK         0.0600 
    194 H194       -2.0191  -26.3061  -50.0664 H         1 UNK         0.0600 
    195 H195       -1.6387  -22.1966  -49.3315 H         1 UNK         0.3000 
    196 H196       -4.1247  -20.8792  -49.7452 H         1 UNK         0.0600 
    197 H197       -2.6696  -18.7964  -49.5813 H         1 UNK         0.0600 
    198 H198       -2.1115  -19.9863  -50.7404 H         1 UNK         0.0600 
    199 H199       -1.3042  -19.8371  -49.1861 H         1 UNK         0.0600 
    200 H200       -2.5085  -21.7185  -46.7624 H         1 UNK         0.3000 
    201 H201       -3.7142  -19.7964  -45.0177 H         1 UNK         0.0600 
    202 H202       -2.9909  -21.3467  -43.2607 H         1 UNK         0.0600 
    203 H203       -2.8292  -22.6734  -44.4052 H         1 UNK         0.0600 
    204 H204       -1.7337  -21.3120  -44.4921 H         1 UNK         0.0600 
    205 H205       -4.7021  -23.0095  -46.2074 H         1 UNK         0.3000 
    206 H206       -7.1379  -23.0849  -44.5534 H         1 UNK         0.0600 
    207 H207       -5.7894  -25.1478  -44.8462 H         1 UNK         0.0600 
    208 H208       -7.3784  -25.3486  -45.5682 H         1 UNK         0.0600 
    209 H209       -5.9800  -25.0580  -46.5966 H         1 UNK         0.0600 
    210 H210       -6.1746  -22.8089  -47.9941 H         1 UNK         0.3000 
    211 H211       -8.8457  -22.8310  -49.0331 H         1 UNK         0.0600 
    212 H212       -7.6930  -22.2546  -51.1644 H         1 UNK         0.0600 
    213 H213       -6.8268  -23.5361  -50.3273 H         1 UNK         0.0600 
    214 H214       -6.2185  -21.8822  -50.2802 H         1 UNK         0.0600 
    215 H215       -6.7701  -20.2458  -47.8760 H         1 UNK         0.3000 
    216 H216       -6.9205  -18.0982  -47.5440 H         1 UNK         0.0600 
    217 H217       -9.0381  -16.8573  -47.5114 H         1 UNK         0.0600 
    218 H218       -9.2518  -18.4113  -46.7199 H         1 UNK         0.0600 
    219 H219       -9.8729  -18.1535  -48.3507 H         1 UNK         0.0600 
    220 H220       -8.2131  -19.2006  -50.6001 H         1 UNK         0.3000 
    221 H221       -7.4704  -16.9228  -52.2237 H         1 UNK         0.0600 
    222 H222       -8.0084  -19.8660  -52.9405 H         1 UNK         0.0600 
    223 H223       -9.2345  -18.6030  -52.8616 H         1 UNK         0.0600 
    224 H224       -7.9761  -18.5243  -54.0793 H         1 UNK         0.0600 
    225 H225       -5.9572  -17.4333  -54.1543 H         1 UNK         0.3000 
    226 H226       -3.3172  -17.4288  -53.2797 H         1 UNK         0.0600 
    227 H227       -2.7922  -17.4187  -55.7272 H         1 UNK         0.0600 
    228 H228       -4.4371  -17.9109  -56.0926 H         1 UNK         0.0600 
    229 H229       -4.1221  -16.3382  -55.3565 H         1 UNK         0.0600 
    230 H230       -5.1972  -20.1726  -54.4290 H         1 UNK         0.3000 
    231 H231       -4.8988  -22.3707  -54.5279 H         1 UNK         0.0600 
    232 H232       -4.8661  -22.0647  -52.1061 H         1 UNK         0.0600 
    233 H233       -3.1332  -21.7939  -52.0870 H         1 UNK         0.0600 
    234 H234       -3.7777  -23.3776  -52.5156 H         1 UNK         0.0600 
    235 H235       -1.6107  -22.1659  -53.3261 H         1 UNK         0.3000 
    236 H236       -0.5269  -23.7995  -55.4350 H         1 UNK         0.0600 
    237 H237        0.2888  -23.9210  -53.0881 H         1 UNK         0.0600 
    238 H238        1.6002  -23.4646  -54.1640 H         1 UNK         0.0600 
    239 H239        0.8267  -22.2422  -53.1630 H         1 UNK         0.0600 
    240 H240       -0.7594  -20.3161  -54.9004 H         1 UNK         0.3000 
    241 H241        1.2320  -19.6585  -56.9734 H         1 UNK         0.0600 
    242 H242        0.7132  -18.9753  -59.1073 H         1 UNK         0.3800 
    243 H243       -0.9212  -18.9659  -59.7053 H         1 UNK         0.3800 
    244 H244        0.5594  -17.2816  -56.4892 H         1 UNK         0.0800 
    245 H245       -0.5729  -17.8523  -55.2931 H         1 UNK         0.0800 
    246 H246        0.1380  -19.0057  -53.0190 H         1 UNK         0.0800 
    247 H247        0.1332  -17.2572  -52.9637 H         1 UNK         0.0800 
@<TRIPOS>BOND
     1    1    2 1    
     2    1  127 1    
     3    1  128 1    
     4    1  129 1    
     5    2    3 2    
     6    2    4 am   BACKBONE|DICT|INTERRES
     7    4    5 1    
     8    4  130 1    
     9    5    6 1    
    10    5   65 1    
    11    5  131 1    
    12    6    7 1    
    13    6  132 1    
    14    6  133 1    
    15    7    8 1    
    16    8    9 1    
    17    8  134 1    
    18    8  135 1    
    19    9   10 ar   
    20    9   14 ar   
    21   10   11 ar   
    22   10  136 1    
    23   11   12 ar   
    24   11  126 1    
    25   12   13 ar   
    26   12  137 1    
    27   13   14 ar   
    28   13   15 1    
    29   14  138 1    
    30   15   16 1    
    31   15  139 1    
    32   15  140 1    
    33   16   17 1    
    34   17   18 1    
    35   17  141 1    
    36   17  142 1    
    37   18   19 1    
    38   18   67 1    
    39   18  143 1    
    40   19   20 am   BACKBONE|DICT|INTERRES
    41   19  144 1    
    42   20   21 2    
    43   20   22 1    
    44   22   23 1    
    45   22   24 1    
    46   22  145 1    
    47   23  146 1    
    48   23  147 1    
    49   23  148 1    
    50   24   25 am   BACKBONE|DICT|INTERRES
    51   24  149 1    
    52   25   26 2    
    53   25   27 1    
    54   27   28 1    
    55   27   29 1    
    56   27  150 1    
    57   28  151 1    
    58   28  152 1    
    59   28  153 1    
    60   29   30 am   BACKBONE|DICT|INTERRES
    61   29  154 1    
    62   30   31 2    
    63   30   32 1    
    64   32   33 1    
    65   32   34 1    
    66   32  155 1    
    67   33  156 1    
    68   33  157 1    
    69   33  158 1    
    70   34   35 am   BACKBONE|DICT|INTERRES
    71   34  159 1    
    72   35   36 2    
    73   35   37 1    
    74   37   38 1    
    75   37   39 1    
    76   37  160 1    
    77   38  161 1    
    78   38  162 1    
    79   38  163 1    
    80   39   40 am   BACKBONE|DICT|INTERRES
    81   39  164 1    
    82   40   41 2    
    83   40   42 1    
    84   42   43 1    
    85   42   44 1    
    86   42  165 1    
    87   43  166 1    
    88   43  167 1    
    89   43  168 1    
    90   44   45 am   BACKBONE|DICT|INTERRES
    91   44  169 1    
    92   45   46 2    
    93   45   47 1    
    94   47   48 1    
    95   47   49 1    
    96   47  170 1    
    97   48  171 1    
    98   48  172 1    
    99   48  173 1    
   100   49   50 am   BACKBONE|DICT|INTERRES
   101   49  174 1    
   102   50   51 2    
   103   50   52 1    
   104   52   53 1    
   105   52   54 1    
   106   52  175 1    
   107   53  176 1    
   108   53  177 1    
   109   53  178 1    
   110   54   55 am   BACKBONE|DICT|INTERRES
   111   54  179 1    
   112   55   56 2    
   113   55   57 1    
   114   57   58 1    
   115   57   59 1    
   116   57  180 1    
   117   58  181 1    
   118   58  182 1    
   119   58  183 1    
   120   59   60 am   BACKBONE|DICT|INTERRES
   121   59  184 1    
   122   60   61 2    
   123   60   62 1    
   124   62   63 1    
   125   62   64 1    
   126   62  185 1    
   127   63  186 1    
   128   63  187 1    
   129   63  188 1    
   130   64   65 am   BACKBONE|DICT|INTERRES
   131   64  189 1    
   132   65   66 2    
   133   67   68 2    
   134   67   69 am   BACKBONE|DICT|INTERRES
   135   69   70 1    
   136   69  190 1    
   137   70   71 1    
   138   70   72 1    
   139   70  191 1    
   140   71  192 1    
   141   71  193 1    
   142   71  194 1    
   143   72   73 2    
   144   72   74 am   BACKBONE|DICT|INTERRES
   145   74   75 1    
   146   74  195 1    
   147   75   76 1    
   148   75   77 1    
   149   75  196 1    
   150   76  197 1    
   151   76  198 1    
   152   76  199 1    
   153   77   78 2    
   154   77   79 am   BACKBONE|DICT|INTERRES
   155   79   80 1    
   156   79  200 1    
   157   80   81 1    
   158   80   82 1    
   159   80  201 1    
   160   81  202 1    
   161   81  203 1    
   162   81  204 1    
   163   82   83 2    
   164   82   84 am   BACKBONE|DICT|INTERRES
   165   84   85 1    
   166   84  205 1    
   167   85   86 1    
   168   85   87 1    
   169   85  206 1    
   170   86  207 1    
   171   86  208 1    
   172   86  209 1    
   173   87   88 2    
   174   87   89 am   BACKBONE|DICT|INTERRES
   175   89   90 1    
   176   89  210 1    
   177   90   91 1    
   178   90   92 1    
   179   90  211 1    
   180   91  212 1    
   181   91  213 1    
   182   91  214 1    
   183   92   93 2    
   184   92   94 am   BACKBONE|DICT|INTERRES
   185   94   95 1    
   186   94  215 1    
   187   95   96 1    
   188   95   97 1    
   189   95  216 1    
   190   96  217 1    
   191   96  218 1    
   192   96  219 1    
   193   97   98 2    
   194   97   99 am   BACKBONE|DICT|INTERRES
   195   99  100 1    
   196   99  220 1    
   197  100  101 1    
   198  100  102 1    
   199  100  221 1    
   200  101  222 1    
   201  101  223 1    
   202  101  224 1    
   203  102  103 2    
   204  102  104 am   BACKBONE|DICT|INTERRES
   205  104  105 1    
   206  104  225 1    
   207  105  106 1    
   208  105  107 1    
   209  105  226 1    
   210  106  227 1    
   211  106  228 1    
   212  106  229 1    
   213  107  108 2    
   214  107  109 am   BACKBONE|DICT|INTERRES
   215  109  110 1    
   216  109  230 1    
   217  110  111 1    
   218  110  112 1    
   219  110  231 1    
   220  111  232 1    
   221  111  233 1    
   222  111  234 1    
   223  112  113 2    
   224  112  114 am   BACKBONE|DICT|INTERRES
   225  114  115 1    
   226  114  235 1    
   227  115  116 1    
   228  115  117 1    
   229  115  236 1    
   230  116  237 1    
   231  116  238 1    
   232  116  239 1    
   233  117  118 2    
   234  117  119 am   BACKBONE|DICT|INTERRES
   235  119  120 1    
   236  119  240 1    
   237  120  121 1    
   238  120  124 1    
   239  120  241 1    
   240  121  122 am   BACKBONE|DICT|INTERRES
   241  121  123 2    
   242  122  242 1    
   243  122  243 1    
   244  124  125 1    
   245  124  244 1    
   246  124  245 1    
   247  125  126 1    
   248  126  246 1    
   249  126  247 1    
@<TRIPOS>SUBSTRUCTURE
     1 UNK         1 GROUP             0       ****    0 ROOT    
