@<TRIPOS>MOLECULE
3R540
247   249    1
SMALL
USER_CHARGES


@<TRIPOS>ATOM
      1 CA         -0.0014  -19.1170  -49.7625 C.3       0 UNK        -0.1800 
      2 C          -0.4819  -17.6764  -49.7603 C.2       0 UNK         0.5000 
      3 O          -1.6855  -17.4374  -49.8383 O.2       0 UNK        -0.5000 
      4 N           0.4421  -16.7104  -49.6578 N.am      1 UNK        -0.5000 
      5 CA          0.1702  -15.2671  -49.6091 C.3       1 UNK         0.1400 
      6 C6          1.3858  -14.4295  -50.1033 C.3       23 UNK        -0.0398 
      7 S7          2.8980  -14.5192  -49.0711 S.3       23 UNK        -0.2404 
      8 C8          4.1270  -15.2918  -50.1647 C.3       23 UNK        -0.0205 
      9 C9          3.8555  -16.7723  -50.3724 C.ar      23 UNK        -0.0193 
     10 C10         3.3369  -17.2226  -51.5863 C.ar      23 UNK        -0.1150 
     11 C11         3.0723  -18.5823  -51.7962 C.ar      23 UNK        -0.0193 
     12 C12         3.3851  -19.4920  -50.7796 C.ar      23 UNK        -0.1150 
     13 C13         3.9077  -19.0563  -49.5570 C.ar      23 UNK        -0.0193 
     14 C14         4.1356  -17.6921  -49.3597 C.ar      23 UNK        -0.1150 
     15 C15         4.2482  -20.0512  -48.4546 C.3       23 UNK        -0.0205 
     16 S16         2.7706  -20.6286  -47.5567 S.3       23 UNK        -0.2404 
     17 C17         2.3222  -22.1103  -48.5251 C.3       23 UNK        -0.0398 
     18 CA          1.3349  -23.0808  -47.8286 C.3       11 UNK         0.1400 
     19 N           1.6550  -23.3466  -46.4206 N.am      11 UNK        -0.5000 
     20 C           1.2004  -24.4126  -45.7483 C.2       10 UNK         0.5000 
     21 O           0.4552  -25.2577  -46.2420 O.2       10 UNK        -0.5000 
     22 CA          1.6257  -24.5603  -44.2762 C.3       10 UNK         0.1400 
     23 CB          3.0743  -25.0632  -44.1805 C.3       10 UNK        -0.1800 
     24 N           1.4771  -23.3527  -43.4598 N.am      10 UNK        -0.5000 
     25 C           0.3524  -22.6405  -43.3056 C.2       9 UNK         0.5000 
     26 O          -0.6742  -22.8396  -43.9554 O.2       9 UNK        -0.5000 
     27 CA          0.3554  -21.5205  -42.2520 C.3       9 UNK         0.1400 
     28 CB          1.7160  -21.2813  -41.5640 C.3       9 UNK        -0.1800 
     29 N          -0.0794  -20.2986  -42.9058 N.am      9 UNK        -0.5000 
     30 C          -0.7784  -19.2963  -42.3709 C.2       8 UNK         0.5000 
     31 O          -1.2006  -19.3027  -41.2130 O.2       8 UNK        -0.5000 
     32 CA         -1.0195  -18.0775  -43.2947 C.3       8 UNK         0.1400 
     33 CB         -1.7164  -16.9158  -42.5665 C.3       8 UNK        -0.1800 
     34 N           0.2217  -17.5768  -43.8937 N.am      8 UNK        -0.5000 
     35 C           0.9511  -18.1833  -44.8416 C.2       7 UNK         0.5000 
     36 O           0.6045  -19.2252  -45.3986 O.2       7 UNK        -0.5000 
     37 CA          2.3139  -17.5626  -45.1840 C.3       7 UNK         0.1400 
     38 CB          2.1955  -16.6516  -46.4049 C.3       7 UNK        -0.1800 
     39 N           2.8658  -16.7946  -44.0685 N.am      7 UNK        -0.5000 
     40 C           3.6000  -17.3219  -43.0792 C.2       6 UNK         0.5000 
     41 O           3.9179  -18.5098  -43.0205 O.2       6 UNK        -0.5000 
     42 CA          4.0614  -16.3608  -41.9664 C.3       6 UNK         0.1400 
     43 CB          5.4400  -15.7723  -42.3034 C.3       6 UNK        -0.1800 
     44 N           3.1199  -15.2651  -41.7312 N.am      6 UNK        -0.5000 
     45 C           1.9236  -15.4064  -41.1440 C.2       5 UNK         0.5000 
     46 O           1.5056  -16.4725  -40.6938 O.2       5 UNK        -0.5000 
     47 CA          1.0338  -14.1499  -41.0681 C.3       5 UNK         0.1400 
     48 CB          1.2400  -13.4263  -39.7289 C.3       5 UNK        -0.1800 
     49 N           1.2462  -13.1996  -42.1653 N.am      5 UNK        -0.5000 
     50 C           1.0104  -13.4607  -43.4572 C.2       4 UNK         0.5000 
     51 O           0.6557  -14.5650  -43.8776 O.2       4 UNK        -0.5000 
     52 CA          1.2496  -12.3102  -44.4475 C.3       4 UNK         0.1400 
     53 CB          2.4964  -12.5872  -45.3022 C.3       4 UNK        -0.1800 
     54 N           0.0901  -12.1767  -45.3209 N.am      4 UNK        -0.5000 
     55 C          -1.0217  -11.4885  -45.0219 C.2       3 UNK         0.5000 
     56 O          -1.1271  -10.7543  -44.0386 O.2       3 UNK        -0.5000 
     57 CA         -2.2329  -11.6779  -45.9621 C.3       3 UNK         0.1400 
     58 CB         -2.2022  -10.6481  -47.1013 C.3       3 UNK        -0.1800 
     59 N          -2.2675  -13.0243  -46.5336 N.am      3 UNK        -0.5000 
     60 C          -2.4779  -14.1361  -45.8195 C.2       2 UNK         0.5000 
     61 O          -2.9614  -14.1173  -44.6870 O.2       2 UNK        -0.5000 
     62 CA         -2.0529  -15.4903  -46.4342 C.3       2 UNK         0.1400 
     63 CB         -3.2193  -16.4913  -46.4178 C.3       2 UNK        -0.1800 
     64 N          -1.4713  -15.4821  -47.7851 N.am      2 UNK        -0.5000 
     65 C          -0.3845  -14.8326  -48.2263 C.2       1 UNK         0.5000 
     66 O           0.1730  -13.9458  -47.5815 O.2       1 UNK        -0.5000 
     67 C          -0.1412  -22.6861  -48.0374 C.2       11 UNK         0.5000 
     68 O          -0.7540  -23.1503  -48.9999 O.2       11 UNK        -0.5000 
     69 N          -0.7088  -21.8959  -47.1150 N.am      12 UNK        -0.5000 
     70 CA         -2.1328  -21.5545  -47.1053 C.3       12 UNK         0.1400 
     71 CB         -2.3969  -20.4402  -46.0853 C.3       12 UNK        -0.1800 
     72 C          -3.0264  -22.7765  -46.8296 C.2       12 UNK         0.5000 
     73 O          -4.0554  -22.9297  -47.4857 O.2       12 UNK        -0.5000 
     74 N          -2.5988  -23.6401  -45.8979 N.am      13 UNK        -0.5000 
     75 CA         -3.2585  -24.9008  -45.5595 C.3       13 UNK         0.1400 
     76 CB         -2.6328  -25.4865  -44.2849 C.3       13 UNK        -0.1800 
     77 C          -3.2172  -25.9222  -46.7101 C.2       13 UNK         0.5000 
     78 O          -4.2285  -26.5735  -46.9697 O.2       13 UNK        -0.5000 
     79 N          -2.0721  -26.0200  -47.4015 N.am      14 UNK        -0.5000 
     80 CA         -1.8797  -26.8678  -48.5815 C.3       14 UNK         0.1400 
     81 CB         -0.3914  -26.8972  -48.9600 C.3       14 UNK        -0.1800 
     82 C          -2.7354  -26.4205  -49.7809 C.2       14 UNK         0.5000 
     83 O          -3.2900  -27.2665  -50.4832 O.2       14 UNK        -0.5000 
     84 N          -2.8547  -25.0994  -49.9707 N.am      15 UNK        -0.5000 
     85 CA         -3.7319  -24.4743  -50.9628 C.3       15 UNK         0.1400 
     86 CB         -3.2963  -23.0140  -51.1394 C.3       15 UNK        -0.1800 
     87 C          -5.2257  -24.5412  -50.5835 C.2       15 UNK         0.5000 
     88 O          -6.0773  -24.3422  -51.4499 O.2       15 UNK        -0.5000 
     89 N          -5.5126  -24.7809  -49.2966 N.am      16 UNK        -0.5000 
     90 CA         -6.8074  -24.8609  -48.6127 C.3       16 UNK         0.1400 
     91 CB         -7.6920  -25.9767  -49.2002 C.3       16 UNK        -0.1800 
     92 C          -7.5570  -23.5182  -48.5433 C.2       16 UNK         0.5000 
     93 O          -7.9410  -23.0910  -47.4541 O.2       16 UNK        -0.5000 
     94 N          -7.7459  -22.8774  -49.7008 N.am      17 UNK        -0.5000 
     95 CA         -8.4213  -21.5898  -49.8537 C.3       17 UNK         0.1400 
     96 CB         -9.1872  -21.6035  -51.1866 C.3       17 UNK        -0.1800 
     97 C          -7.4484  -20.3966  -49.8166 C.2       17 UNK         0.5000 
     98 O          -7.9121  -19.2558  -49.7965 O.2       17 UNK        -0.5000 
     99 N          -6.1324  -20.6650  -49.8665 N.am      18 UNK        -0.5000 
    100 CA        -5.0019  -19.7285  -49.9903 C.3       18 UNK         0.1400 
    101 CB        -4.9502  -18.7317  -48.8183 C.3       18 UNK        -0.1800 
    102 C         -4.9529  -19.0109  -51.3543 C.2       18 UNK         0.5000 
    103 O         -3.9368  -19.0783  -52.0483 O.2       18 UNK        -0.5000 
    104 N         -6.0770  -18.4013  -51.7512 N.am      19 UNK        -0.5000 
    105 CA        -6.3137  -17.7309  -53.0335 C.3       19 UNK         0.1400 
    106 CB        -7.6858  -17.0424  -52.9779 C.3       19 UNK        -0.1800 
    107 C         -6.2288  -18.6639  -54.2591 C.2       19 UNK         0.5000 
    108 O         -6.0560  -18.1795  -55.3774 O.2       19 UNK        -0.5000 
    109 N         -6.3321  -19.9807  -54.0288 N.am      20 UNK        -0.5000 
    110 CA        -6.0930  -21.0305  -55.0205 C.3       20 UNK         0.1400 
    111 CB        -6.6020  -22.3667  -54.4597 C.3       20 UNK        -0.1800 
    112 C         -4.6100  -21.1484  -55.4321 C.2       20 UNK         0.5000 
    113 O         -4.3288  -21.6583  -56.5176 O.2       20 UNK        -0.5000 
    114 N         -3.6997  -20.6761  -54.5699 N.am      21 UNK        -0.5000 
    115 CA        -2.2720  -20.5513  -54.8324 C.3       21 UNK         0.1400 
    116 CB        -1.4872  -21.2390  -53.6970 C.3       21 UNK        -0.1800 
    117 C         -1.9522  -19.0560  -55.0066 C.2       21 UNK         0.5000 
    118 O         -2.4097  -18.4535  -55.9792 O.2       21 UNK        -0.5000 
    119 N         -1.1734  -18.4858  -54.0819 N.am      22 UNK        -0.5000 
    120 CA        -0.7325  -17.0830  -54.1075 C.3       22 UNK         0.1400 
    121 C         -1.7319  -16.0808  -53.4603 C.2       22 UNK         0.5000 
    122 N         -2.7921  -16.5166  -52.7940 N.am      22 UNK        -0.7600 
    123 O         -1.5401  -14.8728  -53.5677 O.2       22 UNK        -0.5000 
    124 C124        0.6742  -16.9227  -53.4849 C.3       23 UNK        -0.0398 
    125 S125        1.9670  -17.8852  -54.3482 S.3       23 UNK        -0.2404 
    126 C126        2.4455  -19.1225  -53.0864 C.3       23 UNK        -0.0205 
    127 H127       -0.6566  -19.7320  -49.1469 H         1 UNK         0.0600 
    128 H128       -0.0042  -19.5184  -50.7753 H         1 UNK         0.0600 
    129 H129        1.0048  -19.1931  -49.3578 H         1 UNK         0.0600 
    130 H130        1.4177  -16.9628  -49.5740 H         1 UNK         0.3000 
    131 H131       -0.6355  -15.0689  -50.3198 H         1 UNK         0.0600 
    132 H132        1.0995  -13.3787  -50.1699 H         1 UNK         0.0800 
    133 H133        1.6331  -14.7216  -51.1241 H         1 UNK         0.0800 
    134 H134        4.1575  -14.7578  -51.1157 H         1 UNK         0.0800 
    135 H135        5.1151  -15.1714  -49.7185 H         1 UNK         0.0800 
    136 H136        3.1401  -16.4956  -52.3587 H         1 UNK         0.1150 
    137 H137        3.2105  -20.5459  -50.9392 H         1 UNK         0.1150 
    138 H138        4.5413  -17.3431  -48.4205 H         1 UNK         0.1150 
    139 H139        4.7972  -20.8955  -48.8732 H         1 UNK         0.0800 
    140 H140        4.9229  -19.5884  -47.7329 H         1 UNK         0.0800 
    141 H141        3.2424  -22.6560  -48.7371 H         1 UNK         0.0800 
    142 H142        1.9355  -21.7998  -49.4967 H         1 UNK         0.0800 
    143 H143        1.4476  -24.0331  -48.3522 H         1 UNK         0.0600 
    144 H144        2.2441  -22.6718  -45.9541 H         1 UNK         0.3000 
    145 H145        0.9796  -25.3212  -43.8336 H         1 UNK         0.0600 
    146 H146        3.3421  -25.3020  -43.1511 H         1 UNK         0.0600 
    147 H147        3.2131  -25.9713  -44.7689 H         1 UNK         0.0600 
    148 H148        3.7840  -24.3215  -44.5488 H         1 UNK         0.0600 
    149 H149        2.2763  -23.0979  -42.8982 H         1 UNK         0.3000 
    150 H150       -0.3761  -21.8051  -41.4932 H         1 UNK         0.0600 
    151 H151        2.0576  -22.1714  -41.0344 H         1 UNK         0.0600 
    152 H152        1.6425  -20.4824  -40.8257 H         1 UNK         0.0600 
    153 H153        2.4873  -20.9921  -42.2795 H         1 UNK         0.0600 
    154 H154        0.1946  -20.1989  -43.8805 H         1 UNK         0.3000 
    155 H155       -1.6779  -18.4041  -44.1009 H         1 UNK         0.0600 
    156 H156       -1.1378  -16.5778  -41.7068 H         1 UNK         0.0600 
    157 H157       -2.7008  -17.2144  -42.2048 H         1 UNK         0.0600 
    158 H158       -1.8585  -16.0619  -43.2274 H         1 UNK         0.0600 
    159 H159        0.5699  -16.7023  -43.5217 H         1 UNK         0.3000 
    160 H160        2.9967  -18.3763  -45.4377 H         1 UNK         0.0600 
    161 H161        3.1652  -16.2342  -46.6733 H         1 UNK         0.0600 
    162 H162        1.5131  -15.8236  -46.2180 H         1 UNK         0.0600 
    163 H163        1.8249  -17.2052  -47.2675 H         1 UNK         0.0600 
    164 H164        2.6056  -15.8194  -44.0206 H         1 UNK         0.3000 
    165 H165        4.1536  -16.9400  -41.0450 H         1 UNK         0.0600 
    166 H166        5.8107  -15.1455  -41.4921 H         1 UNK         0.0600 
    167 H167        6.1738  -16.5638  -42.4622 H         1 UNK         0.0600 
    168 H168        5.4094  -15.1666  -43.2101 H         1 UNK         0.0600 
    169 H169        3.3895  -14.3498  -42.0600 H         1 UNK         0.3000 
    170 H170       -0.0050  -14.4823  -41.1174 H         1 UNK         0.0600 
    171 H171        1.0634  -14.1001  -38.8893 H         1 UNK         0.0600 
    172 H172        2.2556  -13.0402  -39.6319 H         1 UNK         0.0600 
    173 H173        0.5498  -12.5893  -39.6218 H         1 UNK         0.0600 
    174 H174        1.5439  -12.2715  -41.9005 H         1 UNK         0.3000 
    175 H175        1.4058  -11.3784  -43.8999 H         1 UNK         0.0600 
    176 H176        2.3950  -13.5064  -45.8807 H         1 UNK         0.0600 
    177 H177        2.6797  -11.7740  -46.0046 H         1 UNK         0.0600 
    178 H178        3.3856  -12.6869  -44.6788 H         1 UNK         0.0600 
    179 H179        0.0804  -12.7950  -46.1296 H         1 UNK         0.3000 
    180 H180       -3.1429  -11.5225  -45.3789 H         1 UNK         0.0600 
    181 H181       -1.3159  -10.7658  -47.7264 H         1 UNK         0.0600 
    182 H182       -2.1940   -9.6311  -46.7071 H         1 UNK         0.0600 
    183 H183       -3.0798  -10.7416  -47.7412 H         1 UNK         0.0600 
    184 H184       -1.8153  -13.1405  -47.4296 H         1 UNK         0.3000 
    185 H185       -1.2752  -15.8784  -45.7740 H         1 UNK         0.0600 
    186 H186       -3.6228  -16.6166  -45.4122 H         1 UNK         0.0600 
    187 H187       -4.0350  -16.1633  -47.0631 H         1 UNK         0.0600 
    188 H188       -2.8977  -17.4745  -46.7581 H         1 UNK         0.0600 
    189 H189       -1.8443  -16.1822  -48.4214 H         1 UNK         0.3000 
    190 H190       -0.1468  -21.5475  -46.3507 H         1 UNK         0.3000 
    191 H191       -2.3958  -21.1724  -48.0937 H         1 UNK         0.0600 
    192 H192       -2.1043  -20.7383  -45.0785 H         1 UNK         0.0600 
    193 H193       -3.4544  -20.1756  -46.0562 H         1 UNK         0.0600 
    194 H194       -1.8432  -19.5396  -46.3470 H         1 UNK         0.0600 
    195 H195       -1.7682  -23.4048  -45.3593 H         1 UNK         0.3000 
    196 H196       -4.3074  -24.6808  -45.3501 H         1 UNK         0.0600 
    197 H197       -2.7306  -24.7970  -43.4462 H         1 UNK         0.0600 
    198 H198       -1.5723  -25.7012  -44.4178 H         1 UNK         0.0600 
    199 H199       -3.1241  -26.4176  -44.0002 H         1 UNK         0.0600 
    200 H200       -1.2585  -25.5051  -47.0758 H         1 UNK         0.3000 
    201 H201       -2.1830  -27.8829  -48.3172 H         1 UNK         0.0600 
    202 H202       -0.0185  -25.9018  -49.2025 H         1 UNK         0.0600 
    203 H203       -0.2213  -27.5334  -49.8295 H         1 UNK         0.0600 
    204 H204        0.2147  -27.2928  -48.1449 H         1 UNK         0.0600 
    205 H205       -2.3077  -24.4714  -49.3908 H         1 UNK         0.3000 
    206 H206       -3.6076  -24.9905  -51.9168 H         1 UNK         0.0600 
    207 H207       -3.8988  -22.5024  -51.8913 H         1 UNK         0.0600 
    208 H208       -3.3834  -22.4635  -50.2038 H         1 UNK         0.0600 
    209 H209       -2.2550  -22.9564  -51.4537 H         1 UNK         0.0600 
    210 H210       -4.7195  -24.8529  -48.6729 H         1 UNK         0.3000 
    211 H211       -6.5744  -25.1399  -47.5840 H         1 UNK         0.0600 
    212 H212       -7.9812  -25.7737  -50.2316 H         1 UNK         0.0600 
    213 H213       -8.6097  -26.0884  -48.6217 H         1 UNK         0.0600 
    214 H214       -7.1757  -26.9366  -49.1797 H         1 UNK         0.0600 
    215 H215       -7.3736  -23.3138  -50.5409 H         1 UNK         0.3000 
    216 H216       -9.1435  -21.4509  -49.0465 H         1 UNK         0.0600 
    217 H217       -9.7376  -20.6734  -51.3351 H         1 UNK         0.0600 
    218 H218       -9.9132  -22.4162  -51.2148 H         1 UNK         0.0600 
    219 H219       -8.5143  -21.7264  -52.0354 H         1 UNK         0.0600 
    220 H220       -5.8782  -21.6420  -49.8594 H         1 UNK         0.3000 
    221 H221       -4.0971  -20.3320  -49.9271 H         1 UNK         0.0600 
    222 H222       -5.7999  -18.0493  -48.8143 H         1 UNK         0.0600 
    223 H223       -4.9328  -19.2513  -47.8607 H         1 UNK         0.0600 
    224 H224       -4.0494  -18.1215  -48.8740 H         1 UNK         0.0600 
    225 H225       -6.8656  -18.4425  -51.1099 H         1 UNK         0.3000 
    226 H226       -5.5490  -16.9629  -53.1573 H         1 UNK         0.0600 
    227 H227       -7.7298  -16.3164  -52.1658 H         1 UNK         0.0600 
    228 H228       -7.8940  -16.5054  -53.9042 H         1 UNK         0.0600 
    229 H229       -8.4901  -17.7637  -52.8268 H         1 UNK         0.0600 
    230 H230       -6.4933  -20.2814  -53.0802 H         1 UNK         0.3000 
    231 H231       -6.6670  -20.7926  -55.9185 H         1 UNK         0.0600 
    232 H232       -7.6720  -22.3286  -54.2567 H         1 UNK         0.0600 
    233 H233       -6.0908  -22.6332  -53.5344 H         1 UNK         0.0600 
    234 H234       -6.4377  -23.1782  -55.1698 H         1 UNK         0.0600 
    235 H235       -4.0210  -20.2182  -53.7241 H         1 UNK         0.3000 
    236 H236       -2.0025  -21.0431  -55.7691 H         1 UNK         0.0600 
    237 H237       -0.4107  -21.1406  -53.8421 H         1 UNK         0.0600 
    238 H238       -1.7376  -20.8307  -52.7168 H         1 UNK         0.0600 
    239 H239       -1.7056  -22.3065  -53.6776 H         1 UNK         0.0600 
    240 H240       -0.8669  -19.0395  -53.2976 H         1 UNK         0.3000 
    241 H241       -0.6512  -16.7731  -55.1513 H         1 UNK         0.0600 
    242 H242       -3.4064  -15.8414  -52.3715 H         1 UNK         0.3800 
    243 H243       -2.9614  -17.5059  -52.6448 H         1 UNK         0.3800 
    244 H244        0.9856  -15.8769  -53.5117 H         1 UNK         0.0800 
    245 H245        0.6466  -17.2019  -52.4328 H         1 UNK         0.0800 
    246 H246        1.5648  -19.7132  -52.8322 H         1 UNK         0.0800 
    247 H247        3.1536  -19.8124  -53.5473 H         1 UNK         0.0800 
@<TRIPOS>BOND
     1    1    2 1    
     2    1  127 1    
     3    1  128 1    
     4    1  129 1    
     5    2    3 2    
     6    2    4 am   BACKBONE|DICT|INTERRES
     7    4    5 1    
     8    4  130 1    
     9    5    6 1    
    10    5   65 1    
    11    5  131 1    
    12    6    7 1    
    13    6  132 1    
    14    6  133 1    
    15    7    8 1    
    16    8    9 1    
    17    8  134 1    
    18    8  135 1    
    19    9   10 ar   
    20    9   14 ar   
    21   10   11 ar   
    22   10  136 1    
    23   11   12 ar   
    24   11  126 1    
    25   12   13 ar   
    26   12  137 1    
    27   13   14 ar   
    28   13   15 1    
    29   14  138 1    
    30   15   16 1    
    31   15  139 1    
    32   15  140 1    
    33   16   17 1    
    34   17   18 1    
    35   17  141 1    
    36   17  142 1    
    37   18   19 1    
    38   18   67 1    
    39   18  143 1    
    40   19   20 am   BACKBONE|DICT|INTERRES
    41   19  144 1    
    42   20   21 2    
    43   20   22 1    
    44   22   23 1    
    45   22   24 1    
    46   22  145 1    
    47   23  146 1    
    48   23  147 1    
    49   23  148 1    
    50   24   25 am   BACKBONE|DICT|INTERRES
    51   24  149 1    
    52   25   26 2    
    53   25   27 1    
    54   27   28 1    
    55   27   29 1    
    56   27  150 1    
    57   28  151 1    
    58   28  152 1    
    59   28  153 1    
    60   29   30 am   BACKBONE|DICT|INTERRES
    61   29  154 1    
    62   30   31 2    
    63   30   32 1    
    64   32   33 1    
    65   32   34 1    
    66   32  155 1    
    67   33  156 1    
    68   33  157 1    
    69   33  158 1    
    70   34   35 am   BACKBONE|DICT|INTERRES
    71   34  159 1    
    72   35   36 2    
    73   35   37 1    
    74   37   38 1    
    75   37   39 1    
    76   37  160 1    
    77   38  161 1    
    78   38  162 1    
    79   38  163 1    
    80   39   40 am   BACKBONE|DICT|INTERRES
    81   39  164 1    
    82   40   41 2    
    83   40   42 1    
    84   42   43 1    
    85   42   44 1    
    86   42  165 1    
    87   43  166 1    
    88   43  167 1    
    89   43  168 1    
    90   44   45 am   BACKBONE|DICT|INTERRES
    91   44  169 1    
    92   45   46 2    
    93   45   47 1    
    94   47   48 1    
    95   47   49 1    
    96   47  170 1    
    97   48  171 1    
    98   48  172 1    
    99   48  173 1    
   100   49   50 am   BACKBONE|DICT|INTERRES
   101   49  174 1    
   102   50   51 2    
   103   50   52 1    
   104   52   53 1    
   105   52   54 1    
   106   52  175 1    
   107   53  176 1    
   108   53  177 1    
   109   53  178 1    
   110   54   55 am   BACKBONE|DICT|INTERRES
   111   54  179 1    
   112   55   56 2    
   113   55   57 1    
   114   57   58 1    
   115   57   59 1    
   116   57  180 1    
   117   58  181 1    
   118   58  182 1    
   119   58  183 1    
   120   59   60 am   BACKBONE|DICT|INTERRES
   121   59  184 1    
   122   60   61 2    
   123   60   62 1    
   124   62   63 1    
   125   62   64 1    
   126   62  185 1    
   127   63  186 1    
   128   63  187 1    
   129   63  188 1    
   130   64   65 am   BACKBONE|DICT|INTERRES
   131   64  189 1    
   132   65   66 2    
   133   67   68 2    
   134   67   69 am   BACKBONE|DICT|INTERRES
   135   69   70 1    
   136   69  190 1    
   137   70   71 1    
   138   70   72 1    
   139   70  191 1    
   140   71  192 1    
   141   71  193 1    
   142   71  194 1    
   143   72   73 2    
   144   72   74 am   BACKBONE|DICT|INTERRES
   145   74   75 1    
   146   74  195 1    
   147   75   76 1    
   148   75   77 1    
   149   75  196 1    
   150   76  197 1    
   151   76  198 1    
   152   76  199 1    
   153   77   78 2    
   154   77   79 am   BACKBONE|DICT|INTERRES
   155   79   80 1    
   156   79  200 1    
   157   80   81 1    
   158   80   82 1    
   159   80  201 1    
   160   81  202 1    
   161   81  203 1    
   162   81  204 1    
   163   82   83 2    
   164   82   84 am   BACKBONE|DICT|INTERRES
   165   84   85 1    
   166   84  205 1    
   167   85   86 1    
   168   85   87 1    
   169   85  206 1    
   170   86  207 1    
   171   86  208 1    
   172   86  209 1    
   173   87   88 2    
   174   87   89 am   BACKBONE|DICT|INTERRES
   175   89   90 1    
   176   89  210 1    
   177   90   91 1    
   178   90   92 1    
   179   90  211 1    
   180   91  212 1    
   181   91  213 1    
   182   91  214 1    
   183   92   93 2    
   184   92   94 am   BACKBONE|DICT|INTERRES
   185   94   95 1    
   186   94  215 1    
   187   95   96 1    
   188   95   97 1    
   189   95  216 1    
   190   96  217 1    
   191   96  218 1    
   192   96  219 1    
   193   97   98 2    
   194   97   99 am   BACKBONE|DICT|INTERRES
   195   99  100 1    
   196   99  220 1    
   197  100  101 1    
   198  100  102 1    
   199  100  221 1    
   200  101  222 1    
   201  101  223 1    
   202  101  224 1    
   203  102  103 2    
   204  102  104 am   BACKBONE|DICT|INTERRES
   205  104  105 1    
   206  104  225 1    
   207  105  106 1    
   208  105  107 1    
   209  105  226 1    
   210  106  227 1    
   211  106  228 1    
   212  106  229 1    
   213  107  108 2    
   214  107  109 am   BACKBONE|DICT|INTERRES
   215  109  110 1    
   216  109  230 1    
   217  110  111 1    
   218  110  112 1    
   219  110  231 1    
   220  111  232 1    
   221  111  233 1    
   222  111  234 1    
   223  112  113 2    
   224  112  114 am   BACKBONE|DICT|INTERRES
   225  114  115 1    
   226  114  235 1    
   227  115  116 1    
   228  115  117 1    
   229  115  236 1    
   230  116  237 1    
   231  116  238 1    
   232  116  239 1    
   233  117  118 2    
   234  117  119 am   BACKBONE|DICT|INTERRES
   235  119  120 1    
   236  119  240 1    
   237  120  121 1    
   238  120  124 1    
   239  120  241 1    
   240  121  122 am   BACKBONE|DICT|INTERRES
   241  121  123 2    
   242  122  242 1    
   243  122  243 1    
   244  124  125 1    
   245  124  244 1    
   246  124  245 1    
   247  125  126 1    
   248  126  246 1    
   249  126  247 1    
@<TRIPOS>SUBSTRUCTURE
     1 UNK         1 GROUP             0       ****    0 ROOT    
