@<TRIPOS>MOLECULE
3R540
247   249    1
SMALL
USER_CHARGES


@<TRIPOS>ATOM
      1 CA          4.2820  -14.2238  -44.2277 C.3       0 UNK        -0.1800 
      2 C           2.9455  -13.6130  -43.8301 C.2       0 UNK         0.5000 
      3 O           2.9188  -12.6420  -43.0736 O.2       0 UNK        -0.5000 
      4 N           1.8403  -14.1752  -44.3322 N.am      1 UNK        -0.5000 
      5 CA          0.4746  -13.6855  -44.1277 C.3       1 UNK         0.1400 
      6 C6         -0.5883  -14.7346  -44.5323 C.3       23 UNK        -0.0398 
      7 S7         -0.5267  -16.1978  -43.4461 S.3       23 UNK        -0.2404 
      8 C8         -2.2904  -16.6023  -43.2493 C.3       23 UNK        -0.0205 
      9 C9         -2.8561  -17.3256  -44.4636 C.ar      23 UNK        -0.0193 
     10 C10        -3.8688  -16.7490  -45.2367 C.ar      23 UNK        -0.1150 
     11 C11        -4.4284  -17.4507  -46.3110 C.ar      23 UNK        -0.0193 
     12 C12        -3.9520  -18.7294  -46.6194 C.ar      23 UNK        -0.1150 
     13 C13        -2.9275  -19.3072  -45.8658 C.ar      23 UNK        -0.0193 
     14 C14        -2.3935  -18.6033  -44.7855 C.ar      23 UNK        -0.1150 
     15 C15        -2.4098  -20.6960  -46.1994 C.3       23 UNK        -0.0205 
     16 S16        -1.1058  -20.6256  -47.4641 S.3       23 UNK        -0.2404 
     17 C17        -0.4442  -22.3279  -47.6716 C.3       23 UNK        -0.0398 
     18 CA         -0.6764  -23.4569  -46.6265 C.3       11 UNK         0.1400 
     19 N           0.0208  -23.2649  -45.3444 N.am      11 UNK        -0.5000 
     20 C           0.3080  -24.2760  -44.5028 C.2       10 UNK         0.5000 
     21 O          -0.0595  -25.4345  -44.7039 O.2       10 UNK        -0.5000 
     22 CA          1.1112  -23.9770  -43.2197 C.3       10 UNK         0.1400 
     23 CB          2.5983  -24.2902  -43.4409 C.3       10 UNK        -0.1800 
     24 N           0.9865  -22.6071  -42.7287 N.am      10 UNK        -0.5000 
     25 C          -0.1461  -22.0328  -42.3044 C.2       9 UNK         0.5000 
     26 O          -1.2228  -22.6254  -42.2234 O.2       9 UNK        -0.5000 
     27 CA         -0.0740  -20.5302  -41.9531 C.3       9 UNK         0.1400 
     28 CB          0.1480  -20.3475  -40.4443 C.3       9 UNK        -0.1800 
     29 N           0.9307  -19.7348  -42.6806 N.am      9 UNK        -0.5000 
     30 C           1.1249  -19.7270  -44.0064 C.2       8 UNK         0.5000 
     31 O           0.5965  -20.5287  -44.7782 O.2       8 UNK        -0.5000 
     32 CA          2.0636  -18.6612  -44.5811 C.3       8 UNK         0.1400 
     33 CB          3.5284  -19.1233  -44.5440 C.3       8 UNK        -0.1800 
     34 N           1.6474  -18.4500  -45.9609 N.am      8 UNK        -0.5000 
     35 C           1.6900  -17.3000  -46.6306 C.2       7 UNK         0.5000 
     36 O           2.1703  -16.2576  -46.1828 O.2       7 UNK        -0.5000 
     37 CA          1.0326  -17.3078  -48.0188 C.3       7 UNK         0.1400 
     38 CB         -0.4451  -16.9040  -47.9132 C.3       7 UNK        -0.1800 
     39 N           1.7164  -16.3884  -48.9229 N.am      7 UNK        -0.5000 
     40 C           2.8868  -16.6426  -49.5221 C.2       6 UNK         0.5000 
     41 O           3.4545  -17.7349  -49.4873 O.2       6 UNK        -0.5000 
     42 CA          3.5351  -15.4709  -50.2830 C.3       6 UNK         0.1400 
     43 CB          3.0260  -15.4267  -51.7322 C.3       6 UNK        -0.1800 
     44 N           3.2732  -14.1791  -49.6470 N.am      6 UNK        -0.5000 
     45 C           3.8020  -13.7597  -48.4893 C.2       5 UNK         0.5000 
     46 O           4.6563  -14.3932  -47.8695 O.2       5 UNK        -0.5000 
     47 CA          3.2827  -12.4291  -47.9002 C.3       5 UNK         0.1400 
     48 CB          4.3275  -11.3040  -48.0278 C.3       5 UNK        -0.1800 
     49 N           1.9613  -12.0067  -48.3931 N.am      5 UNK        -0.5000 
     50 C           1.6204  -11.5752  -49.6166 C.2       4 UNK         0.5000 
     51 O           2.4329  -11.4294  -50.5292 O.2       4 UNK        -0.5000 
     52 CA          0.1315  -11.3373  -49.9211 C.3       4 UNK         0.1400 
     53 CB         -0.3955  -12.4743  -50.8149 C.3       4 UNK        -0.1800 
     54 N          -0.7207  -11.2070  -48.7334 N.am      4 UNK        -0.5000 
     55 C          -1.9019  -10.5683  -48.7400 C.2       3 UNK         0.5000 
     56 O          -2.3692  -10.0094  -49.7335 O.2       3 UNK        -0.5000 
     57 CA         -2.7069  -10.5330  -47.4236 C.3       3 UNK         0.1400 
     58 CB         -3.6693  -11.7289  -47.3585 C.3       3 UNK        -0.1800 
     59 N          -1.8749  -10.5394  -46.2224 N.am      3 UNK        -0.5000 
     60 C          -0.9775   -9.6037  -45.8887 C.2       2 UNK         0.5000 
     61 O          -0.8341   -8.5476  -46.5058 O.2       2 UNK        -0.5000 
     62 CA         -0.0683   -9.8972  -44.6763 C.3       2 UNK         0.1400 
     63 CB         -0.4434   -8.9878  -43.4953 C.3       2 UNK        -0.1800 
     64 N          -0.0363  -11.2883  -44.2008 N.am      2 UNK        -0.5000 
     65 C           0.2844  -12.3766  -44.9146 C.2       1 UNK         0.5000 
     66 O           0.4269  -12.3818  -46.1398 O.2       1 UNK        -0.5000 
     67 C          -2.1448  -23.9141  -46.4929 C.2       11 UNK         0.5000 
     68 O          -2.7079  -24.4183  -47.4614 O.2       11 UNK        -0.5000 
     69 N          -2.7226  -23.7902  -45.2890 N.am      12 UNK        -0.5000 
     70 CA         -4.0522  -24.2929  -44.9475 C.3       12 UNK         0.1400 
     71 CB         -4.4986  -23.6484  -43.6270 C.3       12 UNK        -0.1800 
     72 C          -4.1028  -25.8315  -44.8504 C.2       12 UNK         0.5000 
     73 O          -5.1756  -26.4095  -45.0255 O.2       12 UNK        -0.5000 
     74 N          -2.9510  -26.4656  -44.5852 N.am      13 UNK        -0.5000 
     75 CA         -2.7857  -27.9203  -44.5602 C.3       13 UNK         0.1400 
     76 CB         -1.7529  -28.2781  -43.4788 C.3       13 UNK        -0.1800 
     77 C          -2.3535  -28.4830  -45.9297 C.2       13 UNK         0.5000 
     78 O          -2.3577  -29.7021  -46.1082 O.2       13 UNK        -0.5000 
     79 N          -1.9760  -27.6002  -46.8631 N.am      14 UNK        -0.5000 
     80 CA         -1.5781  -27.9295  -48.2291 C.3       14 UNK         0.1400 
     81 CB         -0.5474  -26.8856  -48.6956 C.3       14 UNK        -0.1800 
     82 C          -2.7985  -27.9862  -49.1708 C.2       14 UNK         0.5000 
     83 O          -3.9398  -27.8085  -48.7356 O.2       14 UNK        -0.5000 
     84 N          -2.5301  -28.2461  -50.4568 N.am      15 UNK        -0.5000 
     85 CA         -3.5158  -28.2486  -51.5390 C.3       15 UNK         0.1400 
     86 CB         -2.8378  -28.7764  -52.8135 C.3       15 UNK        -0.1800 
     87 C          -4.1108  -26.8510  -51.7980 C.2       15 UNK         0.5000 
     88 O          -3.4821  -25.8407  -51.4737 O.2       15 UNK        -0.5000 
     89 N          -5.2885  -26.8160  -52.4362 N.am      16 UNK        -0.5000 
     90 CA         -6.0370  -25.5970  -52.7645 C.3       16 UNK         0.1400 
     91 CB         -7.3442  -25.9806  -53.4738 C.3       16 UNK        -0.1800 
     92 C          -5.2470  -24.5766  -53.6077 C.2       16 UNK         0.5000 
     93 O          -5.3997  -23.3733  -53.4033 O.2       16 UNK        -0.5000 
     94 N          -4.3840  -25.0752  -54.5038 N.am      17 UNK        -0.5000 
     95 CA         -3.4833  -24.2698  -55.3303 C.3       17 UNK         0.1400 
     96 CB         -2.8499  -25.1693  -56.4025 C.3       17 UNK        -0.1800 
     97 C          -2.3898  -23.5466  -54.5188 C.2       17 UNK         0.5000 
     98 O          -1.9682  -22.4595  -54.9139 O.2       17 UNK        -0.5000 
     99 N          -1.9608  -24.1486  -53.4007 N.am      18 UNK        -0.5000 
    100 CA        -1.0126  -23.5548  -52.4598 C.3       18 UNK         0.1400 
    101 CB        -0.2599  -24.6650  -51.7115 C.3       18 UNK        -0.1800 
    102 C         -1.7286  -22.6143  -51.4785 C.2       18 UNK         0.5000 
    103 O         -1.2203  -21.5294  -51.2024 O.2       18 UNK        -0.5000 
    104 N         -2.9132  -23.0234  -51.0003 N.am      19 UNK        -0.5000 
    105 CA        -3.7726  -22.2433  -50.1034 C.3       19 UNK         0.1400 
    106 CB        -4.9794  -23.0972  -49.6885 C.3       19 UNK        -0.1800 
    107 C         -4.2459  -20.9084  -50.7136 C.2       19 UNK         0.5000 
    108 O         -4.4633  -19.9468  -49.9798 O.2       19 UNK        -0.5000 
    109 N         -4.3673  -20.8647  -52.0471 N.am      20 UNK        -0.5000 
    110 CA        -4.7315  -19.6897  -52.8391 C.3       20 UNK         0.1400 
    111 CB        -5.0789  -20.1498  -54.2645 C.3       20 UNK        -0.1800 
    112 C         -3.6659  -18.5719  -52.8776 C.2       20 UNK         0.5000 
    113 O         -3.9543  -17.5053  -53.4235 O.2       20 UNK        -0.5000 
    114 N         -2.4685  -18.8034  -52.3138 N.am      21 UNK        -0.5000 
    115 CA        -1.3387  -17.8642  -52.2911 C.3       21 UNK         0.1400 
    116 CB        -0.1416  -18.5233  -51.5886 C.3       21 UNK        -0.1800 
    117 C         -1.6371  -16.4893  -51.6575 C.2       21 UNK         0.5000 
    118 O         -0.9613  -15.5182  -51.9956 O.2       21 UNK        -0.5000 
    119 N         -2.6408  -16.4241  -50.7736 N.am      22 UNK        -0.5000 
    120 CA        -3.1745  -15.1812  -50.1959 C.3       22 UNK         0.1400 
    121 C         -4.0706  -14.3427  -51.1572 C.2       22 UNK         0.5000 
    122 N         -4.4322  -14.8277  -52.3399 N.am      22 UNK        -0.7600 
    123 O         -4.4355  -13.2182  -50.8269 O.2       22 UNK        -0.5000 
    124 C124       -3.8566  -15.4289  -48.8267 C.3       23 UNK        -0.0398 
    125 S125       -5.1950  -16.6665  -48.8832 S.3       23 UNK        -0.2404 
    126 C126       -5.5756  -16.8452  -47.1111 C.3       23 UNK        -0.0205 
    127 H127        4.8714  -13.5008  -44.7914 H         1 UNK         0.0600 
    128 H128        4.1562  -15.1118  -44.8468 H         1 UNK         0.0600 
    129 H129        4.8454  -14.5081  -43.3392 H         1 UNK         0.0600 
    130 H130        1.9349  -14.9576  -44.9797 H         1 UNK         0.3000 
    131 H131        0.3487  -13.4715  -43.0640 H         1 UNK         0.0600 
    132 H132       -1.5889  -14.3014  -44.4855 H         1 UNK         0.0800 
    133 H133       -0.4422  -15.0582  -45.5625 H         1 UNK         0.0800 
    134 H134       -2.4001  -17.2501  -42.3785 H         1 UNK         0.0800 
    135 H135       -2.8579  -15.6979  -43.0256 H         1 UNK         0.0800 
    136 H136       -4.2395  -15.7651  -44.9860 H         1 UNK         0.1150 
    137 H137       -4.3795  -19.2738  -47.4494 H         1 UNK         0.1150 
    138 H138       -1.6144  -19.0510  -44.1902 H         1 UNK         0.1150 
    139 H139       -2.0198  -21.1614  -45.2944 H         1 UNK         0.0800 
    140 H140       -3.2372  -21.3089  -46.5579 H         1 UNK         0.0800 
    141 H141        0.6317  -22.2147  -47.8096 H         1 UNK         0.0800 
    142 H142       -0.8042  -22.6774  -48.6396 H         1 UNK         0.0800 
    143 H143       -0.1856  -24.3250  -47.0721 H         1 UNK         0.0600 
    144 H144        0.3081  -22.3141  -45.1161 H         1 UNK         0.3000 
    145 H145        0.7346  -24.6427  -42.4404 H         1 UNK         0.0600 
    146 H146        3.1677  -24.1769  -42.5181 H         1 UNK         0.0600 
    147 H147        2.7357  -25.3175  -43.7814 H         1 UNK         0.0600 
    148 H148        3.0394  -23.6334  -44.1919 H         1 UNK         0.0600 
    149 H149        1.8118  -22.0298  -42.7882 H         1 UNK         0.3000 
    150 H150       -1.0496  -20.1075  -42.1976 H         1 UNK         0.0600 
    151 H151        1.1335  -20.7009  -40.1387 H         1 UNK         0.0600 
    152 H152       -0.5936  -20.9026  -39.8680 H         1 UNK         0.0600 
    153 H153        0.0613  -19.2997  -40.1561 H         1 UNK         0.0600 
    154 H154        1.4286  -19.0546  -42.1248 H         1 UNK         0.3000 
    155 H155        1.9512  -17.7397  -44.0071 H         1 UNK         0.0600 
    156 H156        3.6706  -20.0530  -45.0965 H         1 UNK         0.0600 
    157 H157        3.8597  -19.2934  -43.5190 H         1 UNK         0.0600 
    158 H158        4.1877  -18.3715  -44.9786 H         1 UNK         0.0600 
    159 H159        1.1503  -19.2433  -46.3507 H         1 UNK         0.3000 
    160 H160        1.0868  -18.3203  -48.4254 H         1 UNK         0.0600 
    161 H161       -0.5667  -15.8326  -47.7555 H         1 UNK         0.0600 
    162 H162       -0.9426  -17.4182  -47.0900 H         1 UNK         0.0600 
    163 H163       -0.9808  -17.1745  -48.8193 H         1 UNK         0.0600 
    164 H164        1.3572  -15.4477  -48.9647 H         1 UNK         0.3000 
    165 H165        4.6145  -15.6356  -50.3000 H         1 UNK         0.0600 
    166 H166        3.2204  -16.3705  -52.2434 H         1 UNK         0.0600 
    167 H167        1.9510  -15.2451  -51.7769 H         1 UNK         0.0600 
    168 H168        3.5227  -14.6406  -52.3011 H         1 UNK         0.0600 
    169 H169        2.6496  -13.5470  -50.1303 H         1 UNK         0.3000 
    170 H170        3.1411  -12.6148  -46.8347 H         1 UNK         0.0600 
    171 H171        3.9689  -10.3800  -47.5741 H         1 UNK         0.0600 
    172 H172        4.5800  -11.0944  -49.0672 H         1 UNK         0.0600 
    173 H173        5.2532  -11.5771  -47.5199 H         1 UNK         0.0600 
    174 H174        1.2340  -12.1280  -47.6925 H         1 UNK         0.3000 
    175 H175        0.0865  -10.4031  -50.4851 H         1 UNK         0.0600 
    176 H176       -1.4366  -12.3200  -51.0982 H         1 UNK         0.0600 
    177 H177        0.1789  -12.5497  -51.7391 H         1 UNK         0.0600 
    178 H178       -0.3210  -13.4365  -50.3086 H         1 UNK         0.0600 
    179 H179       -0.3935  -11.6163  -47.8662 H         1 UNK         0.3000 
    180 H180       -3.2958   -9.6136  -47.4197 H         1 UNK         0.0600 
    181 H181       -3.1270  -12.6733  -47.3006 H         1 UNK         0.0600 
    182 H182       -4.3067  -11.7686  -48.2431 H         1 UNK         0.0600 
    183 H183       -4.3242  -11.6632  -46.4895 H         1 UNK         0.0600 
    184 H184       -1.9136  -11.3705  -45.6524 H         1 UNK         0.3000 
    185 H185        0.9482   -9.6467  -44.9863 H         1 UNK         0.0600 
    186 H186       -0.4407   -7.9373  -43.7897 H         1 UNK         0.0600 
    187 H187       -1.4383   -9.2187  -43.1126 H         1 UNK         0.0600 
    188 H188        0.2663   -9.0925  -42.6743 H         1 UNK         0.0600 
    189 H189       -0.1431  -11.3979  -43.2025 H         1 UNK         0.3000 
    190 H190       -2.1825  -23.3913  -44.5329 H         1 UNK         0.3000 
    191 H191       -4.7479  -23.9868  -45.7319 H         1 UNK         0.0600 
    192 H192       -4.5226  -22.5613  -43.7074 H         1 UNK         0.0600 
    193 H193       -5.5015  -23.9764  -43.3509 H         1 UNK         0.0600 
    194 H194       -3.8290  -23.9088  -42.8061 H         1 UNK         0.0600 
    195 H195       -2.1014  -25.9231  -44.4755 H         1 UNK         0.3000 
    196 H196       -3.7315  -28.3961  -44.2933 H         1 UNK         0.0600 
    197 H197       -1.6404  -29.3592  -43.3883 H         1 UNK         0.0600 
    198 H198       -2.0573  -27.9011  -42.5023 H         1 UNK         0.0600 
    199 H199       -0.7699  -27.8649  -43.7069 H         1 UNK         0.0600 
    200 H200       -2.0907  -26.6178  -46.6613 H         1 UNK         0.3000 
    201 H201       -1.0998  -28.9111  -48.2385 H         1 UNK         0.0600 
    202 H202       -0.0896  -27.1747  -49.6419 H         1 UNK         0.0600 
    203 H203       -1.0045  -25.9068  -48.8387 H         1 UNK         0.0600 
    204 H204        0.2606  -26.7761  -47.9717 H         1 UNK         0.0600 
    205 H205       -1.5679  -28.3642  -50.7360 H         1 UNK         0.3000 
    206 H206       -4.3266  -28.9249  -51.2607 H         1 UNK         0.0600 
    207 H207       -2.4351  -29.7779  -52.6605 H         1 UNK         0.0600 
    208 H208       -3.5454  -28.8382  -53.6413 H         1 UNK         0.0600 
    209 H209       -2.0181  -28.1299  -53.1305 H         1 UNK         0.0600 
    210 H210       -5.7302  -27.6888  -52.6873 H         1 UNK         0.3000 
    211 H211       -6.2951  -25.1127  -51.8218 H         1 UNK         0.0600 
    212 H212       -7.1550  -26.5097  -54.4087 H         1 UNK         0.0600 
    213 H213       -7.9342  -25.0943  -53.7116 H         1 UNK         0.0600 
    214 H214       -7.9625  -26.6204  -52.8440 H         1 UNK         0.0600 
    215 H215       -4.3220  -26.0774  -54.6038 H         1 UNK         0.3000 
    216 H216       -4.0797  -23.5053  -55.8330 H         1 UNK         0.0600 
    217 H217       -2.1888  -24.5951  -57.0530 H         1 UNK         0.0600 
    218 H218       -3.6114  -25.6247  -57.0358 H         1 UNK         0.0600 
    219 H219       -2.2583  -25.9706  -55.9578 H         1 UNK         0.0600 
    220 H220       -2.4113  -25.0041  -53.1015 H         1 UNK         0.3000 
    221 H221       -0.2761  -22.9662  -53.0112 H         1 UNK         0.0600 
    222 H222       -0.9407  -25.3148  -51.1639 H         1 UNK         0.0600 
    223 H223        0.3110  -25.2865  -52.4013 H         1 UNK         0.0600 
    224 H224        0.4435  -24.2446  -50.9917 H         1 UNK         0.0600 
    225 H225       -3.2323  -23.9589  -51.2366 H         1 UNK         0.3000 
    226 H226       -3.1927  -22.0138  -49.2083 H         1 UNK         0.0600 
    227 H227       -5.5571  -22.5978  -48.9099 H         1 UNK         0.0600 
    228 H228       -5.6488  -23.2763  -50.5292 H         1 UNK         0.0600 
    229 H229       -4.6682  -24.0649  -49.2943 H         1 UNK         0.0600 
    230 H230       -4.2400  -21.7282  -52.5609 H         1 UNK         0.3000 
    231 H231       -5.6286  -19.2536  -52.3953 H         1 UNK         0.0600 
    232 H232       -4.2328  -20.6443  -54.7431 H         1 UNK         0.0600 
    233 H233       -5.3677  -19.3074  -54.8944 H         1 UNK         0.0600 
    234 H234       -5.9168  -20.8468  -54.2601 H         1 UNK         0.0600 
    235 H235       -2.3026  -19.7070  -51.8865 H         1 UNK         0.3000 
    236 H236       -1.0579  -17.6761  -53.3291 H         1 UNK         0.0600 
    237 H237        0.7036  -17.8375  -51.5180 H         1 UNK         0.0600 
    238 H238       -0.3946  -18.8402  -50.5762 H         1 UNK         0.0600 
    239 H239        0.2017  -19.4000  -52.1375 H         1 UNK         0.0600 
    240 H240       -3.1559  -17.2664  -50.5575 H         1 UNK         0.3000 
    241 H241       -2.3197  -14.5388  -49.9860 H         1 UNK         0.0600 
    242 H242       -4.1561  -15.7590  -52.6377 H         1 UNK         0.3800 
    243 H243       -5.0064  -14.2651  -52.9465 H         1 UNK         0.3800 
    244 H244       -4.2575  -14.5014  -48.4165 H         1 UNK         0.0800 
    245 H245       -3.1069  -15.7680  -48.1120 H         1 UNK         0.0800 
    246 H246       -5.8608  -15.8715  -46.7100 H         1 UNK         0.0800 
    247 H247       -6.4506  -17.4877  -47.0060 H         1 UNK         0.0800 
@<TRIPOS>BOND
     1    1    2 1    
     2    1  127 1    
     3    1  128 1    
     4    1  129 1    
     5    2    3 2    
     6    2    4 am   BACKBONE|DICT|INTERRES
     7    4    5 1    
     8    4  130 1    
     9    5    6 1    
    10    5   65 1    
    11    5  131 1    
    12    6    7 1    
    13    6  132 1    
    14    6  133 1    
    15    7    8 1    
    16    8    9 1    
    17    8  134 1    
    18    8  135 1    
    19    9   10 ar   
    20    9   14 ar   
    21   10   11 ar   
    22   10  136 1    
    23   11   12 ar   
    24   11  126 1    
    25   12   13 ar   
    26   12  137 1    
    27   13   14 ar   
    28   13   15 1    
    29   14  138 1    
    30   15   16 1    
    31   15  139 1    
    32   15  140 1    
    33   16   17 1    
    34   17   18 1    
    35   17  141 1    
    36   17  142 1    
    37   18   19 1    
    38   18   67 1    
    39   18  143 1    
    40   19   20 am   BACKBONE|DICT|INTERRES
    41   19  144 1    
    42   20   21 2    
    43   20   22 1    
    44   22   23 1    
    45   22   24 1    
    46   22  145 1    
    47   23  146 1    
    48   23  147 1    
    49   23  148 1    
    50   24   25 am   BACKBONE|DICT|INTERRES
    51   24  149 1    
    52   25   26 2    
    53   25   27 1    
    54   27   28 1    
    55   27   29 1    
    56   27  150 1    
    57   28  151 1    
    58   28  152 1    
    59   28  153 1    
    60   29   30 am   BACKBONE|DICT|INTERRES
    61   29  154 1    
    62   30   31 2    
    63   30   32 1    
    64   32   33 1    
    65   32   34 1    
    66   32  155 1    
    67   33  156 1    
    68   33  157 1    
    69   33  158 1    
    70   34   35 am   BACKBONE|DICT|INTERRES
    71   34  159 1    
    72   35   36 2    
    73   35   37 1    
    74   37   38 1    
    75   37   39 1    
    76   37  160 1    
    77   38  161 1    
    78   38  162 1    
    79   38  163 1    
    80   39   40 am   BACKBONE|DICT|INTERRES
    81   39  164 1    
    82   40   41 2    
    83   40   42 1    
    84   42   43 1    
    85   42   44 1    
    86   42  165 1    
    87   43  166 1    
    88   43  167 1    
    89   43  168 1    
    90   44   45 am   BACKBONE|DICT|INTERRES
    91   44  169 1    
    92   45   46 2    
    93   45   47 1    
    94   47   48 1    
    95   47   49 1    
    96   47  170 1    
    97   48  171 1    
    98   48  172 1    
    99   48  173 1    
   100   49   50 am   BACKBONE|DICT|INTERRES
   101   49  174 1    
   102   50   51 2    
   103   50   52 1    
   104   52   53 1    
   105   52   54 1    
   106   52  175 1    
   107   53  176 1    
   108   53  177 1    
   109   53  178 1    
   110   54   55 am   BACKBONE|DICT|INTERRES
   111   54  179 1    
   112   55   56 2    
   113   55   57 1    
   114   57   58 1    
   115   57   59 1    
   116   57  180 1    
   117   58  181 1    
   118   58  182 1    
   119   58  183 1    
   120   59   60 am   BACKBONE|DICT|INTERRES
   121   59  184 1    
   122   60   61 2    
   123   60   62 1    
   124   62   63 1    
   125   62   64 1    
   126   62  185 1    
   127   63  186 1    
   128   63  187 1    
   129   63  188 1    
   130   64   65 am   BACKBONE|DICT|INTERRES
   131   64  189 1    
   132   65   66 2    
   133   67   68 2    
   134   67   69 am   BACKBONE|DICT|INTERRES
   135   69   70 1    
   136   69  190 1    
   137   70   71 1    
   138   70   72 1    
   139   70  191 1    
   140   71  192 1    
   141   71  193 1    
   142   71  194 1    
   143   72   73 2    
   144   72   74 am   BACKBONE|DICT|INTERRES
   145   74   75 1    
   146   74  195 1    
   147   75   76 1    
   148   75   77 1    
   149   75  196 1    
   150   76  197 1    
   151   76  198 1    
   152   76  199 1    
   153   77   78 2    
   154   77   79 am   BACKBONE|DICT|INTERRES
   155   79   80 1    
   156   79  200 1    
   157   80   81 1    
   158   80   82 1    
   159   80  201 1    
   160   81  202 1    
   161   81  203 1    
   162   81  204 1    
   163   82   83 2    
   164   82   84 am   BACKBONE|DICT|INTERRES
   165   84   85 1    
   166   84  205 1    
   167   85   86 1    
   168   85   87 1    
   169   85  206 1    
   170   86  207 1    
   171   86  208 1    
   172   86  209 1    
   173   87   88 2    
   174   87   89 am   BACKBONE|DICT|INTERRES
   175   89   90 1    
   176   89  210 1    
   177   90   91 1    
   178   90   92 1    
   179   90  211 1    
   180   91  212 1    
   181   91  213 1    
   182   91  214 1    
   183   92   93 2    
   184   92   94 am   BACKBONE|DICT|INTERRES
   185   94   95 1    
   186   94  215 1    
   187   95   96 1    
   188   95   97 1    
   189   95  216 1    
   190   96  217 1    
   191   96  218 1    
   192   96  219 1    
   193   97   98 2    
   194   97   99 am   BACKBONE|DICT|INTERRES
   195   99  100 1    
   196   99  220 1    
   197  100  101 1    
   198  100  102 1    
   199  100  221 1    
   200  101  222 1    
   201  101  223 1    
   202  101  224 1    
   203  102  103 2    
   204  102  104 am   BACKBONE|DICT|INTERRES
   205  104  105 1    
   206  104  225 1    
   207  105  106 1    
   208  105  107 1    
   209  105  226 1    
   210  106  227 1    
   211  106  228 1    
   212  106  229 1    
   213  107  108 2    
   214  107  109 am   BACKBONE|DICT|INTERRES
   215  109  110 1    
   216  109  230 1    
   217  110  111 1    
   218  110  112 1    
   219  110  231 1    
   220  111  232 1    
   221  111  233 1    
   222  111  234 1    
   223  112  113 2    
   224  112  114 am   BACKBONE|DICT|INTERRES
   225  114  115 1    
   226  114  235 1    
   227  115  116 1    
   228  115  117 1    
   229  115  236 1    
   230  116  237 1    
   231  116  238 1    
   232  116  239 1    
   233  117  118 2    
   234  117  119 am   BACKBONE|DICT|INTERRES
   235  119  120 1    
   236  119  240 1    
   237  120  121 1    
   238  120  124 1    
   239  120  241 1    
   240  121  122 am   BACKBONE|DICT|INTERRES
   241  121  123 2    
   242  122  242 1    
   243  122  243 1    
   244  124  125 1    
   245  124  244 1    
   246  124  245 1    
   247  125  126 1    
   248  126  246 1    
   249  126  247 1    
@<TRIPOS>SUBSTRUCTURE
     1 UNK         1 GROUP             0       ****    0 ROOT    
