@<TRIPOS>MOLECULE
3R540
247   249    1
SMALL
USER_CHARGES


@<TRIPOS>ATOM
      1 CA          0.0258   -9.0075  -49.5603 C.3       0 UNK        -0.1800 
      2 C          -0.1415  -10.0030  -48.4219 C.2       0 UNK         0.5000 
      3 O           0.8414  -10.5877  -47.9675 O.2       0 UNK        -0.5000 
      4 N          -1.3789  -10.1851  -47.9388 N.am      1 UNK        -0.5000 
      5 CA         -1.7334  -11.1336  -46.8704 C.3       1 UNK         0.1400 
      6 C6         -3.2637  -11.3975  -46.8115 C.3       23 UNK        -0.0398 
      7 S7         -3.6269  -13.1825  -46.7243 S.3       23 UNK        -0.2404 
      8 C8         -4.0907  -13.5112  -48.4527 C.3       23 UNK        -0.0205 
      9 C9         -3.9350  -14.9827  -48.7966 C.ar      23 UNK        -0.0193 
     10 C10        -2.8434  -15.4132  -49.5579 C.ar      23 UNK        -0.1150 
     11 C11        -2.6932  -16.7646  -49.8794 C.ar      23 UNK        -0.0193 
     12 C12        -3.6444  -17.6832  -49.4345 C.ar      23 UNK        -0.1150 
     13 C13        -4.7293  -17.2709  -48.6554 C.ar      23 UNK        -0.0193 
     14 C14        -4.8768  -15.9152  -48.3507 C.ar      23 UNK        -0.1150 
     15 C15        -5.7304  -18.2929  -48.1338 C.3       23 UNK        -0.0205 
     16 S16        -5.5563  -18.6234  -46.3465 S.3       23 UNK        -0.2404 
     17 C17        -3.7622  -18.8942  -46.1216 C.3       23 UNK        -0.0398 
     18 CA         -3.1726  -20.0937  -46.9038 C.3       11 UNK         0.1400 
     19 N          -1.7146  -19.9997  -47.0240 N.am      11 UNK        -0.5000 
     20 C          -0.9500  -20.7946  -47.7860 C.2       10 UNK         0.5000 
     21 O          -1.4010  -21.6697  -48.5202 O.2       10 UNK        -0.5000 
     22 CA          0.5751  -20.6191  -47.6787 C.3       10 UNK         0.1400 
     23 CB          1.0608  -19.4717  -48.5760 C.3       10 UNK        -0.1800 
     24 N           1.0165  -20.3968  -46.3016 N.am      10 UNK        -0.5000 
     25 C           0.9030  -21.3003  -45.3166 C.2       9 UNK         0.5000 
     26 O           0.4723  -22.4408  -45.4803 O.2       9 UNK        -0.5000 
     27 CA          1.2807  -20.8371  -43.8992 C.3       9 UNK         0.1400 
     28 CB          2.8025  -20.8724  -43.6942 C.3       9 UNK        -0.1800 
     29 N           0.7748  -19.4993  -43.5973 N.am      9 UNK        -0.5000 
     30 C          -0.5209  -19.1613  -43.5517 C.2       8 UNK         0.5000 
     31 O          -1.4439  -19.9595  -43.7157 O.2       8 UNK        -0.5000 
     32 CA         -0.8349  -17.6699  -43.3406 C.3       8 UNK         0.1400 
     33 CB         -0.7296  -17.2851  -41.8569 C.3       8 UNK        -0.1800 
     34 N           0.0355  -16.8047  -44.1377 N.am      8 UNK        -0.5000 
     35 C           0.0034  -16.7260  -45.4754 C.2       7 UNK         0.5000 
     36 O          -0.7733  -17.3704  -46.1782 O.2       7 UNK        -0.5000 
     37 CA          1.0447  -15.8079  -46.1403 C.3       7 UNK         0.1400 
     38 CB          0.5694  -14.3475  -46.1190 C.3       7 UNK        -0.1800 
     39 N           2.3682  -15.9094  -45.5210 N.am      7 UNK        -0.5000 
     40 C           3.1152  -17.0221  -45.5227 C.2       6 UNK         0.5000 
     41 O           2.7728  -18.0739  -46.0630 O.2       6 UNK        -0.5000 
     42 CA          4.4459  -16.9705  -44.7499 C.3       6 UNK         0.1400 
     43 CB          5.5227  -16.2349  -45.5621 C.3       6 UNK        -0.1800 
     44 N           4.3423  -16.3713  -43.4154 N.am      6 UNK        -0.5000 
     45 C           3.5285  -16.7927  -42.4362 C.2       5 UNK         0.5000 
     46 O           2.7048  -17.6936  -42.5801 O.2       5 UNK        -0.5000 
     47 CA          3.6377  -16.1078  -41.0596 C.3       5 UNK         0.1400 
     48 CB          4.1803  -17.1009  -40.0203 C.3       5 UNK        -0.1800 
     49 N           4.5010  -14.9229  -41.0616 N.am      5 UNK        -0.5000 
     50 C           4.1829  -13.6733  -41.4264 C.2       4 UNK         0.5000 
     51 O           5.0204  -12.7709  -41.3832 O.2       4 UNK        -0.5000 
     52 CA          2.7413  -13.3384  -41.8774 C.3       4 UNK         0.1400 
     53 CB          1.8778  -12.9177  -40.6782 C.3       4 UNK        -0.1800 
     54 N           2.7449  -12.2512  -42.8509 N.am      4 UNK        -0.5000 
     55 C           3.1637  -12.3569  -44.1153 C.2       3 UNK         0.5000 
     56 O           3.4682  -13.4349  -44.6295 O.2       3 UNK        -0.5000 
     57 CA          3.2419  -11.0457  -44.9298 C.3       3 UNK         0.1400 
     58 CB          3.7220  -11.2807  -46.3729 C.3       3 UNK        -0.1800 
     59 N           1.9670  -10.3238  -44.9674 N.am      3 UNK        -0.5000 
     60 C           1.4224   -9.6310  -43.9544 C.2       2 UNK         0.5000 
     61 O           1.9739   -9.4903  -42.8616 O.2       2 UNK        -0.5000 
     62 CA          0.0331   -8.9951  -44.1753 C.3       2 UNK         0.1400 
     63 CB          0.1557   -7.4692  -44.3083 C.3       2 UNK        -0.1800 
     64 N          -0.6736   -9.5112  -45.3476 N.am      2 UNK        -0.5000 
     65 C          -1.1611  -10.7527  -45.4835 C.2       1 UNK         0.5000 
     66 O          -1.1472  -11.5867  -44.5782 O.2       1 UNK        -0.5000 
     67 C          -3.6299  -21.4545  -46.3417 C.2       11 UNK         0.5000 
     68 O          -4.5549  -22.0559  -46.8897 O.2       11 UNK        -0.5000 
     69 N          -2.9438  -21.9323  -45.2970 N.am      12 UNK        -0.5000 
     70 CA         -3.2103  -23.2106  -44.6395 C.3       12 UNK         0.1400 
     71 CB         -2.5162  -23.2040  -43.2684 C.3       12 UNK        -0.1800 
     72 C          -2.7785  -24.4502  -45.4510 C.2       12 UNK         0.5000 
     73 O          -3.2624  -25.5450  -45.1600 O.2       12 UNK        -0.5000 
     74 N          -1.8592  -24.2822  -46.4116 N.am      13 UNK        -0.5000 
     75 CA         -1.2578  -25.3677  -47.1865 C.3       13 UNK         0.1400 
     76 CB         -0.0718  -24.8222  -47.9973 C.3       13 UNK        -0.1800 
     77 C          -2.2547  -26.0750  -48.1223 C.2       13 UNK         0.5000 
     78 O          -3.0414  -25.4060  -48.7980 O.2       13 UNK        -0.5000 
     79 N          -2.1383  -27.4103  -48.1831 N.am      14 UNK        -0.5000 
     80 CA         -2.8665  -28.3422  -49.0517 C.3       14 UNK         0.1400 
     81 CB         -2.3176  -28.2514  -50.4919 C.3       14 UNK        -0.1800 
     82 C          -4.3998  -28.1846  -48.9511 C.2       14 UNK         0.5000 
     83 O          -4.9251  -28.0663  -47.8428 O.2       14 UNK        -0.5000 
     84 N          -5.0952  -28.1609  -50.0954 N.am      15 UNK        -0.5000 
     85 CA         -6.5418  -27.9552  -50.2211 C.3       15 UNK         0.1400 
     86 CB         -7.0151  -28.6223  -51.5260 C.3       15 UNK        -0.1800 
     87 C          -6.9344  -26.4608  -50.1418 C.2       15 UNK         0.5000 
     88 O          -7.7886  -26.0121  -50.9077 O.2       15 UNK        -0.5000 
     89 N          -6.2864  -25.7327  -49.2215 N.am      16 UNK        -0.5000 
     90 CA         -6.2855  -24.2852  -48.9969 C.3       16 UNK         0.1400 
     91 CB         -7.7027  -23.7308  -48.7607 C.3       16 UNK        -0.1800 
     92 C          -5.5578  -23.5155  -50.1141 C.2       16 UNK         0.5000 
     93 O          -5.6845  -23.8422  -51.2970 O.2       16 UNK        -0.5000 
     94 N          -4.7906  -22.4946  -49.7119 N.am      17 UNK        -0.5000 
     95 CA         -3.9966  -21.6110  -50.5733 C.3       17 UNK         0.1400 
     96 CB         -4.9223  -20.6868  -51.3925 C.3       17 UNK        -0.1800 
     97 C          -2.9801  -22.3641  -51.4551 C.2       17 UNK         0.5000 
     98 O          -2.7728  -21.9789  -52.6053 O.2       17 UNK        -0.5000 
     99 N          -2.4029  -23.4545  -50.9296 N.am      18 UNK        -0.5000 
    100 CA        -1.5154  -24.3935  -51.6255 C.3       18 UNK         0.1400 
    101 CB        -0.1790  -23.7167  -51.9914 C.3       18 UNK        -0.1800 
    102 C         -2.2090  -25.0656  -52.8312 C.2       18 UNK         0.5000 
    103 O         -1.5774  -25.2830  -53.8654 O.2       18 UNK        -0.5000 
    104 N         -3.5088  -25.3572  -52.6629 N.am      19 UNK        -0.5000 
    105 CA        -4.4605  -25.8240  -53.6736 C.3       19 UNK         0.1400 
    106 CB        -4.0600  -27.2026  -54.2399 C.3       19 UNK        -0.1800 
    107 C         -4.7040  -24.7470  -54.7509 C.2       19 UNK         0.5000 
    108 O         -4.6078  -25.0279  -55.9469 O.2       19 UNK        -0.5000 
    109 N         -5.0177  -23.5298  -54.2801 N.am      20 UNK        -0.5000 
    110 CA        -5.3059  -22.3159  -55.0532 C.3       20 UNK         0.1400 
    111 CB        -6.6469  -22.4629  -55.8022 C.3       20 UNK        -0.1800 
    112 C         -4.1409  -21.8842  -55.9701 C.2       20 UNK         0.5000 
    113 O         -4.3358  -21.6953  -57.1732 O.2       20 UNK        -0.5000 
    114 N         -2.9479  -21.7395  -55.3814 N.am      21 UNK        -0.5000 
    115 CA        -1.7171  -21.3622  -56.0801 C.3       21 UNK         0.1400 
    116 CB        -0.9581  -22.6375  -56.4844 C.3       21 UNK        -0.1800 
    117 C         -0.8042  -20.4275  -55.2643 C.2       21 UNK         0.5000 
    118 O         -0.0160  -19.6989  -55.8680 O.2       21 UNK        -0.5000 
    119 N         -0.8940  -20.4709  -53.9274 N.am      22 UNK        -0.5000 
    120 CA        -0.0475  -19.7476  -52.9574 C.3       22 UNK         0.1400 
    121 C          1.4646  -20.1413  -52.9645 C.2       22 UNK         0.5000 
    122 N          1.8755  -21.2148  -53.6280 N.am      22 UNK        -0.7600 
    123 O          2.2808  -19.4871  -52.3217 O.2       22 UNK        -0.5000 
    124 C124       -0.2650  -18.2070  -52.9863 C.3       23 UNK        -0.0398 
    125 S125       -1.9148  -17.7240  -52.3715 S.3       23 UNK        -0.2404 
    126 C126       -1.4855  -17.2461  -50.6673 C.3       23 UNK        -0.0205 
    127 H127       -0.9246   -8.5586  -49.8498 H         1 UNK         0.0600 
    128 H128        0.4471   -9.5055  -50.4334 H         1 UNK         0.0600 
    129 H129        0.7039   -8.2079  -49.2622 H         1 UNK         0.0600 
    130 H130       -2.1447   -9.6612  -48.3387 H         1 UNK         0.3000 
    131 H131       -1.2319  -12.0644  -47.1426 H         1 UNK         0.0600 
    132 H132       -3.7338  -10.9047  -45.9580 H         1 UNK         0.0800 
    133 H133       -3.7700  -10.9846  -47.6850 H         1 UNK         0.0800 
    134 H134       -5.1225  -13.1977  -48.6181 H         1 UNK         0.0800 
    135 H135       -3.4729  -12.9080  -49.1202 H         1 UNK         0.0800 
    136 H136       -2.1066  -14.6971  -49.8938 H         1 UNK         0.1150 
    137 H137       -3.5229  -18.7223  -49.6928 H         1 UNK         0.1150 
    138 H138       -5.7131  -15.5882  -47.7487 H         1 UNK         0.1150 
    139 H139       -6.7427  -17.9359  -48.3280 H         1 UNK         0.0800 
    140 H140       -5.6386  -19.2362  -48.6701 H         1 UNK         0.0800 
    141 H141       -3.5621  -18.9944  -45.0543 H         1 UNK         0.0800 
    142 H142       -3.2653  -17.9722  -46.4232 H         1 UNK         0.0800 
    143 H143       -3.5575  -20.0468  -47.9173 H         1 UNK         0.0600 
    144 H144       -1.2669  -19.2554  -46.4976 H         1 UNK         0.3000 
    145 H145        1.0388  -21.5426  -48.0319 H         1 UNK         0.0600 
    146 H146        2.1468  -19.3816  -48.5458 H         1 UNK         0.0600 
    147 H147        0.7807  -19.6447  -49.6155 H         1 UNK         0.0600 
    148 H148        0.6386  -18.5136  -48.2717 H         1 UNK         0.0600 
    149 H149        1.4349  -19.4938  -46.0956 H         1 UNK         0.3000 
    150 H150        0.8256  -21.5317  -43.1902 H         1 UNK         0.0600 
    151 H151        3.1999  -21.8690  -43.8896 H         1 UNK         0.0600 
    152 H152        3.0675  -20.6103  -42.6697 H         1 UNK         0.0600 
    153 H153        3.3155  -20.1771  -44.3589 H         1 UNK         0.0600 
    154 H154        1.4721  -18.7839  -43.4033 H         1 UNK         0.3000 
    155 H155       -1.8647  -17.4987  -43.6613 H         1 UNK         0.0600 
    156 H156       -1.4017  -17.8932  -41.2502 H         1 UNK         0.0600 
    157 H157       -1.0049  -16.2421  -41.6997 H         1 UNK         0.0600 
    158 H158        0.2790  -17.4280  -41.4688 H         1 UNK         0.0600 
    159 H159        0.7478  -16.2912  -43.6422 H         1 UNK         0.3000 
    160 H160        1.1384  -16.1179  -47.1832 H         1 UNK         0.0600 
    161 H161        0.5019  -13.9582  -45.1023 H         1 UNK         0.0600 
    162 H162       -0.4188  -14.2563  -46.5715 H         1 UNK         0.0600 
    163 H163        1.2453  -13.7023  -46.6802 H         1 UNK         0.0600 
    164 H164        2.7490  -15.0653  -45.0973 H         1 UNK         0.3000 
    165 H165        4.7776  -18.0016  -44.6124 H         1 UNK         0.0600 
    166 H166        6.4951  -16.2945  -45.0731 H         1 UNK         0.0600 
    167 H167        5.6316  -16.6747  -46.5543 H         1 UNK         0.0600 
    168 H168        5.2787  -15.1805  -45.6959 H         1 UNK         0.0600 
    169 H169        4.9703  -15.6060  -43.2186 H         1 UNK         0.3000 
    170 H170        2.6295  -15.8319  -40.7480 H         1 UNK         0.0600 
    171 H171        3.5466  -17.9866  -39.9545 H         1 UNK         0.0600 
    172 H172        5.1876  -17.4366  -40.2701 H         1 UNK         0.0600 
    173 H173        4.2119  -16.6538  -39.0264 H         1 UNK         0.0600 
    174 H174        5.4495  -15.0908  -40.7592 H         1 UNK         0.3000 
    175 H175        2.2794  -14.2013  -42.3572 H         1 UNK         0.0600 
    176 H176        2.2766  -12.0276  -40.1896 H         1 UNK         0.0600 
    177 H177        0.8554  -12.6992  -40.9874 H         1 UNK         0.0600 
    178 H178        1.8282  -13.7075  -39.9281 H         1 UNK         0.0600 
    179 H179        2.5223  -11.3220  -42.5078 H         1 UNK         0.3000 
    180 H180        3.9811  -10.4107  -44.4373 H         1 UNK         0.0600 
    181 H181        3.0369  -11.9255  -46.9244 H         1 UNK         0.0600 
    182 H182        4.7035  -11.7562  -46.3871 H         1 UNK         0.0600 
    183 H183        3.8086  -10.3412  -46.9189 H         1 UNK         0.0600 
    184 H184        1.4461  -10.3991  -45.8329 H         1 UNK         0.3000 
    185 H185       -0.5690   -9.2158  -43.2915 H         1 UNK         0.0600 
    186 H186        0.6465   -7.0378  -43.4348 H         1 UNK         0.0600 
    187 H187        0.7399   -7.1877  -45.1853 H         1 UNK         0.0600 
    188 H188       -0.8248   -6.9998  -44.3918 H         1 UNK         0.0600 
    189 H189       -0.7266   -8.8964  -46.1466 H         1 UNK         0.3000 
    190 H190       -2.2167  -21.3540  -44.8854 H         1 UNK         0.3000 
    191 H191       -4.2869  -23.2897  -44.4748 H         1 UNK         0.0600 
    192 H192       -2.8696  -22.3777  -42.6511 H         1 UNK         0.0600 
    193 H193       -2.7151  -24.1266  -42.7217 H         1 UNK         0.0600 
    194 H194       -1.4344  -23.1067  -43.3689 H         1 UNK         0.0600 
    195 H195       -1.5022  -23.3518  -46.5823 H         1 UNK         0.3000 
    196 H196       -0.8695  -26.0978  -46.4733 H         1 UNK         0.0600 
    197 H197        0.4181  -25.6187  -48.5587 H         1 UNK         0.0600 
    198 H198        0.6808  -24.3748  -47.3488 H         1 UNK         0.0600 
    199 H199       -0.3879  -24.0664  -48.7154 H         1 UNK         0.0600 
    200 H200       -1.4774  -27.8500  -47.5585 H         1 UNK         0.3000 
    201 H201       -2.6449  -29.3429  -48.6782 H         1 UNK         0.0600 
    202 H202       -1.2330  -28.3597  -50.5050 H         1 UNK         0.0600 
    203 H203       -2.5579  -27.2957  -50.9522 H         1 UNK         0.0600 
    204 H204       -2.7218  -29.0419  -51.1254 H         1 UNK         0.0600 
    205 H205       -4.5839  -28.2385  -50.9618 H         1 UNK         0.3000 
    206 H206       -7.0428  -28.4588  -49.3917 H         1 UNK         0.0600 
    207 H207       -6.7475  -29.6788  -51.5485 H         1 UNK         0.0600 
    208 H208       -8.0996  -28.5642  -51.6269 H         1 UNK         0.0600 
    209 H209       -6.5766  -28.1463  -52.4037 H         1 UNK         0.0600 
    210 H210       -5.6082  -26.2366  -48.6615 H         1 UNK         0.3000 
    211 H211       -5.7185  -24.1481  -48.0751 H         1 UNK         0.0600 
    212 H212       -8.3103  -23.7616  -49.6653 H         1 UNK         0.0600 
    213 H213       -7.6585  -22.6901  -48.4372 H         1 UNK         0.0600 
    214 H214       -8.2228  -24.2914  -47.9841 H         1 UNK         0.0600 
    215 H215       -4.7136  -22.3259  -48.7105 H         1 UNK         0.3000 
    216 H216       -3.4010  -20.9794  -49.9219 H         1 UNK         0.0600 
    217 H217       -4.3486  -19.9677  -51.9789 H         1 UNK         0.0600 
    218 H218       -5.5884  -20.1164  -50.7487 H         1 UNK         0.0600 
    219 H219       -5.5479  -21.2525  -52.0806 H         1 UNK         0.0600 
    220 H220       -2.6572  -23.7222  -49.9842 H         1 UNK         0.3000 
    221 H221       -1.2915  -25.1906  -50.9170 H         1 UNK         0.0600 
    222 H222       -0.3022  -22.9893  -52.7919 H         1 UNK         0.0600 
    223 H223        0.2540  -23.2027  -51.1330 H         1 UNK         0.0600 
    224 H224        0.5493  -24.4530  -52.3322 H         1 UNK         0.0600 
    225 H225       -3.9366  -25.0604  -51.7941 H         1 UNK         0.3000 
    226 H226       -5.4119  -25.9534  -53.1552 H         1 UNK         0.0600 
    227 H227       -3.8990  -27.9262  -53.4412 H         1 UNK         0.0600 
    228 H228       -4.8464  -27.5985  -54.8831 H         1 UNK         0.0600 
    229 H229       -3.1490  -27.1524  -54.8364 H         1 UNK         0.0600 
    230 H230       -5.0803  -23.4308  -53.2723 H         1 UNK         0.3000 
    231 H231       -5.4281  -21.5086  -54.3323 H         1 UNK         0.0600 
    232 H232       -6.6026  -23.2386  -56.5672 H         1 UNK         0.0600 
    233 H233       -6.9221  -21.5307  -56.2970 H         1 UNK         0.0600 
    234 H234       -7.4549  -22.7152  -55.1155 H         1 UNK         0.0600 
    235 H235       -2.8821  -21.9054  -54.3790 H         1 UNK         0.3000 
    236 H236       -1.9699  -20.8129  -56.9894 H         1 UNK         0.0600 
    237 H237       -1.5594  -23.2599  -57.1473 H         1 UNK         0.0600 
    238 H238       -0.0350  -22.3966  -57.0130 H         1 UNK         0.0600 
    239 H239       -0.6943  -23.2382  -55.6131 H         1 UNK         0.0600 
    240 H240       -1.5849  -21.0827  -53.4990 H         1 UNK         0.3000 
    241 H241       -0.3882  -20.0980  -51.9823 H         1 UNK         0.0600 
    242 H242        2.8526  -21.4607  -53.6103 H         1 UNK         0.3800 
    243 H243        1.2285  -21.7671  -54.1649 H         1 UNK         0.3800 
    244 H244        0.4828  -17.6881  -52.3851 H         1 UNK         0.0800 
    245 H245       -0.1410  -17.8181  -53.9972 H         1 UNK         0.0800 
    246 H246       -1.0482  -18.1033  -50.1553 H         1 UNK         0.0800 
    247 H247       -0.7165  -16.4723  -50.6891 H         1 UNK         0.0800 
@<TRIPOS>BOND
     1    1    2 1    
     2    1  127 1    
     3    1  128 1    
     4    1  129 1    
     5    2    3 2    
     6    2    4 am   BACKBONE|DICT|INTERRES
     7    4    5 1    
     8    4  130 1    
     9    5    6 1    
    10    5   65 1    
    11    5  131 1    
    12    6    7 1    
    13    6  132 1    
    14    6  133 1    
    15    7    8 1    
    16    8    9 1    
    17    8  134 1    
    18    8  135 1    
    19    9   10 ar   
    20    9   14 ar   
    21   10   11 ar   
    22   10  136 1    
    23   11   12 ar   
    24   11  126 1    
    25   12   13 ar   
    26   12  137 1    
    27   13   14 ar   
    28   13   15 1    
    29   14  138 1    
    30   15   16 1    
    31   15  139 1    
    32   15  140 1    
    33   16   17 1    
    34   17   18 1    
    35   17  141 1    
    36   17  142 1    
    37   18   19 1    
    38   18   67 1    
    39   18  143 1    
    40   19   20 am   BACKBONE|DICT|INTERRES
    41   19  144 1    
    42   20   21 2    
    43   20   22 1    
    44   22   23 1    
    45   22   24 1    
    46   22  145 1    
    47   23  146 1    
    48   23  147 1    
    49   23  148 1    
    50   24   25 am   BACKBONE|DICT|INTERRES
    51   24  149 1    
    52   25   26 2    
    53   25   27 1    
    54   27   28 1    
    55   27   29 1    
    56   27  150 1    
    57   28  151 1    
    58   28  152 1    
    59   28  153 1    
    60   29   30 am   BACKBONE|DICT|INTERRES
    61   29  154 1    
    62   30   31 2    
    63   30   32 1    
    64   32   33 1    
    65   32   34 1    
    66   32  155 1    
    67   33  156 1    
    68   33  157 1    
    69   33  158 1    
    70   34   35 am   BACKBONE|DICT|INTERRES
    71   34  159 1    
    72   35   36 2    
    73   35   37 1    
    74   37   38 1    
    75   37   39 1    
    76   37  160 1    
    77   38  161 1    
    78   38  162 1    
    79   38  163 1    
    80   39   40 am   BACKBONE|DICT|INTERRES
    81   39  164 1    
    82   40   41 2    
    83   40   42 1    
    84   42   43 1    
    85   42   44 1    
    86   42  165 1    
    87   43  166 1    
    88   43  167 1    
    89   43  168 1    
    90   44   45 am   BACKBONE|DICT|INTERRES
    91   44  169 1    
    92   45   46 2    
    93   45   47 1    
    94   47   48 1    
    95   47   49 1    
    96   47  170 1    
    97   48  171 1    
    98   48  172 1    
    99   48  173 1    
   100   49   50 am   BACKBONE|DICT|INTERRES
   101   49  174 1    
   102   50   51 2    
   103   50   52 1    
   104   52   53 1    
   105   52   54 1    
   106   52  175 1    
   107   53  176 1    
   108   53  177 1    
   109   53  178 1    
   110   54   55 am   BACKBONE|DICT|INTERRES
   111   54  179 1    
   112   55   56 2    
   113   55   57 1    
   114   57   58 1    
   115   57   59 1    
   116   57  180 1    
   117   58  181 1    
   118   58  182 1    
   119   58  183 1    
   120   59   60 am   BACKBONE|DICT|INTERRES
   121   59  184 1    
   122   60   61 2    
   123   60   62 1    
   124   62   63 1    
   125   62   64 1    
   126   62  185 1    
   127   63  186 1    
   128   63  187 1    
   129   63  188 1    
   130   64   65 am   BACKBONE|DICT|INTERRES
   131   64  189 1    
   132   65   66 2    
   133   67   68 2    
   134   67   69 am   BACKBONE|DICT|INTERRES
   135   69   70 1    
   136   69  190 1    
   137   70   71 1    
   138   70   72 1    
   139   70  191 1    
   140   71  192 1    
   141   71  193 1    
   142   71  194 1    
   143   72   73 2    
   144   72   74 am   BACKBONE|DICT|INTERRES
   145   74   75 1    
   146   74  195 1    
   147   75   76 1    
   148   75   77 1    
   149   75  196 1    
   150   76  197 1    
   151   76  198 1    
   152   76  199 1    
   153   77   78 2    
   154   77   79 am   BACKBONE|DICT|INTERRES
   155   79   80 1    
   156   79  200 1    
   157   80   81 1    
   158   80   82 1    
   159   80  201 1    
   160   81  202 1    
   161   81  203 1    
   162   81  204 1    
   163   82   83 2    
   164   82   84 am   BACKBONE|DICT|INTERRES
   165   84   85 1    
   166   84  205 1    
   167   85   86 1    
   168   85   87 1    
   169   85  206 1    
   170   86  207 1    
   171   86  208 1    
   172   86  209 1    
   173   87   88 2    
   174   87   89 am   BACKBONE|DICT|INTERRES
   175   89   90 1    
   176   89  210 1    
   177   90   91 1    
   178   90   92 1    
   179   90  211 1    
   180   91  212 1    
   181   91  213 1    
   182   91  214 1    
   183   92   93 2    
   184   92   94 am   BACKBONE|DICT|INTERRES
   185   94   95 1    
   186   94  215 1    
   187   95   96 1    
   188   95   97 1    
   189   95  216 1    
   190   96  217 1    
   191   96  218 1    
   192   96  219 1    
   193   97   98 2    
   194   97   99 am   BACKBONE|DICT|INTERRES
   195   99  100 1    
   196   99  220 1    
   197  100  101 1    
   198  100  102 1    
   199  100  221 1    
   200  101  222 1    
   201  101  223 1    
   202  101  224 1    
   203  102  103 2    
   204  102  104 am   BACKBONE|DICT|INTERRES
   205  104  105 1    
   206  104  225 1    
   207  105  106 1    
   208  105  107 1    
   209  105  226 1    
   210  106  227 1    
   211  106  228 1    
   212  106  229 1    
   213  107  108 2    
   214  107  109 am   BACKBONE|DICT|INTERRES
   215  109  110 1    
   216  109  230 1    
   217  110  111 1    
   218  110  112 1    
   219  110  231 1    
   220  111  232 1    
   221  111  233 1    
   222  111  234 1    
   223  112  113 2    
   224  112  114 am   BACKBONE|DICT|INTERRES
   225  114  115 1    
   226  114  235 1    
   227  115  116 1    
   228  115  117 1    
   229  115  236 1    
   230  116  237 1    
   231  116  238 1    
   232  116  239 1    
   233  117  118 2    
   234  117  119 am   BACKBONE|DICT|INTERRES
   235  119  120 1    
   236  119  240 1    
   237  120  121 1    
   238  120  124 1    
   239  120  241 1    
   240  121  122 am   BACKBONE|DICT|INTERRES
   241  121  123 2    
   242  122  242 1    
   243  122  243 1    
   244  124  125 1    
   245  124  244 1    
   246  124  245 1    
   247  125  126 1    
   248  126  246 1    
   249  126  247 1    
@<TRIPOS>SUBSTRUCTURE
     1 UNK         1 GROUP             0       ****    0 ROOT    
