@<TRIPOS>MOLECULE
3R540
247   249    1
SMALL
USER_CHARGES


@<TRIPOS>ATOM
      1 CA          8.3480  -11.7160  -47.2627 C.3       0 UNK        -0.1800 
      2 C           7.2593  -12.4454  -46.4889 C.2       0 UNK         0.5000 
      3 O           7.3713  -12.6052  -45.2726 O.2       0 UNK        -0.5000 
      4 N           6.2025  -12.8831  -47.1839 N.am      1 UNK        -0.5000 
      5 CA          5.0538  -13.6066  -46.6250 C.3       1 UNK         0.1400 
      6 C6          4.3761  -14.5226  -47.6751 C.3       23 UNK        -0.0398 
      7 S7          5.5364  -15.7244  -48.4101 S.3       23 UNK        -0.2404 
      8 C8          5.2929  -15.4457  -50.1930 C.3       23 UNK        -0.0205 
      9 C9          4.0091  -16.0851  -50.7045 C.ar      23 UNK        -0.0193 
     10 C10         2.9203  -15.2962  -51.0911 C.ar      23 UNK        -0.1150 
     11 C11         1.7498  -15.8789  -51.5927 C.ar      23 UNK        -0.0193 
     12 C12         1.6934  -17.2742  -51.7144 C.ar      23 UNK        -0.1150 
     13 C13         2.7630  -18.0750  -51.3115 C.ar      23 UNK        -0.0193 
     14 C14         3.9205  -17.4752  -50.8121 C.ar      23 UNK        -0.1150 
     15 C15         2.6661  -19.5886  -51.4187 C.3       23 UNK        -0.0205 
     16 S16         2.0533  -20.3309  -49.8745 S.3       23 UNK        -0.2404 
     17 C17         0.2884  -19.8631  -49.8930 C.3       23 UNK        -0.0398 
     18 CA         -0.5718  -20.8529  -49.0678 C.3       11 UNK         0.1400 
     19 N          -0.1793  -20.8657  -47.6497 N.am      11 UNK        -0.5000 
     20 C          -0.3365  -21.8761  -46.7817 C.2       10 UNK         0.5000 
     21 O          -0.9685  -22.9003  -47.0513 O.2       10 UNK        -0.5000 
     22 CA          0.2445  -21.6947  -45.3644 C.3       10 UNK         0.1400 
     23 CB          0.7021  -23.0218  -44.7302 C.3       10 UNK        -0.1800 
     24 N           1.2959  -20.6801  -45.2904 N.am      10 UNK        -0.5000 
     25 C           2.5149  -20.6891  -45.8513 C.2       9 UNK         0.5000 
     26 O           2.9748  -21.6365  -46.4883 O.2       9 UNK        -0.5000 
     27 CA          3.3615  -19.4135  -45.6651 C.3       9 UNK         0.1400 
     28 CB          3.6540  -18.7354  -47.0124 C.3       9 UNK        -0.1800 
     29 N           2.6839  -18.4490  -44.7938 N.am      9 UNK        -0.5000 
     30 C           3.0050  -18.2225  -43.5142 C.2       8 UNK         0.5000 
     31 O           3.9809  -18.7181  -42.9500 O.2       8 UNK        -0.5000 
     32 CA          2.0558  -17.3093  -42.7199 C.3       8 UNK         0.1400 
     33 CB          2.3984  -15.8320  -42.9627 C.3       8 UNK        -0.1800 
     34 N           0.6376  -17.5408  -43.0144 N.am      8 UNK        -0.5000 
     35 C          -0.0394  -18.6473  -42.6683 C.2       7 UNK         0.5000 
     36 O           0.4889  -19.6321  -42.1541 O.2       7 UNK        -0.5000 
     37 CA         -1.5517  -18.6759  -42.9446 C.3       7 UNK         0.1400 
     38 CB         -2.3117  -17.9271  -41.8391 C.3       7 UNK        -0.1800 
     39 N          -1.8738  -18.0721  -44.2340 N.am      7 UNK        -0.5000 
     40 C          -2.4103  -18.7193  -45.2777 C.2       6 UNK         0.5000 
     41 O          -2.7084  -19.9155  -45.2815 O.2       6 UNK        -0.5000 
     42 CA         -2.6444  -17.8862  -46.5522 C.3       6 UNK         0.1400 
     43 CB         -4.0057  -17.1768  -46.4615 C.3       6 UNK        -0.1800 
     44 N          -1.6248  -16.8741  -46.8190 N.am      6 UNK        -0.5000 
     45 C          -0.2939  -17.0219  -46.7873 C.2       5 UNK         0.5000 
     46 O           0.2845  -18.0983  -46.6370 O.2       5 UNK        -0.5000 
     47 CA          0.5277  -15.7210  -46.8469 C.3       5 UNK         0.1400 
     48 CB          0.9553  -15.4412  -48.2882 C.3       5 UNK        -0.1800 
     49 N          -0.1803  -14.5480  -46.3173 N.am      5 UNK        -0.5000 
     50 C          -0.6715  -14.4386  -45.0754 C.2       4 UNK         0.5000 
     51 O          -0.5760  -15.3233  -44.2212 O.2       4 UNK        -0.5000 
     52 CA         -1.4142  -13.1453  -44.7343 C.3       4 UNK         0.1400 
     53 CB         -2.7832  -13.4449  -44.0909 C.3       4 UNK        -0.1800 
     54 N          -0.5717  -12.3759  -43.8305 N.am      4 UNK        -0.5000 
     55 C          -0.7269  -11.0847  -43.5281 C.2       3 UNK         0.5000 
     56 O          -1.6300  -10.3782  -43.9781 O.2       3 UNK        -0.5000 
     57 CA          0.3162  -10.4642  -42.5821 C.3       3 UNK         0.1400 
     58 CB          0.3443  -11.1586  -41.2047 C.3       3 UNK        -0.1800 
     59 N           1.6513  -10.3772  -43.1848 N.am      3 UNK        -0.5000 
     60 C           2.4907  -11.3701  -43.5104 C.2       2 UNK         0.5000 
     61 O           2.2693  -12.5645  -43.2985 O.2       2 UNK        -0.5000 
     62 CA          3.8196  -10.9218  -44.1497 C.3       2 UNK         0.1400 
     63 CB          4.7779  -10.3846  -43.0742 C.3       2 UNK        -0.1800 
     64 N           4.5105  -11.9762  -44.8907 N.am      2 UNK        -0.5000 
     65 C           4.0653  -12.6060  -45.9848 C.2       1 UNK         0.5000 
     66 O           2.9746  -12.3796  -46.5125 O.2       1 UNK        -0.5000 
     67 C          -2.0919  -20.6350  -49.2611 C.2       11 UNK         0.5000 
     68 O          -2.5172  -19.9036  -50.1562 O.2       11 UNK        -0.5000 
     69 N          -2.8752  -21.2913  -48.4052 N.am      12 UNK        -0.5000 
     70 CA         -4.3238  -21.4279  -48.4124 C.3       12 UNK         0.1400 
     71 CB         -5.0420  -20.1194  -48.0468 C.3       12 UNK        -0.1800 
     72 C          -4.6710  -22.5411  -47.4191 C.2       12 UNK         0.5000 
     73 O          -5.3962  -23.4642  -47.7814 O.2       12 UNK        -0.5000 
     74 N          -4.1033  -22.4559  -46.2046 N.am      13 UNK        -0.5000 
     75 CA         -4.3023  -23.4049  -45.1079 C.3       13 UNK         0.1400 
     76 CB         -3.6035  -22.8730  -43.8462 C.3       13 UNK        -0.1800 
     77 C          -3.8364  -24.8372  -45.4324 C.2       13 UNK         0.5000 
     78 O          -4.6244  -25.7747  -45.3035 O.2       13 UNK        -0.5000 
     79 N          -2.5779  -24.9820  -45.8708 N.am      14 UNK        -0.5000 
     80 CA         -1.9947  -26.2663  -46.2757 C.3       14 UNK         0.1400 
     81 CB         -0.4694  -26.2169  -46.0996 C.3       14 UNK        -0.1800 
     82 C          -2.3568  -26.6289  -47.7263 C.2       14 UNK         0.5000 
     83 O          -2.3670  -27.8078  -48.0803 O.2       14 UNK        -0.5000 
     84 N          -2.6680  -25.6051  -48.5305 N.am      15 UNK        -0.5000 
     85 CA         -3.0944  -25.7096  -49.9252 C.3       15 UNK         0.1400 
     86 CB         -2.8137  -24.3613  -50.6000 C.3       15 UNK        -0.1800 
     87 C          -4.5765  -26.1119  -50.0936 C.2       15 UNK         0.5000 
     88 O          -5.0339  -26.2544  -51.2309 O.2       15 UNK        -0.5000 
     89 N          -5.3036  -26.2470  -48.9719 N.am      16 UNK        -0.5000 
     90 CA         -6.7157  -26.6290  -48.8369 C.3       16 UNK         0.1400 
     91 CB         -6.9062  -28.1015  -49.2549 C.3       16 UNK        -0.1800 
     92 C          -7.6911  -25.6801  -49.5668 C.2       16 UNK         0.5000 
     93 O          -8.7742  -26.1056  -49.9718 O.2       16 UNK        -0.5000 
     94 N          -7.2641  -24.4223  -49.7573 N.am      17 UNK        -0.5000 
     95 CA         -7.8764  -23.3739  -50.5821 C.3       17 UNK         0.1400 
     96 CB         -9.1978  -22.8940  -49.9486 C.3       17 UNK        -0.1800 
     97 C          -8.0419  -23.7634  -52.0729 C.2       17 UNK         0.5000 
     98 O          -8.8418  -23.1416  -52.7746 O.2       17 UNK        -0.5000 
     99 N          -7.3099  -24.7917  -52.5263 N.am      18 UNK        -0.5000 
    100 CA        -7.4621  -25.4219  -53.8348 C.3       18 UNK         0.1400 
    101 CB        -7.7817  -26.9131  -53.6372 C.3       18 UNK        -0.1800 
    102 C         -6.1981  -25.2434  -54.6833 C.2       18 UNK         0.5000 
    103 O         -6.2973  -24.7935  -55.8256 O.2       18 UNK        -0.5000 
    104 N         -5.0308  -25.5833  -54.1170 N.am      19 UNK        -0.5000 
    105 CA        -3.7331  -25.4438  -54.7880 C.3       19 UNK         0.1400 
    106 CB        -2.7157  -26.3854  -54.1245 C.3       19 UNK        -0.1800 
    107 C         -3.2227  -23.9884  -54.8002 C.2       19 UNK         0.5000 
    108 O         -2.4071  -23.6326  -55.6514 O.2       19 UNK        -0.5000 
    109 N         -3.7279  -23.1795  -53.8656 N.am      20 UNK        -0.5000 
    110 CA        -3.4733  -21.7609  -53.6677 C.3       20 UNK         0.1400 
    111 CB        -2.0530  -21.5303  -53.1156 C.3       20 UNK        -0.1800 
    112 C         -4.5340  -21.2559  -52.6804 C.2       20 UNK         0.5000 
    113 O         -5.1064  -22.0589  -51.9387 O.2       20 UNK        -0.5000 
    114 N         -4.7691  -19.9430  -52.6808 N.am      21 UNK        -0.5000 
    115 CA        -5.6784  -19.2517  -51.7697 C.3       21 UNK         0.1400 
    116 CB        -7.1289  -19.3506  -52.2810 C.3       21 UNK        -0.1800 
    117 C         -5.1789  -17.8082  -51.5979 C.2       21 UNK         0.5000 
    118 O         -5.9229  -16.8524  -51.8252 O.2       21 UNK        -0.5000 
    119 N         -3.8916  -17.6823  -51.2576 N.am      22 UNK        -0.5000 
    120 CA        -3.1072  -16.4366  -51.2238 C.3       22 UNK         0.1400 
    121 C         -3.4198  -15.5128  -50.0064 C.2       22 UNK         0.5000 
    122 N         -4.6880  -15.2608  -49.7147 N.am      22 UNK        -0.7600 
    123 O         -2.5295  -15.0245  -49.3159 O.2       22 UNK        -0.5000 
    124 C124       -1.5952  -16.7426  -51.4388 C.3       23 UNK        -0.0398 
    125 S125       -0.8556  -15.7423  -52.7790 S.3       23 UNK        -0.2404 
    126 C126        0.5822  -14.9573  -51.9658 C.3       23 UNK        -0.0205 
    127 H127        8.1171  -11.6535  -48.3264 H         1 UNK         0.0600 
    128 H128        9.2994  -12.2362  -47.1515 H         1 UNK         0.0600 
    129 H129        8.4653  -10.7023  -46.8796 H         1 UNK         0.0600 
    130 H130        6.1607  -12.7068  -48.1771 H         1 UNK         0.3000 
    131 H131        5.4101  -14.2566  -45.8224 H         1 UNK         0.0600 
    132 H132        3.5745  -15.0924  -47.2055 H         1 UNK         0.0800 
    133 H133        3.9155  -13.9283  -48.4656 H         1 UNK         0.0800 
    134 H134        6.1384  -15.8776  -50.7302 H         1 UNK         0.0800 
    135 H135        5.3139  -14.3764  -50.4082 H         1 UNK         0.0800 
    136 H136        2.9819  -14.2208  -50.9989 H         1 UNK         0.1150 
    137 H137        0.8188  -17.7609  -52.1136 H         1 UNK         0.1150 
    138 H138        4.7539  -18.0905  -50.5031 H         1 UNK         0.1150 
    139 H139        2.0234  -19.8773  -52.2518 H         1 UNK         0.0800 
    140 H140        3.6507  -20.0034  -51.6390 H         1 UNK         0.0800 
    141 H141       -0.0435  -19.8446  -50.9323 H         1 UNK         0.0800 
    142 H142        0.1853  -18.8461  -49.5110 H         1 UNK         0.0800 
    143 H143       -0.3771  -21.8504  -49.4678 H         1 UNK         0.0600 
    144 H144        0.2743  -20.0219  -47.3154 H         1 UNK         0.3000 
    145 H145       -0.5704  -21.3144  -44.7497 H         1 UNK         0.0600 
    146 H146        1.1610  -22.8560  -43.7555 H         1 UNK         0.0600 
    147 H147       -0.1457  -23.6881  -44.5749 H         1 UNK         0.0600 
    148 H148        1.4232  -23.5457  -45.3583 H         1 UNK         0.0600 
    149 H149        1.0442  -19.8425  -44.7878 H         1 UNK         0.3000 
    150 H150        4.3145  -19.7217  -45.2310 H         1 UNK         0.0600 
    151 H151        4.1923  -19.4065  -47.6826 H         1 UNK         0.0600 
    152 H152        4.2749  -17.8524  -46.8716 H         1 UNK         0.0600 
    153 H153        2.7432  -18.4250  -47.5240 H         1 UNK         0.0600 
    154 H154        1.8546  -18.0165  -45.1807 H         1 UNK         0.3000 
    155 H155        2.2116  -17.5171  -41.6591 H         1 UNK         0.0600 
    156 H156        3.4369  -15.6217  -42.7043 H         1 UNK         0.0600 
    157 H157        1.7749  -15.1784  -42.3523 H         1 UNK         0.0600 
    158 H158        2.2576  -15.5457  -44.0049 H         1 UNK         0.0600 
    159 H159        0.1364  -16.7529  -43.4203 H         1 UNK         0.3000 
    160 H160       -1.8683  -19.7210  -42.9227 H         1 UNK         0.0600 
    161 H161       -2.0480  -16.8687  -41.8137 H         1 UNK         0.0600 
    162 H162       -2.0894  -18.3468  -40.8572 H         1 UNK         0.0600 
    163 H163       -3.3893  -17.9991  -41.9872 H         1 UNK         0.0600 
    164 H164       -1.6350  -17.0931  -44.3434 H         1 UNK         0.3000 
    165 H165       -2.6559  -18.5707  -47.3982 H         1 UNK         0.0600 
    166 H166       -4.3262  -16.8180  -47.4379 H         1 UNK         0.0600 
    167 H167       -4.7884  -17.8372  -46.0891 H         1 UNK         0.0600 
    168 H168       -3.9682  -16.3223  -45.7852 H         1 UNK         0.0600 
    169 H169       -1.9726  -15.9454  -47.0128 H         1 UNK         0.3000 
    170 H170        1.4240  -15.8678  -46.2428 H         1 UNK         0.0600 
    171 H171        1.5684  -16.2565  -48.6750 H         1 UNK         0.0600 
    172 H172        0.0911  -15.3370  -48.9409 H         1 UNK         0.0600 
    173 H173        1.5361  -14.5229  -48.3644 H         1 UNK         0.0600 
    174 H174       -0.2969  -13.7754  -46.9573 H         1 UNK         0.3000 
    175 H175       -1.5718  -12.5724  -45.6505 H         1 UNK         0.0600 
    176 H176       -3.3884  -14.0784  -44.7400 H         1 UNK         0.0600 
    177 H177       -2.6755  -13.9600  -43.1355 H         1 UNK         0.0600 
    178 H178       -3.3508  -12.5315  -43.9143 H         1 UNK         0.0600 
    179 H179        0.2546  -12.8527  -43.4795 H         1 UNK         0.3000 
    180 H180        0.0046   -9.4326  -42.4097 H         1 UNK         0.0600 
    181 H181        0.6417  -12.2053  -41.2694 H         1 UNK         0.0600 
    182 H182       -0.6417  -11.1320  -40.7393 H         1 UNK         0.0600 
    183 H183        1.0361  -10.6576  -40.5276 H         1 UNK         0.0600 
    184 H184        1.9383   -9.4360  -43.4157 H         1 UNK         0.3000 
    185 H185        3.6004  -10.1181  -44.8555 H         1 UNK         0.0600 
    186 H186        4.3309   -9.5580  -42.5206 H         1 UNK         0.0600 
    187 H187        5.0418  -11.1582  -42.3517 H         1 UNK         0.0600 
    188 H188        5.7015  -10.0123  -43.5184 H         1 UNK         0.0600 
    189 H189        5.4448  -12.2085  -44.5735 H         1 UNK         0.3000 
    190 H190       -2.3928  -21.8896  -47.7401 H         1 UNK         0.3000 
    191 H191       -4.6381  -21.7350  -49.4095 H         1 UNK         0.0600 
    192 H192       -4.9084  -19.8777  -46.9944 H         1 UNK         0.0600 
    193 H193       -6.1145  -20.2108  -48.2210 H         1 UNK         0.0600 
    194 H194       -4.6869  -19.2755  -48.6368 H         1 UNK         0.0600 
    195 H195       -3.5620  -21.6270  -45.9773 H         1 UNK         0.3000 
    196 H196       -5.3744  -23.4481  -44.9049 H         1 UNK         0.0600 
    197 H197       -3.7391  -23.5546  -43.0056 H         1 UNK         0.0600 
    198 H198       -4.0109  -21.9062  -43.5494 H         1 UNK         0.0600 
    199 H199       -2.5314  -22.7476  -43.9992 H         1 UNK         0.0600 
    200 H200       -2.0025  -24.1593  -46.0224 H         1 UNK         0.3000 
    201 H201       -2.3812  -27.0579  -45.6301 H         1 UNK         0.0600 
    202 H202       -0.1992  -26.0448  -45.0581 H         1 UNK         0.0600 
    203 H203       -0.0168  -25.4292  -46.7028 H         1 UNK         0.0600 
    204 H204       -0.0115  -27.1608  -46.3982 H         1 UNK         0.0600 
    205 H205       -2.6109  -24.6749  -48.1435 H         1 UNK         0.3000 
    206 H206       -2.4915  -26.4738  -50.4195 H         1 UNK         0.0600 
    207 H207       -1.7711  -24.0649  -50.4836 H         1 UNK         0.0600 
    208 H208       -3.0160  -24.4137  -51.6655 H         1 UNK         0.0600 
    209 H209       -3.4387  -23.5694  -50.1922 H         1 UNK         0.0600 
    210 H210       -4.8390  -26.0309  -48.1010 H         1 UNK         0.3000 
    211 H211       -6.9523  -26.5486  -47.7751 H         1 UNK         0.0600 
    212 H212       -6.7481  -28.2402  -50.3250 H         1 UNK         0.0600 
    213 H213       -7.9140  -28.4489  -49.0249 H         1 UNK         0.0600 
    214 H214       -6.2117  -28.7542  -48.7259 H         1 UNK         0.0600 
    215 H215       -6.3961  -24.1623  -49.2975 H         1 UNK         0.3000 
    216 H216       -7.1869  -22.5310  -50.5572 H         1 UNK         0.0600 
    217 H217       -9.5815  -22.0122  -50.4630 H         1 UNK         0.0600 
    218 H218       -9.0562  -22.6207  -48.9029 H         1 UNK         0.0600 
    219 H219       -9.9707  -23.6616  -49.9941 H         1 UNK         0.0600 
    220 H220       -6.6481  -25.2279  -51.8936 H         1 UNK         0.3000 
    221 H221       -8.2926  -24.9738  -54.3842 H         1 UNK         0.0600 
    222 H222       -7.0002  -27.4260  -53.0749 H         1 UNK         0.0600 
    223 H223       -8.7181  -27.0426  -53.0941 H         1 UNK         0.0600 
    224 H224       -7.8876  -27.4219  -54.5961 H         1 UNK         0.0600 
    225 H225       -5.0224  -25.9411  -53.1662 H         1 UNK         0.3000 
    226 H226       -3.8420  -25.7560  -55.8289 H         1 UNK         0.0600 
    227 H227       -3.0322  -27.4251  -54.2096 H         1 UNK         0.0600 
    228 H228       -1.7385  -26.3043  -54.6022 H         1 UNK         0.0600 
    229 H229       -2.5826  -26.1657  -53.0665 H         1 UNK         0.0600 
    230 H230       -4.4216  -23.5458  -53.2246 H         1 UNK         0.3000 
    231 H231       -3.5953  -21.2416  -54.6201 H         1 UNK         0.0600 
    232 H232       -1.2906  -21.8827  -53.8099 H         1 UNK         0.0600 
    233 H233       -1.9033  -22.0439  -52.1659 H         1 UNK         0.0600 
    234 H234       -1.8668  -20.4693  -52.9449 H         1 UNK         0.0600 
    235 H235       -4.2431  -19.3445  -53.3029 H         1 UNK         0.3000 
    236 H236       -5.6295  -19.7239  -50.7883 H         1 UNK         0.0600 
    237 H237       -7.8168  -18.8387  -51.6072 H         1 UNK         0.0600 
    238 H238       -7.2368  -18.9018  -53.2689 H         1 UNK         0.0600 
    239 H239       -7.4555  -20.3887  -52.3478 H         1 UNK         0.0600 
    240 H240       -3.3845  -18.5268  -50.9973 H         1 UNK         0.3000 
    241 H241       -3.4449  -15.8562  -52.0844 H         1 UNK         0.0600 
    242 H242       -4.9198  -14.6598  -48.9408 H         1 UNK         0.3800 
    243 H243       -5.4170  -15.6522  -50.3006 H         1 UNK         0.3800 
    244 H244       -1.0165  -16.6473  -50.5202 H         1 UNK         0.0800 
    245 H245       -1.4613  -17.7825  -51.7390 H         1 UNK         0.0800 
    246 H246        0.9593  -14.1897  -52.6429 H         1 UNK         0.0800 
    247 H247        0.2367  -14.4305  -51.0761 H         1 UNK         0.0800 
@<TRIPOS>BOND
     1    1    2 1    
     2    1  127 1    
     3    1  128 1    
     4    1  129 1    
     5    2    3 2    
     6    2    4 am   BACKBONE|DICT|INTERRES
     7    4    5 1    
     8    4  130 1    
     9    5    6 1    
    10    5   65 1    
    11    5  131 1    
    12    6    7 1    
    13    6  132 1    
    14    6  133 1    
    15    7    8 1    
    16    8    9 1    
    17    8  134 1    
    18    8  135 1    
    19    9   10 ar   
    20    9   14 ar   
    21   10   11 ar   
    22   10  136 1    
    23   11   12 ar   
    24   11  126 1    
    25   12   13 ar   
    26   12  137 1    
    27   13   14 ar   
    28   13   15 1    
    29   14  138 1    
    30   15   16 1    
    31   15  139 1    
    32   15  140 1    
    33   16   17 1    
    34   17   18 1    
    35   17  141 1    
    36   17  142 1    
    37   18   19 1    
    38   18   67 1    
    39   18  143 1    
    40   19   20 am   BACKBONE|DICT|INTERRES
    41   19  144 1    
    42   20   21 2    
    43   20   22 1    
    44   22   23 1    
    45   22   24 1    
    46   22  145 1    
    47   23  146 1    
    48   23  147 1    
    49   23  148 1    
    50   24   25 am   BACKBONE|DICT|INTERRES
    51   24  149 1    
    52   25   26 2    
    53   25   27 1    
    54   27   28 1    
    55   27   29 1    
    56   27  150 1    
    57   28  151 1    
    58   28  152 1    
    59   28  153 1    
    60   29   30 am   BACKBONE|DICT|INTERRES
    61   29  154 1    
    62   30   31 2    
    63   30   32 1    
    64   32   33 1    
    65   32   34 1    
    66   32  155 1    
    67   33  156 1    
    68   33  157 1    
    69   33  158 1    
    70   34   35 am   BACKBONE|DICT|INTERRES
    71   34  159 1    
    72   35   36 2    
    73   35   37 1    
    74   37   38 1    
    75   37   39 1    
    76   37  160 1    
    77   38  161 1    
    78   38  162 1    
    79   38  163 1    
    80   39   40 am   BACKBONE|DICT|INTERRES
    81   39  164 1    
    82   40   41 2    
    83   40   42 1    
    84   42   43 1    
    85   42   44 1    
    86   42  165 1    
    87   43  166 1    
    88   43  167 1    
    89   43  168 1    
    90   44   45 am   BACKBONE|DICT|INTERRES
    91   44  169 1    
    92   45   46 2    
    93   45   47 1    
    94   47   48 1    
    95   47   49 1    
    96   47  170 1    
    97   48  171 1    
    98   48  172 1    
    99   48  173 1    
   100   49   50 am   BACKBONE|DICT|INTERRES
   101   49  174 1    
   102   50   51 2    
   103   50   52 1    
   104   52   53 1    
   105   52   54 1    
   106   52  175 1    
   107   53  176 1    
   108   53  177 1    
   109   53  178 1    
   110   54   55 am   BACKBONE|DICT|INTERRES
   111   54  179 1    
   112   55   56 2    
   113   55   57 1    
   114   57   58 1    
   115   57   59 1    
   116   57  180 1    
   117   58  181 1    
   118   58  182 1    
   119   58  183 1    
   120   59   60 am   BACKBONE|DICT|INTERRES
   121   59  184 1    
   122   60   61 2    
   123   60   62 1    
   124   62   63 1    
   125   62   64 1    
   126   62  185 1    
   127   63  186 1    
   128   63  187 1    
   129   63  188 1    
   130   64   65 am   BACKBONE|DICT|INTERRES
   131   64  189 1    
   132   65   66 2    
   133   67   68 2    
   134   67   69 am   BACKBONE|DICT|INTERRES
   135   69   70 1    
   136   69  190 1    
   137   70   71 1    
   138   70   72 1    
   139   70  191 1    
   140   71  192 1    
   141   71  193 1    
   142   71  194 1    
   143   72   73 2    
   144   72   74 am   BACKBONE|DICT|INTERRES
   145   74   75 1    
   146   74  195 1    
   147   75   76 1    
   148   75   77 1    
   149   75  196 1    
   150   76  197 1    
   151   76  198 1    
   152   76  199 1    
   153   77   78 2    
   154   77   79 am   BACKBONE|DICT|INTERRES
   155   79   80 1    
   156   79  200 1    
   157   80   81 1    
   158   80   82 1    
   159   80  201 1    
   160   81  202 1    
   161   81  203 1    
   162   81  204 1    
   163   82   83 2    
   164   82   84 am   BACKBONE|DICT|INTERRES
   165   84   85 1    
   166   84  205 1    
   167   85   86 1    
   168   85   87 1    
   169   85  206 1    
   170   86  207 1    
   171   86  208 1    
   172   86  209 1    
   173   87   88 2    
   174   87   89 am   BACKBONE|DICT|INTERRES
   175   89   90 1    
   176   89  210 1    
   177   90   91 1    
   178   90   92 1    
   179   90  211 1    
   180   91  212 1    
   181   91  213 1    
   182   91  214 1    
   183   92   93 2    
   184   92   94 am   BACKBONE|DICT|INTERRES
   185   94   95 1    
   186   94  215 1    
   187   95   96 1    
   188   95   97 1    
   189   95  216 1    
   190   96  217 1    
   191   96  218 1    
   192   96  219 1    
   193   97   98 2    
   194   97   99 am   BACKBONE|DICT|INTERRES
   195   99  100 1    
   196   99  220 1    
   197  100  101 1    
   198  100  102 1    
   199  100  221 1    
   200  101  222 1    
   201  101  223 1    
   202  101  224 1    
   203  102  103 2    
   204  102  104 am   BACKBONE|DICT|INTERRES
   205  104  105 1    
   206  104  225 1    
   207  105  106 1    
   208  105  107 1    
   209  105  226 1    
   210  106  227 1    
   211  106  228 1    
   212  106  229 1    
   213  107  108 2    
   214  107  109 am   BACKBONE|DICT|INTERRES
   215  109  110 1    
   216  109  230 1    
   217  110  111 1    
   218  110  112 1    
   219  110  231 1    
   220  111  232 1    
   221  111  233 1    
   222  111  234 1    
   223  112  113 2    
   224  112  114 am   BACKBONE|DICT|INTERRES
   225  114  115 1    
   226  114  235 1    
   227  115  116 1    
   228  115  117 1    
   229  115  236 1    
   230  116  237 1    
   231  116  238 1    
   232  116  239 1    
   233  117  118 2    
   234  117  119 am   BACKBONE|DICT|INTERRES
   235  119  120 1    
   236  119  240 1    
   237  120  121 1    
   238  120  124 1    
   239  120  241 1    
   240  121  122 am   BACKBONE|DICT|INTERRES
   241  121  123 2    
   242  122  242 1    
   243  122  243 1    
   244  124  125 1    
   245  124  244 1    
   246  124  245 1    
   247  125  126 1    
   248  126  246 1    
   249  126  247 1    
@<TRIPOS>SUBSTRUCTURE
     1 UNK         1 GROUP             0       ****    0 ROOT    
