@<TRIPOS>MOLECULE
3R540
247   249    1
SMALL
USER_CHARGES


@<TRIPOS>ATOM
      1 CA          2.0480   -9.4811  -49.5991 C.3       0 UNK        -0.1800 
      2 C           2.9329  -10.6713  -49.2575 C.2       0 UNK         0.5000 
      3 O           3.9858  -10.4974  -48.6424 O.2       0 UNK        -0.5000 
      4 N           2.5109  -11.8811  -49.6465 N.am      1 UNK        -0.5000 
      5 CA          3.2007  -13.1485  -49.3837 C.3       1 UNK         0.1400 
      6 C6          2.8661  -14.2012  -50.4736 C.3       23 UNK        -0.0398 
      7 S7          4.1749  -15.4590  -50.6429 S.3       23 UNK        -0.2404 
      8 C8          3.4930  -16.4919  -51.9767 C.3       23 UNK        -0.0205 
      9 C9          2.4652  -17.4866  -51.4581 C.ar      23 UNK        -0.0193 
     10 C10         1.0965  -17.2218  -51.5649 C.ar      23 UNK        -0.1150 
     11 C11         0.1551  -18.1549  -51.1180 C.ar      23 UNK        -0.0193 
     12 C12         0.5928  -19.3565  -50.5517 C.ar      23 UNK        -0.1150 
     13 C13         1.9594  -19.6296  -50.4357 C.ar      23 UNK        -0.0193 
     14 C14         2.8888  -18.6922  -50.8930 C.ar      23 UNK        -0.1150 
     15 C15         2.4388  -20.9502  -49.8526 C.3       23 UNK        -0.0205 
     16 S16         3.1761  -20.7704  -48.1958 S.3       23 UNK        -0.2404 
     17 C17         1.7669  -20.2358  -47.1663 C.3       23 UNK        -0.0398 
     18 CA          0.8634  -21.4176  -46.7181 C.3       11 UNK         0.1400 
     19 N           0.5123  -21.3700  -45.2954 N.am      11 UNK        -0.5000 
     20 C          -0.1092  -22.3602  -44.6363 C.2       10 UNK         0.5000 
     21 O          -0.4159  -23.4368  -45.1491 O.2       10 UNK        -0.5000 
     22 CA         -0.5020  -22.0872  -43.1736 C.3       10 UNK         0.1400 
     23 CB          0.7022  -22.2643  -42.2370 C.3       10 UNK        -0.1800 
     24 N          -1.0880  -20.7594  -42.9879 N.am      10 UNK        -0.5000 
     25 C          -2.2341  -20.3542  -43.5542 C.2       9 UNK         0.5000 
     26 O          -2.9426  -21.0757  -44.2559 O.2       9 UNK        -0.5000 
     27 CA         -2.6338  -18.8833  -43.3440 C.3       9 UNK         0.1400 
     28 CB         -3.2860  -18.6846  -41.9680 C.3       9 UNK        -0.1800 
     29 N          -1.5068  -17.9626  -43.4951 N.am      9 UNK        -0.5000 
     30 C          -0.7954  -17.8059  -44.6217 C.2       8 UNK         0.5000 
     31 O          -1.0264  -18.4036  -45.6720 O.2       8 UNK        -0.5000 
     32 CA          0.4143  -16.8612  -44.5454 C.3       8 UNK         0.1400 
     33 CB         -0.0431  -15.3971  -44.5627 C.3       8 UNK        -0.1800 
     34 N           1.2324  -17.1041  -43.3581 N.am      8 UNK        -0.5000 
     35 C           1.8624  -18.2553  -43.0840 C.2       7 UNK         0.5000 
     36 O           1.8611  -19.2336  -43.8298 O.2       7 UNK        -0.5000 
     37 CA          2.5640  -18.3467  -41.7193 C.3       7 UNK         0.1400 
     38 CB          3.9302  -17.6438  -41.7506 C.3       7 UNK        -0.1800 
     39 N           1.7403  -17.7883  -40.6469 N.am      7 UNK        -0.5000 
     40 C           0.5870  -18.3250  -40.2219 C.2       6 UNK         0.5000 
     41 O           0.1112  -19.3685  -40.6683 O.2       6 UNK        -0.5000 
     42 CA         -0.1812  -17.5410  -39.1431 C.3       6 UNK         0.1400 
     43 CB          0.3613  -17.8701  -37.7445 C.3       6 UNK        -0.1800 
     44 N          -0.1262  -16.0943  -39.3578 N.am      6 UNK        -0.5000 
     45 C          -0.7139  -15.4590  -40.3815 C.2       5 UNK         0.5000 
     46 O          -1.3895  -16.0243  -41.2414 O.2       5 UNK        -0.5000 
     47 CA         -0.4527  -13.9443  -40.4876 C.3       5 UNK         0.1400 
     48 CB         -1.4059  -13.1625  -39.5715 C.3       5 UNK        -0.1800 
     49 N           0.9349  -13.5785  -40.1798 N.am      5 UNK        -0.5000 
     50 C           1.9889  -13.9901  -40.8943 C.2       4 UNK         0.5000 
     51 O           1.8949  -14.7326  -41.8775 O.2       4 UNK        -0.5000 
     52 CA          3.3790  -13.5316  -40.4297 C.3       4 UNK         0.1400 
     53 CB          3.8606  -14.3629  -39.2269 C.3       4 UNK        -0.1800 
     54 N           4.2678  -13.7229  -41.5648 N.am      4 UNK        -0.5000 
     55 C           5.4883  -13.2189  -41.7690 C.2       3 UNK         0.5000 
     56 O           6.0972  -12.5272  -40.9526 O.2       3 UNK        -0.5000 
     57 CA          6.1173  -13.5341  -43.1431 C.3       3 UNK         0.1400 
     58 CB          6.9853  -14.7993  -43.0582 C.3       3 UNK        -0.1800 
     59 N           5.0894  -13.7256  -44.1733 N.am      3 UNK        -0.5000 
     60 C           4.4046  -12.7231  -44.7381 C.2       2 UNK         0.5000 
     61 O           4.7076  -11.5340  -44.6238 O.2       2 UNK        -0.5000 
     62 CA          3.1576  -13.1133  -45.5386 C.3       2 UNK         0.1400 
     63 CB          1.9289  -12.2994  -45.0908 C.3       2 UNK        -0.1800 
     64 N           3.3994  -12.8851  -46.9557 N.am      2 UNK        -0.5000 
     65 C           2.8945  -13.6285  -47.9461 C.2       1 UNK         0.5000 
     66 O           2.1779  -14.6127  -47.7543 O.2       1 UNK        -0.5000 
     67 C          -0.3932  -21.5252  -47.6024 C.2       11 UNK         0.5000 
     68 O          -0.4462  -22.3884  -48.4758 O.2       11 UNK        -0.5000 
     69 N          -1.3963  -20.6765  -47.3380 N.am      12 UNK        -0.5000 
     70 CA         -2.6817  -20.6613  -48.0353 C.3       12 UNK         0.1400 
     71 CB         -3.5221  -19.4791  -47.5317 C.3       12 UNK        -0.1800 
     72 C          -3.4559  -21.9849  -47.9060 C.2       12 UNK         0.5000 
     73 O          -4.0163  -22.4534  -48.8971 O.2       12 UNK        -0.5000 
     74 N          -3.4384  -22.5837  -46.7074 N.am      13 UNK        -0.5000 
     75 CA         -4.0095  -23.9015  -46.4353 C.3       13 UNK         0.1400 
     76 CB         -4.0130  -24.1635  -44.9216 C.3       13 UNK        -0.1800 
     77 C          -3.2768  -25.0265  -47.1884 C.2       13 UNK         0.5000 
     78 O          -3.9337  -25.8623  -47.8096 O.2       13 UNK        -0.5000 
     79 N          -1.9362  -25.0101  -47.1505 N.am      14 UNK        -0.5000 
     80 CA         -1.0712  -25.9754  -47.8343 C.3       14 UNK         0.1400 
     81 CB          0.3825  -25.7718  -47.3805 C.3       14 UNK        -0.1800 
     82 C          -1.1759  -25.9023  -49.3693 C.2       14 UNK         0.5000 
     83 O          -1.2030  -26.9417  -50.0291 O.2       14 UNK        -0.5000 
     84 N          -1.2569  -24.6780  -49.9047 N.am      15 UNK        -0.5000 
     85 CA         -1.4149  -24.3896  -51.3306 C.3       15 UNK         0.1400 
     86 CB         -0.9268  -22.9582  -51.5987 C.3       15 UNK        -0.1800 
     87 C          -2.8574  -24.5712  -51.8444 C.2       15 UNK         0.5000 
     88 O          -3.0660  -24.4959  -53.0552 O.2       15 UNK        -0.5000 
     89 N          -3.8167  -24.7876  -50.9308 N.am      16 UNK        -0.5000 
     90 CA         -5.2560  -24.9419  -51.1629 C.3       16 UNK         0.1400 
     91 CB         -5.5518  -26.2384  -51.9449 C.3       16 UNK        -0.1800 
     92 C          -5.8795  -23.6923  -51.8154 C.2       16 UNK         0.5000 
     93 O          -6.6354  -23.8033  -52.7836 O.2       16 UNK        -0.5000 
     94 N          -5.5488  -22.5130  -51.2697 N.am      17 UNK        -0.5000 
     95 CA         -5.9160  -21.1901  -51.7865 C.3       17 UNK         0.1400 
     96 CB         -5.2778  -20.1065  -50.9082 C.3       17 UNK        -0.1800 
     97 C          -7.4291  -20.9381  -51.9301 C.2       17 UNK         0.5000 
     98 O          -7.8239  -20.1085  -52.7476 O.2       17 UNK        -0.5000 
     99 N          -8.2486  -21.6802  -51.1751 N.am      18 UNK        -0.5000 
    100 CA        -9.7086  -21.6767  -51.2734 C.3       18 UNK         0.1400 
    101 CB       -10.2834  -22.4820  -50.0978 C.3       18 UNK        -0.1800 
    102 C        -10.2479  -22.2228  -52.6137 C.2       18 UNK         0.5000 
    103 O        -11.3762  -21.8882  -52.9779 O.2       18 UNK        -0.5000 
    104 N         -9.4536  -23.0468  -53.3128 N.am      19 UNK        -0.5000 
    105 CA        -9.8133  -23.6676  -54.5880 C.3       19 UNK         0.1400 
    106 CB        -9.8863  -25.1919  -54.3995 C.3       19 UNK        -0.1800 
    107 C         -8.8148  -23.3116  -55.7010 C.2       19 UNK         0.5000 
    108 O         -9.2374  -22.9874  -56.8114 O.2       19 UNK        -0.5000 
    109 N         -7.5128  -23.3899  -55.3982 N.am      20 UNK        -0.5000 
    110 CA        -6.4250  -23.2427  -56.3676 C.3       20 UNK         0.1400 
    111 CB        -5.2703  -24.1605  -55.9352 C.3       20 UNK        -0.1800 
    112 C         -5.9205  -21.7958  -56.5151 C.2       20 UNK         0.5000 
    113 O         -5.1236  -21.5316  -57.4168 O.2       20 UNK        -0.5000 
    114 N         -6.3416  -20.8969  -55.6102 N.am      21 UNK        -0.5000 
    115 CA        -5.9382  -19.4840  -55.5122 C.3       21 UNK         0.1400 
    116 CB        -6.4610  -18.6879  -56.7265 C.3       21 UNK        -0.1800 
    117 C         -4.4235  -19.2748  -55.2723 C.2       21 UNK         0.5000 
    118 O         -3.9076  -18.1975  -55.5700 O.2       21 UNK        -0.5000 
    119 N         -3.7530  -20.3182  -54.7576 N.am      22 UNK        -0.5000 
    120 CA        -2.3038  -20.4566  -54.5229 C.3       22 UNK         0.1400 
    121 C         -1.3722  -20.1692  -55.7417 C.2       22 UNK         0.5000 
    122 N         -1.8595  -20.2734  -56.9730 N.am      22 UNK        -0.7600 
    123 O         -0.1853  -19.8989  -55.5815 O.2       22 UNK        -0.5000 
    124 C124       -1.8188  -19.8725  -53.1635 C.3       23 UNK        -0.0398 
    125 S125       -1.9244  -18.0628  -52.9619 S.3       23 UNK        -0.2404 
    126 C126       -1.3330  -17.8612  -51.2499 C.3       23 UNK        -0.0205 
    127 H127        2.5985   -8.7686  -50.2134 H         1 UNK         0.0600 
    128 H128        1.7328   -8.9745  -48.6869 H         1 UNK         0.0600 
    129 H129        1.1548   -9.7833  -50.1465 H         1 UNK         0.0600 
    130 H130        1.6208  -11.9600  -50.1178 H         1 UNK         0.3000 
    131 H131        4.2748  -12.9552  -49.4346 H         1 UNK         0.0600 
    132 H132        2.7801  -13.7100  -51.4440 H         1 UNK         0.0800 
    133 H133        1.9020  -14.6811  -50.2978 H         1 UNK         0.0800 
    134 H134        3.0619  -15.8604  -52.7552 H         1 UNK         0.0800 
    135 H135        4.3121  -17.0352  -52.4503 H         1 UNK         0.0800 
    136 H136        0.7605  -16.2952  -52.0088 H         1 UNK         0.1150 
    137 H137       -0.1305  -20.0840  -50.2124 H         1 UNK         0.1150 
    138 H138        3.9459  -18.9035  -50.8108 H         1 UNK         0.1150 
    139 H139        1.6315  -21.6797  -49.8190 H         1 UNK         0.0800 
    140 H140        3.1905  -21.3753  -50.5192 H         1 UNK         0.0800 
    141 H141        1.2116  -19.4408  -47.6680 H         1 UNK         0.0800 
    142 H142        2.2132  -19.7539  -46.2978 H         1 UNK         0.0800 
    143 H143        1.4201  -22.3482  -46.8491 H         1 UNK         0.0600 
    144 H144        0.7661  -20.5270  -44.7879 H         1 UNK         0.3000 
    145 H145       -1.2576  -22.8238  -42.8926 H         1 UNK         0.0600 
    146 H146        0.4076  -22.1562  -41.1931 H         1 UNK         0.0600 
    147 H147        1.1419  -23.2560  -42.3500 H         1 UNK         0.0600 
    148 H148        1.4844  -21.5330  -42.4402 H         1 UNK         0.0600 
    149 H149       -0.5829  -20.1187  -42.3835 H         1 UNK         0.3000 
    150 H150       -3.3714  -18.6287  -44.1076 H         1 UNK         0.0600 
    151 H151       -4.1399  -19.3511  -41.8404 H         1 UNK         0.0600 
    152 H152       -3.6494  -17.6638  -41.8485 H         1 UNK         0.0600 
    153 H153       -2.5863  -18.8869  -41.1568 H         1 UNK         0.0600 
    154 H154       -1.2693  -17.4000  -42.6838 H         1 UNK         0.3000 
    155 H155        1.0399  -17.0366  -45.4232 H         1 UNK         0.0600 
    156 H156       -0.5556  -15.1583  -45.4953 H         1 UNK         0.0600 
    157 H157        0.8083  -14.7276  -44.4751 H         1 UNK         0.0600 
    158 H158       -0.7242  -15.1712  -43.7422 H         1 UNK         0.0600 
    159 H159        1.3169  -16.3326  -42.7017 H         1 UNK         0.3000 
    160 H160        2.7323  -19.4034  -41.5007 H         1 UNK         0.0600 
    161 H161        3.8369  -16.5807  -41.9683 H         1 UNK         0.0600 
    162 H162        4.5723  -18.0782  -42.5178 H         1 UNK         0.0600 
    163 H163        4.4491  -17.7465  -40.7976 H         1 UNK         0.0600 
    164 H164        2.0358  -16.9077  -40.2554 H         1 UNK         0.3000 
    165 H165       -1.2270  -17.8526  -39.1859 H         1 UNK         0.0600 
    166 H166       -0.2251  -17.3777  -36.9686 H         1 UNK         0.0600 
    167 H167        0.3172  -18.9430  -37.5521 H         1 UNK         0.0600 
    168 H168        1.4002  -17.5583  -37.6295 H         1 UNK         0.0600 
    169 H169        0.4117  -15.5523  -38.6979 H         1 UNK         0.3000 
    170 H170       -0.6550  -13.6488  -41.5194 H         1 UNK         0.0600 
    171 H171       -2.4461  -13.4067  -39.7917 H         1 UNK         0.0600 
    172 H172       -1.2313  -13.3882  -38.5188 H         1 UNK         0.0600 
    173 H173       -1.2903  -12.0872  -39.7084 H         1 UNK         0.0600 
    174 H174        1.0801  -12.9736  -39.3842 H         1 UNK         0.3000 
    175 H175        3.3410  -12.4717  -40.1715 H         1 UNK         0.0600 
    176 H176        3.9158  -15.4251  -39.4675 H         1 UNK         0.0600 
    177 H177        4.8498  -14.0456  -38.8970 H         1 UNK         0.0600 
    178 H178        3.1874  -14.2514  -38.3763 H         1 UNK         0.0600 
    179 H179        3.8269  -14.2514  -42.3068 H         1 UNK         0.3000 
    180 H180        6.7574  -12.6950  -43.4242 H         1 UNK         0.0600 
    181 H181        6.3985  -15.6747  -42.7769 H         1 UNK         0.0600 
    182 H182        7.7744  -14.6808  -42.3145 H         1 UNK         0.0600 
    183 H183        7.4683  -15.0106  -44.0124 H         1 UNK         0.0600 
    184 H184        4.8147  -14.6784  -44.3640 H         1 UNK         0.3000 
    185 H185        2.9559  -14.1719  -45.3611 H         1 UNK         0.0600 
    186 H186        1.7328  -12.4410  -44.0270 H         1 UNK         0.0600 
    187 H187        2.0679  -11.2310  -45.2609 H         1 UNK         0.0600 
    188 H188        1.0335  -12.6046  -45.6324 H         1 UNK         0.0600 
    189 H189        3.9501  -12.0651  -47.1901 H         1 UNK         0.3000 
    190 H190       -1.2676  -19.9700  -46.6160 H         1 UNK         0.3000 
    191 H191       -2.4759  -20.5069  -49.0958 H         1 UNK         0.0600 
    192 H192       -3.0226  -18.5305  -47.7293 H         1 UNK         0.0600 
    193 H193       -4.4936  -19.4432  -48.0232 H         1 UNK         0.0600 
    194 H194       -3.7024  -19.5440  -46.4587 H         1 UNK         0.0600 
    195 H195       -3.0043  -22.1034  -45.9244 H         1 UNK         0.3000 
    196 H196       -5.0463  -23.8930  -46.7780 H         1 UNK         0.0600 
    197 H197       -4.4436  -25.1394  -44.6944 H         1 UNK         0.0600 
    198 H198       -4.6059  -23.4155  -44.3950 H         1 UNK         0.0600 
    199 H199       -3.0056  -24.1429  -44.5051 H         1 UNK         0.0600 
    200 H200       -1.4689  -24.2989  -46.5954 H         1 UNK         0.3000 
    201 H201       -1.3839  -26.9761  -47.5292 H         1 UNK         0.0600 
    202 H202        0.4814  -25.9081  -46.3035 H         1 UNK         0.0600 
    203 H203        0.7443  -24.7725  -47.6248 H         1 UNK         0.0600 
    204 H204        1.0474  -26.4898  -47.8621 H         1 UNK         0.0600 
    205 H205       -1.1563  -23.8708  -49.2915 H         1 UNK         0.3000 
    206 H206       -0.7806  -25.0748  -51.8965 H         1 UNK         0.0600 
    207 H207        0.1093  -22.8311  -51.2871 H         1 UNK         0.0600 
    208 H208       -0.9725  -22.7230  -52.6618 H         1 UNK         0.0600 
    209 H209       -1.5313  -22.2242  -51.0648 H         1 UNK         0.0600 
    210 H210       -3.5341  -24.7992  -49.9597 H         1 UNK         0.3000 
    211 H211       -5.7160  -25.0364  -50.1784 H         1 UNK         0.0600 
    212 H212       -5.1646  -26.1969  -52.9635 H         1 UNK         0.0600 
    213 H213       -6.6257  -26.4163  -52.0125 H         1 UNK         0.0600 
    214 H214       -5.1095  -27.1043  -51.4523 H         1 UNK         0.0600 
    215 H215       -4.9445  -22.5211  -50.4487 H         1 UNK         0.3000 
    216 H216       -5.4858  -21.1137  -52.7840 H         1 UNK         0.0600 
    217 H217       -5.4552  -19.1118  -51.3195 H         1 UNK         0.0600 
    218 H218       -4.1995  -20.2381  -50.8338 H         1 UNK         0.0600 
    219 H219       -5.6908  -20.1259  -49.8999 H         1 UNK         0.0600 
    220 H220       -7.8368  -22.3373  -50.5294 H         1 UNK         0.3000 
    221 H221      -10.0497  -20.6436  -51.1805 H         1 UNK         0.0600 
    222 H222       -9.9595  -23.5232  -50.1275 H         1 UNK         0.0600 
    223 H223       -9.9747  -22.0601  -49.1412 H         1 UNK         0.0600 
    224 H224      -11.3741  -22.4771  -50.1164 H         1 UNK         0.0600 
    225 H225       -8.5302  -23.2600  -52.9505 H         1 UNK         0.3000 
    226 H226      -10.7952  -23.3251  -54.9208 H         1 UNK         0.0600 
    227 H227      -10.6533  -25.4602  -53.6728 H         1 UNK         0.0600 
    228 H228      -10.1368  -25.6913  -55.3363 H         1 UNK         0.0600 
    229 H229       -8.9376  -25.6017  -54.0501 H         1 UNK         0.0600 
    230 H230       -7.2327  -23.6521  -54.4547 H         1 UNK         0.3000 
    231 H231       -6.7656  -23.5715  -57.3517 H         1 UNK         0.0600 
    232 H232       -5.5973  -25.1974  -55.8566 H         1 UNK         0.0600 
    233 H233       -4.8650  -23.8651  -54.9672 H         1 UNK         0.0600 
    234 H234       -4.4519  -24.1322  -56.6556 H         1 UNK         0.0600 
    235 H235       -7.0127  -21.2073  -54.9212 H         1 UNK         0.3000 
    236 H236       -6.4312  -19.0789  -54.6295 H         1 UNK         0.0600 
    237 H237       -6.3087  -17.6168  -56.5887 H         1 UNK         0.0600 
    238 H238       -5.9535  -18.9730  -57.6483 H         1 UNK         0.0600 
    239 H239       -7.5301  -18.8449  -56.8692 H         1 UNK         0.0600 
    240 H240       -4.2859  -21.1596  -54.6012 H         1 UNK         0.3000 
    241 H241       -2.1873  -21.5350  -54.4101 H         1 UNK         0.0600 
    242 H242       -1.2552  -20.1026  -57.7613 H         1 UNK         0.3800 
    243 H243       -2.8289  -20.5121  -57.1254 H         1 UNK         0.3800 
    244 H244       -0.7855  -20.1731  -52.9844 H         1 UNK         0.0800 
    245 H245       -2.3968  -20.3272  -52.3600 H         1 UNK         0.0800 
    246 H246       -1.9166  -18.4988  -50.5843 H         1 UNK         0.0800 
    247 H247       -1.5246  -16.8357  -50.9312 H         1 UNK         0.0800 
@<TRIPOS>BOND
     1    1    2 1    
     2    1  127 1    
     3    1  128 1    
     4    1  129 1    
     5    2    3 2    
     6    2    4 am   BACKBONE|DICT|INTERRES
     7    4    5 1    
     8    4  130 1    
     9    5    6 1    
    10    5   65 1    
    11    5  131 1    
    12    6    7 1    
    13    6  132 1    
    14    6  133 1    
    15    7    8 1    
    16    8    9 1    
    17    8  134 1    
    18    8  135 1    
    19    9   10 ar   
    20    9   14 ar   
    21   10   11 ar   
    22   10  136 1    
    23   11   12 ar   
    24   11  126 1    
    25   12   13 ar   
    26   12  137 1    
    27   13   14 ar   
    28   13   15 1    
    29   14  138 1    
    30   15   16 1    
    31   15  139 1    
    32   15  140 1    
    33   16   17 1    
    34   17   18 1    
    35   17  141 1    
    36   17  142 1    
    37   18   19 1    
    38   18   67 1    
    39   18  143 1    
    40   19   20 am   BACKBONE|DICT|INTERRES
    41   19  144 1    
    42   20   21 2    
    43   20   22 1    
    44   22   23 1    
    45   22   24 1    
    46   22  145 1    
    47   23  146 1    
    48   23  147 1    
    49   23  148 1    
    50   24   25 am   BACKBONE|DICT|INTERRES
    51   24  149 1    
    52   25   26 2    
    53   25   27 1    
    54   27   28 1    
    55   27   29 1    
    56   27  150 1    
    57   28  151 1    
    58   28  152 1    
    59   28  153 1    
    60   29   30 am   BACKBONE|DICT|INTERRES
    61   29  154 1    
    62   30   31 2    
    63   30   32 1    
    64   32   33 1    
    65   32   34 1    
    66   32  155 1    
    67   33  156 1    
    68   33  157 1    
    69   33  158 1    
    70   34   35 am   BACKBONE|DICT|INTERRES
    71   34  159 1    
    72   35   36 2    
    73   35   37 1    
    74   37   38 1    
    75   37   39 1    
    76   37  160 1    
    77   38  161 1    
    78   38  162 1    
    79   38  163 1    
    80   39   40 am   BACKBONE|DICT|INTERRES
    81   39  164 1    
    82   40   41 2    
    83   40   42 1    
    84   42   43 1    
    85   42   44 1    
    86   42  165 1    
    87   43  166 1    
    88   43  167 1    
    89   43  168 1    
    90   44   45 am   BACKBONE|DICT|INTERRES
    91   44  169 1    
    92   45   46 2    
    93   45   47 1    
    94   47   48 1    
    95   47   49 1    
    96   47  170 1    
    97   48  171 1    
    98   48  172 1    
    99   48  173 1    
   100   49   50 am   BACKBONE|DICT|INTERRES
   101   49  174 1    
   102   50   51 2    
   103   50   52 1    
   104   52   53 1    
   105   52   54 1    
   106   52  175 1    
   107   53  176 1    
   108   53  177 1    
   109   53  178 1    
   110   54   55 am   BACKBONE|DICT|INTERRES
   111   54  179 1    
   112   55   56 2    
   113   55   57 1    
   114   57   58 1    
   115   57   59 1    
   116   57  180 1    
   117   58  181 1    
   118   58  182 1    
   119   58  183 1    
   120   59   60 am   BACKBONE|DICT|INTERRES
   121   59  184 1    
   122   60   61 2    
   123   60   62 1    
   124   62   63 1    
   125   62   64 1    
   126   62  185 1    
   127   63  186 1    
   128   63  187 1    
   129   63  188 1    
   130   64   65 am   BACKBONE|DICT|INTERRES
   131   64  189 1    
   132   65   66 2    
   133   67   68 2    
   134   67   69 am   BACKBONE|DICT|INTERRES
   135   69   70 1    
   136   69  190 1    
   137   70   71 1    
   138   70   72 1    
   139   70  191 1    
   140   71  192 1    
   141   71  193 1    
   142   71  194 1    
   143   72   73 2    
   144   72   74 am   BACKBONE|DICT|INTERRES
   145   74   75 1    
   146   74  195 1    
   147   75   76 1    
   148   75   77 1    
   149   75  196 1    
   150   76  197 1    
   151   76  198 1    
   152   76  199 1    
   153   77   78 2    
   154   77   79 am   BACKBONE|DICT|INTERRES
   155   79   80 1    
   156   79  200 1    
   157   80   81 1    
   158   80   82 1    
   159   80  201 1    
   160   81  202 1    
   161   81  203 1    
   162   81  204 1    
   163   82   83 2    
   164   82   84 am   BACKBONE|DICT|INTERRES
   165   84   85 1    
   166   84  205 1    
   167   85   86 1    
   168   85   87 1    
   169   85  206 1    
   170   86  207 1    
   171   86  208 1    
   172   86  209 1    
   173   87   88 2    
   174   87   89 am   BACKBONE|DICT|INTERRES
   175   89   90 1    
   176   89  210 1    
   177   90   91 1    
   178   90   92 1    
   179   90  211 1    
   180   91  212 1    
   181   91  213 1    
   182   91  214 1    
   183   92   93 2    
   184   92   94 am   BACKBONE|DICT|INTERRES
   185   94   95 1    
   186   94  215 1    
   187   95   96 1    
   188   95   97 1    
   189   95  216 1    
   190   96  217 1    
   191   96  218 1    
   192   96  219 1    
   193   97   98 2    
   194   97   99 am   BACKBONE|DICT|INTERRES
   195   99  100 1    
   196   99  220 1    
   197  100  101 1    
   198  100  102 1    
   199  100  221 1    
   200  101  222 1    
   201  101  223 1    
   202  101  224 1    
   203  102  103 2    
   204  102  104 am   BACKBONE|DICT|INTERRES
   205  104  105 1    
   206  104  225 1    
   207  105  106 1    
   208  105  107 1    
   209  105  226 1    
   210  106  227 1    
   211  106  228 1    
   212  106  229 1    
   213  107  108 2    
   214  107  109 am   BACKBONE|DICT|INTERRES
   215  109  110 1    
   216  109  230 1    
   217  110  111 1    
   218  110  112 1    
   219  110  231 1    
   220  111  232 1    
   221  111  233 1    
   222  111  234 1    
   223  112  113 2    
   224  112  114 am   BACKBONE|DICT|INTERRES
   225  114  115 1    
   226  114  235 1    
   227  115  116 1    
   228  115  117 1    
   229  115  236 1    
   230  116  237 1    
   231  116  238 1    
   232  116  239 1    
   233  117  118 2    
   234  117  119 am   BACKBONE|DICT|INTERRES
   235  119  120 1    
   236  119  240 1    
   237  120  121 1    
   238  120  124 1    
   239  120  241 1    
   240  121  122 am   BACKBONE|DICT|INTERRES
   241  121  123 2    
   242  122  242 1    
   243  122  243 1    
   244  124  125 1    
   245  124  244 1    
   246  124  245 1    
   247  125  126 1    
   248  126  246 1    
   249  126  247 1    
@<TRIPOS>SUBSTRUCTURE
     1 UNK         1 GROUP             0       ****    0 ROOT    
