@<TRIPOS>MOLECULE
3R540
247   249    1
SMALL
USER_CHARGES


@<TRIPOS>ATOM
      1 CA         -5.1246  -16.6943  -48.1489 C.3       0 UNK        -0.1800 
      2 C          -3.8585  -16.0383  -47.6135 C.2       0 UNK         0.5000 
      3 O          -2.8562  -16.7208  -47.4197 O.2       0 UNK        -0.5000 
      4 N          -3.9216  -14.7214  -47.3668 N.am      1 UNK        -0.5000 
      5 CA         -2.8477  -13.8321  -46.8889 C.3       1 UNK         0.1400 
      6 C6         -1.8383  -13.4106  -48.0017 C.3       23 UNK        -0.0398 
      7 S7         -0.4393  -14.5360  -48.3496 S.3       23 UNK        -0.2404 
      8 C8         -0.9686  -15.3468  -49.8940 C.3       23 UNK        -0.0205 
      9 C9         -0.0302  -16.4588  -50.3599 C.ar      23 UNK        -0.0193 
     10 C10         0.1187  -16.6940  -51.7298 C.ar      23 UNK        -0.1150 
     11 C11         0.9547  -17.7132  -52.1944 C.ar      23 UNK        -0.0193 
     12 C12         1.6665  -18.4905  -51.2775 C.ar      23 UNK        -0.1150 
     13 C13         1.5046  -18.2926  -49.9050 C.ar      23 UNK        -0.0193 
     14 C14         0.6520  -17.2809  -49.4529 C.ar      23 UNK        -0.1150 
     15 C15         2.2320  -19.1877  -48.9100 C.3       23 UNK        -0.0205 
     16 S16         1.6595  -20.9170  -48.9826 S.3       23 UNK        -0.2404 
     17 C17        -0.1355  -20.7047  -48.7496 C.3       23 UNK        -0.0398 
     18 CA         -0.7720  -21.7815  -47.8479 C.3       11 UNK         0.1400 
     19 N          -0.1930  -21.8126  -46.5016 N.am      11 UNK        -0.5000 
     20 C          -0.3355  -22.8337  -45.6450 C.2       10 UNK         0.5000 
     21 O          -0.9681  -23.8568  -45.9050 O.2       10 UNK        -0.5000 
     22 CA          0.2793  -22.6571  -44.2438 C.3       10 UNK         0.1400 
     23 CB          1.7691  -23.0279  -44.2563 C.3       10 UNK        -0.1800 
     24 N           0.1134  -21.2969  -43.7271 N.am      10 UNK        -0.5000 
     25 C          -1.0783  -20.7393  -43.4613 C.2       9 UNK         0.5000 
     26 O          -2.1427  -21.3468  -43.5659 O.2       9 UNK        -0.5000 
     27 CA         -1.1136  -19.2520  -43.0589 C.3       9 UNK         0.1400 
     28 CB         -1.2724  -19.1077  -41.5387 C.3       9 UNK        -0.1800 
     29 N           0.0523  -18.4818  -43.4864 N.am      9 UNK        -0.5000 
     30 C           0.4625  -18.3096  -44.7509 C.2       8 UNK         0.5000 
     31 O          -0.1195  -18.7722  -45.7324 O.2       8 UNK        -0.5000 
     32 CA          1.7888  -17.5493  -44.9322 C.3       8 UNK         0.1400 
     33 CB          1.5252  -16.0617  -45.1971 C.3       8 UNK        -0.1800 
     34 N           2.7067  -17.6849  -43.7963 N.am      8 UNK        -0.5000 
     35 C           3.2375  -18.8396  -43.3667 C.2       7 UNK         0.5000 
     36 O           2.9493  -19.9376  -43.8465 O.2       7 UNK        -0.5000 
     37 CA          4.2477  -18.7350  -42.2048 C.3       7 UNK         0.1400 
     38 CB          4.9479  -20.0733  -41.8906 C.3       7 UNK        -0.1800 
     39 N           5.2336  -17.6690  -42.4136 N.am      7 UNK        -0.5000 
     40 C           6.0903  -17.5300  -43.4369 C.2       6 UNK         0.5000 
     41 O           6.2033  -18.3459  -44.3534 O.2       6 UNK        -0.5000 
     42 CA          6.9397  -16.2387  -43.4418 C.3       6 UNK         0.1400 
     43 CB          7.7852  -16.0852  -44.7194 C.3       6 UNK        -0.1800 
     44 N           6.1042  -15.0450  -43.2885 N.am      6 UNK        -0.5000 
     45 C           5.6199  -14.5799  -42.1307 C.2       5 UNK         0.5000 
     46 O           5.8864  -15.0903  -41.0397 O.2       5 UNK        -0.5000 
     47 CA          4.6570  -13.3738  -42.1897 C.3       5 UNK         0.1400 
     48 CB          4.1105  -13.0696  -43.6031 C.3       5 UNK        -0.1800 
     49 N           3.5494  -13.5170  -41.2400 N.am      5 UNK        -0.5000 
     50 C           2.6492  -14.5099  -41.1846 C.2       4 UNK         0.5000 
     51 O           2.6230  -15.4641  -41.9650 O.2       4 UNK        -0.5000 
     52 CA          1.5920  -14.4329  -40.0650 C.3       4 UNK         0.1400 
     53 CB          2.0652  -13.6695  -38.8079 C.3       4 UNK        -0.1800 
     54 N           0.3176  -13.9008  -40.5539 N.am      4 UNK        -0.5000 
     55 C           0.0775  -12.7008  -41.1018 C.2       3 UNK         0.5000 
     56 O           0.9316  -11.8226  -41.2362 O.2       3 UNK        -0.5000 
     57 CA         -1.3685  -12.4541  -41.5850 C.3       3 UNK         0.1400 
     58 CB         -1.5563  -11.0644  -42.2204 C.3       3 UNK        -0.1800 
     59 N          -1.8002  -13.4648  -42.5506 N.am      3 UNK        -0.5000 
     60 C          -2.2167  -14.7037  -42.2721 C.2       2 UNK         0.5000 
     61 O          -2.2767  -15.1356  -41.1193 O.2       2 UNK        -0.5000 
     62 CA         -2.6134  -15.6236  -43.4525 C.3       2 UNK         0.1400 
     63 CB         -3.7601  -16.5725  -43.0587 C.3       2 UNK        -0.1800 
     64 N          -2.9951  -14.9606  -44.7056 N.am      2 UNK        -0.5000 
     65 C          -2.2174  -14.2484  -45.5340 C.2       1 UNK         0.5000 
     66 O          -1.0779  -13.8875  -45.2405 O.2       1 UNK        -0.5000 
     67 C          -2.2988  -21.5817  -47.8076 C.2       11 UNK         0.5000 
     68 O          -2.9900  -22.0555  -48.7100 O.2       11 UNK        -0.5000 
     69 N          -2.7984  -20.8921  -46.7726 N.am      12 UNK        -0.5000 
     70 CA         -4.2256  -20.7183  -46.5128 C.3       12 UNK         0.1400 
     71 CB         -4.4373  -19.5698  -45.5162 C.3       12 UNK        -0.1800 
     72 C          -4.8598  -22.0216  -45.9989 C.2       12 UNK         0.5000 
     73 O          -5.9176  -22.4121  -46.4903 O.2       12 UNK        -0.5000 
     74 N          -4.1794  -22.6944  -45.0587 N.am      13 UNK        -0.5000 
     75 CA         -4.5746  -23.9857  -44.4905 C.3       13 UNK         0.1400 
     76 CB         -3.6457  -24.3326  -43.3173 C.3       13 UNK        -0.1800 
     77 C          -4.5855  -25.1215  -45.5302 C.2       13 UNK         0.5000 
     78 O          -5.4999  -25.9462  -45.5214 O.2       13 UNK        -0.5000 
     79 N          -3.5940  -25.1187  -46.4321 N.am      14 UNK        -0.5000 
     80 CA         -3.5075  -26.0249  -47.5802 C.3       14 UNK         0.1400 
     81 CB         -2.0692  -25.9955  -48.1220 C.3       14 UNK        -0.1800 
     82 C          -4.5021  -25.6831  -48.7097 C.2       14 UNK         0.5000 
     83 O          -4.6846  -26.4990  -49.6132 O.2       14 UNK        -0.5000 
     84 N          -5.0872  -24.4762  -48.6604 N.am      15 UNK        -0.5000 
     85 CA         -5.9757  -23.8483  -49.6459 C.3       15 UNK         0.1400 
     86 CB         -7.2656  -24.6681  -49.8478 C.3       15 UNK        -0.1800 
     87 C          -5.2865  -23.5018  -50.9820 C.2       15 UNK         0.5000 
     88 O          -5.9660  -23.1118  -51.9313 O.2       15 UNK        -0.5000 
     89 N          -3.9513  -23.5936  -51.0294 N.am      16 UNK        -0.5000 
     90 CA         -3.1216  -23.2725  -52.1873 C.3       16 UNK         0.1400 
     91 CB         -1.6805  -23.7345  -51.9267 C.3       16 UNK        -0.1800 
     92 C          -3.1578  -21.7768  -52.5334 C.2       16 UNK         0.5000 
     93 O          -3.1951  -21.4339  -53.7146 O.2       16 UNK        -0.5000 
     94 N          -3.1855  -20.9200  -51.5028 N.am      17 UNK        -0.5000 
     95 CA         -3.3297  -19.4711  -51.6559 C.3       17 UNK         0.1400 
     96 CB         -2.9470  -18.7684  -50.3466 C.3       17 UNK        -0.1800 
     97 C          -4.7496  -19.0633  -52.0871 C.2       17 UNK         0.5000 
     98 O          -4.9019  -18.1043  -52.8429 O.2       17 UNK        -0.5000 
     99 N          -5.7588  -19.8054  -51.6097 N.am      18 UNK        -0.5000 
    100 CA        -7.1705  -19.5900  -51.9286 C.3       18 UNK         0.1400 
    101 CB        -8.0449  -20.3408  -50.9118 C.3       18 UNK        -0.1800 
    102 C         -7.5090  -20.0128  -53.3691 C.2       18 UNK         0.5000 
    103 O         -8.2104  -19.2836  -54.0708 O.2       18 UNK        -0.5000 
    104 N         -6.9827  -21.1710  -53.7893 N.am      19 UNK        -0.5000 
    105 CA        -7.1345  -21.7164  -55.1392 C.3       19 UNK         0.1400 
    106 CB        -6.8183  -23.2203  -55.0959 C.3       19 UNK        -0.1800 
    107 C         -6.2408  -21.0227  -56.1861 C.2       19 UNK         0.5000 
    108 O         -6.4838  -21.1890  -57.3818 O.2       19 UNK        -0.5000 
    109 N         -5.2085  -20.3009  -55.7219 N.am      20 UNK        -0.5000 
    110 CA        -4.1066  -19.7164  -56.4975 C.3       20 UNK         0.1400 
    111 CB        -4.6114  -18.6275  -57.4662 C.3       20 UNK        -0.1800 
    112 C         -3.2384  -20.7943  -57.1856 C.2       20 UNK         0.5000 
    113 O         -2.6730  -20.5592  -58.2546 O.2       20 UNK        -0.5000 
    114 N         -3.1419  -21.9610  -56.5361 N.am      21 UNK        -0.5000 
    115 CA        -2.3336  -23.1104  -56.9406 C.3       21 UNK         0.1400 
    116 CB        -3.0230  -24.3877  -56.4350 C.3       21 UNK        -0.1800 
    117 C         -0.8906  -23.0224  -56.4053 C.2       21 UNK         0.5000 
    118 O         -0.0500  -23.8342  -56.7931 O.2       21 UNK        -0.5000 
    119 N         -0.6327  -22.0489  -55.5231 N.am      22 UNK        -0.5000 
    120 CA         0.6659  -21.7473  -54.9049 C.3       22 UNK         0.1400 
    121 C          1.7975  -21.2852  -55.8740 C.2       22 UNK         0.5000 
    122 N          1.5069  -20.9177  -57.1162 N.am      22 UNK        -0.7600 
    123 O          2.9633  -21.2671  -55.4889 O.2       22 UNK        -0.5000 
    124 C124        0.4892  -20.7591  -53.7244 C.3       23 UNK        -0.0398 
    125 S125       -0.2281  -19.1505  -54.2273 S.3       23 UNK        -0.2404 
    126 C126        1.0625  -17.9864  -53.6859 C.3       23 UNK        -0.0205 
    127 H127       -6.0138  -16.1191  -47.8904 H         1 UNK         0.0600 
    128 H128       -5.2404  -17.6960  -47.7360 H         1 UNK         0.0600 
    129 H129       -5.0753  -16.7779  -49.2342 H         1 UNK         0.0600 
    130 H130       -4.7987  -14.2515  -47.5443 H         1 UNK         0.3000 
    131 H131       -3.3851  -12.9166  -46.6366 H         1 UNK         0.0600 
    132 H132       -2.3741  -13.2068  -48.9295 H         1 UNK         0.0800 
    133 H133       -1.3929  -12.4555  -47.7196 H         1 UNK         0.0800 
    134 H134       -1.0530  -14.5820  -50.6674 H         1 UNK         0.0800 
    135 H135       -1.9637  -15.7664  -49.7628 H         1 UNK         0.0800 
    136 H136       -0.4303  -16.0919  -52.4402 H         1 UNK         0.1150 
    137 H137        2.3243  -19.2739  -51.6246 H         1 UNK         0.1150 
    138 H138        0.5134  -17.1415  -48.3899 H         1 UNK         0.1150 
    139 H139        2.0978  -18.8197  -47.8939 H         1 UNK         0.0800 
    140 H140        3.3035  -19.1565  -49.1115 H         1 UNK         0.0800 
    141 H141       -0.5833  -20.7294  -49.7445 H         1 UNK         0.0800 
    142 H142       -0.3380  -19.7139  -48.3392 H         1 UNK         0.0800 
    143 H143       -0.5899  -22.7528  -48.3129 H         1 UNK         0.0600 
    144 H144        0.2954  -20.9783  -46.2027 H         1 UNK         0.3000 
    145 H145       -0.2357  -23.3396  -43.5646 H         1 UNK         0.0600 
    146 H146        1.9111  -24.0591  -44.5821 H         1 UNK         0.0600 
    147 H147        2.2080  -22.9362  -43.2626 H         1 UNK         0.0600 
    148 H148        2.3376  -22.3890  -44.9333 H         1 UNK         0.0600 
    149 H149        0.9542  -20.7362  -43.6478 H         1 UNK         0.3000 
    150 H150       -1.9875  -18.8135  -43.5423 H         1 UNK         0.0600 
    151 H151       -0.4210  -19.5311  -41.0043 H         1 UNK         0.0600 
    152 H152       -2.1687  -19.6222  -41.1894 H         1 UNK         0.0600 
    153 H153       -1.3650  -18.0615  -41.2461 H         1 UNK         0.0600 
    154 H154        0.6201  -18.0799  -42.7550 H         1 UNK         0.3000 
    155 H155        2.2900  -17.9680  -45.8047 H         1 UNK         0.0600 
    156 H156        2.4440  -15.5386  -45.4603 H         1 UNK         0.0600 
    157 H157        1.0906  -15.5663  -44.3279 H         1 UNK         0.0600 
    158 H158        0.8300  -15.9320  -46.0269 H         1 UNK         0.0600 
    159 H159        2.9229  -16.8321  -43.2862 H         1 UNK         0.3000 
    160 H160        3.6698  -18.4502  -41.3244 H         1 UNK         0.0600 
    161 H161        5.5153  -20.4450  -42.7444 H         1 UNK         0.0600 
    162 H162        4.2207  -20.8411  -41.6235 H         1 UNK         0.0600 
    163 H163        5.6345  -19.9712  -41.0503 H         1 UNK         0.0600 
    164 H164        5.2218  -16.9201  -41.7292 H         1 UNK         0.3000 
    165 H165        7.6284  -16.3046  -42.5969 H         1 UNK         0.0600 
    166 H166        8.4617  -16.9314  -44.8460 H         1 UNK         0.0600 
    167 H167        7.1605  -16.0259  -45.6115 H         1 UNK         0.0600 
    168 H168        8.3995  -15.1855  -44.6795 H         1 UNK         0.0600 
    169 H169        5.8117  -14.5952  -44.1439 H         1 UNK         0.3000 
    170 H170        5.2334  -12.5079  -41.8618 H         1 UNK         0.0600 
    171 H171        3.4118  -12.2331  -43.5769 H         1 UNK         0.0600 
    172 H172        3.5825  -13.9229  -44.0289 H         1 UNK         0.0600 
    173 H173        4.9109  -12.7920  -44.2897 H         1 UNK         0.0600 
    174 H174        3.4702  -12.7822  -40.5519 H         1 UNK         0.3000 
    175 H175        1.3970  -15.4629  -39.7625 H         1 UNK         0.0600 
    176 H176        3.0086  -14.0733  -38.4380 H         1 UNK         0.0600 
    177 H177        2.2106  -12.6050  -38.9923 H         1 UNK         0.0600 
    178 H178        1.3378  -13.7647  -38.0016 H         1 UNK         0.0600 
    179 H179       -0.4654  -14.5468  -40.5284 H         1 UNK         0.3000 
    180 H180       -2.0149  -12.5065  -40.7065 H         1 UNK         0.0600 
    181 H181       -0.9399  -10.9437  -43.1123 H         1 UNK         0.0600 
    182 H182       -1.2845  -10.2728  -41.5209 H         1 UNK         0.0600 
    183 H183       -2.5951  -10.8994  -42.5067 H         1 UNK         0.0600 
    184 H184       -1.6484  -13.2479  -43.5304 H         1 UNK         0.3000 
    185 H185       -1.7338  -16.2308  -43.6704 H         1 UNK         0.0600 
    186 H186       -3.5012  -17.1803  -42.1914 H         1 UNK         0.0600 
    187 H187       -4.6667  -16.0195  -42.8103 H         1 UNK         0.0600 
    188 H188       -4.0009  -17.2590  -43.8686 H         1 UNK         0.0600 
    189 H189       -3.9299  -15.1600  -45.0292 H         1 UNK         0.3000 
    190 H190       -2.1576  -20.5167  -46.0882 H         1 UNK         0.3000 
    191 H191       -4.7141  -20.4458  -47.4510 H         1 UNK         0.0600 
    192 H192       -3.9180  -18.6689  -45.8405 H         1 UNK         0.0600 
    193 H193       -5.4961  -19.3243  -45.4280 H         1 UNK         0.0600 
    194 H194       -4.0782  -19.8200  -44.5185 H         1 UNK         0.0600 
    195 H195       -3.3422  -22.2704  -44.6663 H         1 UNK         0.3000 
    196 H196       -5.5898  -23.8813  -44.1024 H         1 UNK         0.0600 
    197 H197       -3.9301  -25.2809  -42.8597 H         1 UNK         0.0600 
    198 H198       -3.6911  -23.5694  -42.5402 H         1 UNK         0.0600 
    199 H199       -2.6073  -24.4201  -43.6386 H         1 UNK         0.0600 
    200 H200       -2.8309  -24.4583  -46.3178 H         1 UNK         0.3000 
    201 H201       -3.7275  -27.0394  -47.2418 H         1 UNK         0.0600 
    202 H202       -1.9492  -26.6838  -48.9595 H         1 UNK         0.0600 
    203 H203       -1.3532  -26.2913  -47.3550 H         1 UNK         0.0600 
    204 H204       -1.7923  -25.0004  -48.4720 H         1 UNK         0.0600 
    205 H205       -4.8716  -23.8921  -47.8630 H         1 UNK         0.3000 
    206 H206       -6.2652  -22.8910  -49.2109 H         1 UNK         0.0600 
    207 H207       -7.7425  -24.8925  -48.8937 H         1 UNK         0.0600 
    208 H208       -7.9890  -24.1161  -50.4490 H         1 UNK         0.0600 
    209 H209       -7.0732  -25.6115  -50.3590 H         1 UNK         0.0600 
    210 H210       -3.4701  -23.8275  -50.1729 H         1 UNK         0.3000 
    211 H211       -3.5134  -23.8246  -53.0434 H         1 UNK         0.0600 
    212 H212       -1.6427  -24.8025  -51.7114 H         1 UNK         0.0600 
    213 H213       -1.0513  -23.5588  -52.8000 H         1 UNK         0.0600 
    214 H214       -1.2324  -23.2068  -51.0835 H         1 UNK         0.0600 
    215 H215       -3.1645  -21.2931  -50.5590 H         1 UNK         0.3000 
    216 H216       -2.6415  -19.1322  -52.4327 H         1 UNK         0.0600 
    217 H217       -3.5098  -19.1505  -49.4945 H         1 UNK         0.0600 
    218 H218       -3.1386  -17.6979  -50.4136 H         1 UNK         0.0600 
    219 H219       -1.8861  -18.8809  -50.1343 H         1 UNK         0.0600 
    220 H220       -5.5392  -20.5947  -51.0224 H         1 UNK         0.3000 
    221 H221       -7.3842  -18.5231  -51.8338 H         1 UNK         0.0600 
    222 H222       -7.8841  -21.4182  -50.9530 H         1 UNK         0.0600 
    223 H223       -7.8391  -20.0095  -49.8938 H         1 UNK         0.0600 
    224 H224       -9.1035  -20.1616  -51.1036 H         1 UNK         0.0600 
    225 H225       -6.4752  -21.7512  -53.1253 H         1 UNK         0.3000 
    226 H226       -8.1727  -21.5920  -55.4537 H         1 UNK         0.0600 
    227 H227       -7.4757  -23.7416  -54.3997 H         1 UNK         0.0600 
    228 H228       -6.9527  -23.6796  -56.0760 H         1 UNK         0.0600 
    229 H229       -5.7891  -23.4050  -54.7846 H         1 UNK         0.0600 
    230 H230       -5.0949  -20.2565  -54.7184 H         1 UNK         0.3000 
    231 H231       -3.4560  -19.2295  -55.7691 H         1 UNK         0.0600 
    232 H232       -5.2022  -19.0473  -58.2805 H         1 UNK         0.0600 
    233 H233       -3.7761  -18.0891  -57.9152 H         1 UNK         0.0600 
    234 H234       -5.2276  -17.8938  -56.9465 H         1 UNK         0.0600 
    235 H235       -3.5655  -22.0116  -55.6163 H         1 UNK         0.3000 
    236 H236       -2.2828  -23.1532  -58.0304 H         1 UNK         0.0600 
    237 H237       -3.0776  -24.4119  -55.3465 H         1 UNK         0.0600 
    238 H238       -4.0386  -24.4675  -56.8234 H         1 UNK         0.0600 
    239 H239       -2.4818  -25.2784  -56.7565 H         1 UNK         0.0600 
    240 H240       -1.3946  -21.4429  -55.2503 H         1 UNK         0.3000 
    241 H241        1.0218  -22.6877  -54.4801 H         1 UNK         0.0600 
    242 H242        0.5533  -20.9211  -57.4409 H         1 UNK         0.3800 
    243 H243        2.2472  -20.6251  -57.7342 H         1 UNK         0.3800 
    244 H244       -0.1675  -21.1937  -52.9707 H         1 UNK         0.0800 
    245 H245        1.4441  -20.6116  -53.2212 H         1 UNK         0.0800 
    246 H246        2.0506  -18.3727  -53.9411 H         1 UNK         0.0800 
    247 H247        0.9491  -17.0536  -54.2401 H         1 UNK         0.0800 
@<TRIPOS>BOND
     1    1    2 1    
     2    1  127 1    
     3    1  128 1    
     4    1  129 1    
     5    2    3 2    
     6    2    4 am   BACKBONE|DICT|INTERRES
     7    4    5 1    
     8    4  130 1    
     9    5    6 1    
    10    5   65 1    
    11    5  131 1    
    12    6    7 1    
    13    6  132 1    
    14    6  133 1    
    15    7    8 1    
    16    8    9 1    
    17    8  134 1    
    18    8  135 1    
    19    9   10 ar   
    20    9   14 ar   
    21   10   11 ar   
    22   10  136 1    
    23   11   12 ar   
    24   11  126 1    
    25   12   13 ar   
    26   12  137 1    
    27   13   14 ar   
    28   13   15 1    
    29   14  138 1    
    30   15   16 1    
    31   15  139 1    
    32   15  140 1    
    33   16   17 1    
    34   17   18 1    
    35   17  141 1    
    36   17  142 1    
    37   18   19 1    
    38   18   67 1    
    39   18  143 1    
    40   19   20 am   BACKBONE|DICT|INTERRES
    41   19  144 1    
    42   20   21 2    
    43   20   22 1    
    44   22   23 1    
    45   22   24 1    
    46   22  145 1    
    47   23  146 1    
    48   23  147 1    
    49   23  148 1    
    50   24   25 am   BACKBONE|DICT|INTERRES
    51   24  149 1    
    52   25   26 2    
    53   25   27 1    
    54   27   28 1    
    55   27   29 1    
    56   27  150 1    
    57   28  151 1    
    58   28  152 1    
    59   28  153 1    
    60   29   30 am   BACKBONE|DICT|INTERRES
    61   29  154 1    
    62   30   31 2    
    63   30   32 1    
    64   32   33 1    
    65   32   34 1    
    66   32  155 1    
    67   33  156 1    
    68   33  157 1    
    69   33  158 1    
    70   34   35 am   BACKBONE|DICT|INTERRES
    71   34  159 1    
    72   35   36 2    
    73   35   37 1    
    74   37   38 1    
    75   37   39 1    
    76   37  160 1    
    77   38  161 1    
    78   38  162 1    
    79   38  163 1    
    80   39   40 am   BACKBONE|DICT|INTERRES
    81   39  164 1    
    82   40   41 2    
    83   40   42 1    
    84   42   43 1    
    85   42   44 1    
    86   42  165 1    
    87   43  166 1    
    88   43  167 1    
    89   43  168 1    
    90   44   45 am   BACKBONE|DICT|INTERRES
    91   44  169 1    
    92   45   46 2    
    93   45   47 1    
    94   47   48 1    
    95   47   49 1    
    96   47  170 1    
    97   48  171 1    
    98   48  172 1    
    99   48  173 1    
   100   49   50 am   BACKBONE|DICT|INTERRES
   101   49  174 1    
   102   50   51 2    
   103   50   52 1    
   104   52   53 1    
   105   52   54 1    
   106   52  175 1    
   107   53  176 1    
   108   53  177 1    
   109   53  178 1    
   110   54   55 am   BACKBONE|DICT|INTERRES
   111   54  179 1    
   112   55   56 2    
   113   55   57 1    
   114   57   58 1    
   115   57   59 1    
   116   57  180 1    
   117   58  181 1    
   118   58  182 1    
   119   58  183 1    
   120   59   60 am   BACKBONE|DICT|INTERRES
   121   59  184 1    
   122   60   61 2    
   123   60   62 1    
   124   62   63 1    
   125   62   64 1    
   126   62  185 1    
   127   63  186 1    
   128   63  187 1    
   129   63  188 1    
   130   64   65 am   BACKBONE|DICT|INTERRES
   131   64  189 1    
   132   65   66 2    
   133   67   68 2    
   134   67   69 am   BACKBONE|DICT|INTERRES
   135   69   70 1    
   136   69  190 1    
   137   70   71 1    
   138   70   72 1    
   139   70  191 1    
   140   71  192 1    
   141   71  193 1    
   142   71  194 1    
   143   72   73 2    
   144   72   74 am   BACKBONE|DICT|INTERRES
   145   74   75 1    
   146   74  195 1    
   147   75   76 1    
   148   75   77 1    
   149   75  196 1    
   150   76  197 1    
   151   76  198 1    
   152   76  199 1    
   153   77   78 2    
   154   77   79 am   BACKBONE|DICT|INTERRES
   155   79   80 1    
   156   79  200 1    
   157   80   81 1    
   158   80   82 1    
   159   80  201 1    
   160   81  202 1    
   161   81  203 1    
   162   81  204 1    
   163   82   83 2    
   164   82   84 am   BACKBONE|DICT|INTERRES
   165   84   85 1    
   166   84  205 1    
   167   85   86 1    
   168   85   87 1    
   169   85  206 1    
   170   86  207 1    
   171   86  208 1    
   172   86  209 1    
   173   87   88 2    
   174   87   89 am   BACKBONE|DICT|INTERRES
   175   89   90 1    
   176   89  210 1    
   177   90   91 1    
   178   90   92 1    
   179   90  211 1    
   180   91  212 1    
   181   91  213 1    
   182   91  214 1    
   183   92   93 2    
   184   92   94 am   BACKBONE|DICT|INTERRES
   185   94   95 1    
   186   94  215 1    
   187   95   96 1    
   188   95   97 1    
   189   95  216 1    
   190   96  217 1    
   191   96  218 1    
   192   96  219 1    
   193   97   98 2    
   194   97   99 am   BACKBONE|DICT|INTERRES
   195   99  100 1    
   196   99  220 1    
   197  100  101 1    
   198  100  102 1    
   199  100  221 1    
   200  101  222 1    
   201  101  223 1    
   202  101  224 1    
   203  102  103 2    
   204  102  104 am   BACKBONE|DICT|INTERRES
   205  104  105 1    
   206  104  225 1    
   207  105  106 1    
   208  105  107 1    
   209  105  226 1    
   210  106  227 1    
   211  106  228 1    
   212  106  229 1    
   213  107  108 2    
   214  107  109 am   BACKBONE|DICT|INTERRES
   215  109  110 1    
   216  109  230 1    
   217  110  111 1    
   218  110  112 1    
   219  110  231 1    
   220  111  232 1    
   221  111  233 1    
   222  111  234 1    
   223  112  113 2    
   224  112  114 am   BACKBONE|DICT|INTERRES
   225  114  115 1    
   226  114  235 1    
   227  115  116 1    
   228  115  117 1    
   229  115  236 1    
   230  116  237 1    
   231  116  238 1    
   232  116  239 1    
   233  117  118 2    
   234  117  119 am   BACKBONE|DICT|INTERRES
   235  119  120 1    
   236  119  240 1    
   237  120  121 1    
   238  120  124 1    
   239  120  241 1    
   240  121  122 am   BACKBONE|DICT|INTERRES
   241  121  123 2    
   242  122  242 1    
   243  122  243 1    
   244  124  125 1    
   245  124  244 1    
   246  124  245 1    
   247  125  126 1    
   248  126  246 1    
   249  126  247 1    
@<TRIPOS>SUBSTRUCTURE
     1 UNK         1 GROUP             0       ****    0 ROOT    
