@<TRIPOS>MOLECULE
3R540
247   249    1
SMALL
USER_CHARGES


@<TRIPOS>ATOM
      1 CA         -3.7982  -11.1687  -48.1899 C.3       0 UNK        -0.1800 
      2 C          -3.0586  -11.8298  -49.3442 C.2       0 UNK         0.5000 
      3 O          -2.4648  -11.1360  -50.1696 O.2       0 UNK        -0.5000 
      4 N          -3.0931  -13.1668  -49.4031 N.am      1 UNK        -0.5000 
      5 CA         -2.3998  -13.9945  -50.3997 C.3       1 UNK         0.1400 
      6 C6         -2.9282  -15.4500  -50.3985 C.3       23 UNK        -0.0398 
      7 S7         -2.8799  -16.2509  -48.7536 S.3       23 UNK        -0.2404 
      8 C8         -2.4822  -17.9768  -49.1617 C.3       23 UNK        -0.0205 
      9 C9         -1.0360  -18.1616  -49.5942 C.ar      23 UNK        -0.0193 
     10 C10        -0.7184  -18.2474  -50.9527 C.ar      23 UNK        -0.1150 
     11 C11         0.6026  -18.4369  -51.3631 C.ar      23 UNK        -0.0193 
     12 C12         1.6136  -18.5240  -50.4023 C.ar      23 UNK        -0.1150 
     13 C13         1.3120  -18.4343  -49.0401 C.ar      23 UNK        -0.0193 
     14 C14        -0.0179  -18.2698  -48.6410 C.ar      23 UNK        -0.1150 
     15 C15         2.4379  -18.4643  -48.0168 C.3       23 UNK        -0.0205 
     16 S16         3.0348  -20.1542  -47.6955 S.3       23 UNK        -0.2404 
     17 C17         2.2182  -20.5805  -46.1212 C.3       23 UNK        -0.0398 
     18 CA          1.4138  -21.9009  -46.1994 C.3       11 UNK         0.1400 
     19 N           1.3437  -22.5668  -44.8953 N.am      11 UNK        -0.5000 
     20 C           0.9086  -23.8199  -44.6992 C.2       10 UNK         0.5000 
     21 O           0.5647  -24.5714  -45.6085 O.2       10 UNK        -0.5000 
     22 CA          0.7939  -24.3004  -43.2409 C.3       10 UNK         0.1400 
     23 CB          2.0932  -24.9884  -42.7985 C.3       10 UNK        -0.1800 
     24 N           0.4814  -23.2212  -42.3052 N.am      10 UNK        -0.5000 
     25 C          -0.6214  -22.4629  -42.3155 C.2       9 UNK         0.5000 
     26 O          -1.5422  -22.6214  -43.1175 O.2       9 UNK        -0.5000 
     27 CA         -0.6751  -21.2955  -41.3100 C.3       9 UNK         0.1400 
     28 CB         -1.1112  -21.7715  -39.9125 C.3       9 UNK        -0.1800 
     29 N           0.5636  -20.5037  -41.2552 N.am      9 UNK        -0.5000 
     30 C           1.7824  -20.8631  -40.8194 C.2       8 UNK         0.5000 
     31 O           2.0487  -21.9674  -40.3439 O.2       8 UNK        -0.5000 
     32 CA          2.9067  -19.8291  -40.9839 C.3       8 UNK         0.1400 
     33 CB          3.4851  -19.8972  -42.4059 C.3       8 UNK        -0.1800 
     34 N           2.4483  -18.4698  -40.7150 N.am      8 UNK        -0.5000 
     35 C           2.2165  -17.9772  -39.4913 C.2       7 UNK         0.5000 
     36 O           2.4069  -18.6050  -38.4489 O.2       7 UNK        -0.5000 
     37 CA          1.6622  -16.5446  -39.4272 C.3       7 UNK         0.1400 
     38 CB          2.7705  -15.5123  -39.6888 C.3       7 UNK        -0.1800 
     39 N           0.5701  -16.3430  -40.3785 N.am      7 UNK        -0.5000 
     40 C          -0.6626  -16.8502  -40.2373 C.2       6 UNK         0.5000 
     41 O          -1.0201  -17.5224  -39.2698 O.2       6 UNK        -0.5000 
     42 CA         -1.6722  -16.5518  -41.3608 C.3       6 UNK         0.1400 
     43 CB         -2.5373  -15.3357  -40.9964 C.3       6 UNK        -0.1800 
     44 N          -1.0339  -16.3093  -42.6550 N.am      6 UNK        -0.5000 
     45 C          -0.5247  -17.2707  -43.4346 C.2       5 UNK         0.5000 
     46 O          -0.5077  -18.4664  -43.1388 O.2       5 UNK        -0.5000 
     47 CA          0.1078  -16.8029  -44.7558 C.3       5 UNK         0.1400 
     48 CB         -0.9705  -16.2627  -45.7067 C.3       5 UNK        -0.1800 
     49 N           1.1702  -15.8028  -44.5960 N.am      5 UNK        -0.5000 
     50 C           2.2555  -15.9374  -43.8160 C.2       4 UNK         0.5000 
     51 O           2.4171  -16.8762  -43.0384 O.2       4 UNK        -0.5000 
     52 CA          3.3708  -14.8797  -43.9204 C.3       4 UNK         0.1400 
     53 CB          4.6663  -15.5280  -44.4353 C.3       4 UNK        -0.1800 
     54 N           3.0343  -13.7619  -44.7995 N.am      4 UNK        -0.5000 
     55 C           2.4028  -12.6443  -44.4184 C.2       3 UNK         0.5000 
     56 O           2.0189  -12.4311  -43.2683 O.2       3 UNK        -0.5000 
     57 CA          2.1459  -11.5959  -45.5202 C.3       3 UNK         0.1400 
     58 CB          3.2798  -10.5599  -45.5515 C.3       3 UNK        -0.1800 
     59 N           1.9967  -12.1871  -46.8556 N.am      3 UNK        -0.5000 
     60 C           0.9702  -12.9677  -47.2125 C.2       2 UNK         0.5000 
     61 O           0.0455  -13.2644  -46.4513 O.2       2 UNK        -0.5000 
     62 CA          0.9946  -13.5469  -48.6317 C.3       2 UNK         0.1400 
     63 CB          1.7985  -14.8589  -48.6747 C.3       2 UNK        -0.1800 
     64 N          -0.3877  -13.7837  -49.0178 N.am      2 UNK        -0.5000 
     65 C          -0.8617  -13.9336  -50.2583 C.2       1 UNK         0.5000 
     66 O          -0.1526  -13.9788  -51.2646 O.2       1 UNK        -0.5000 
     67 C           0.0076  -21.6857  -46.7962 C.2       11 UNK         0.5000 
     68 O          -0.2119  -21.9847  -47.9691 O.2       11 UNK        -0.5000 
     69 N          -0.9380  -21.2344  -45.9577 N.am      12 UNK        -0.5000 
     70 CA         -2.3429  -21.0688  -46.3277 C.3       12 UNK         0.1400 
     71 CB         -3.0672  -20.2313  -45.2644 C.3       12 UNK        -0.1800 
     72 C          -3.0556  -22.4108  -46.5667 C.2       12 UNK         0.5000 
     73 O          -3.8875  -22.4971  -47.4707 O.2       12 UNK        -0.5000 
     74 N          -2.6921  -23.4396  -45.7878 N.am      13 UNK        -0.5000 
     75 CA         -3.1581  -24.8147  -45.9704 C.3       13 UNK         0.1400 
     76 CB         -2.7475  -25.6717  -44.7643 C.3       13 UNK        -0.1800 
     77 C          -2.6525  -25.4311  -47.2887 C.2       13 UNK         0.5000 
     78 O          -3.4446  -26.0282  -48.0169 O.2       13 UNK        -0.5000 
     79 N          -1.3634  -25.2324  -47.6020 N.am      14 UNK        -0.5000 
     80 CA         -0.7288  -25.6507  -48.8561 C.3       14 UNK         0.1400 
     81 CB          0.7885  -25.4288  -48.7663 C.3       14 UNK        -0.1800 
     82 C          -1.3106  -24.9364  -50.0906 C.2       14 UNK         0.5000 
     83 O          -1.4633  -25.5620  -51.1398 O.2       14 UNK        -0.5000 
     84 N          -1.6746  -23.6575  -49.9264 N.am      15 UNK        -0.5000 
     85 CA         -2.3874  -22.8485  -50.9167 C.3       15 UNK         0.1400 
     86 CB         -2.1663  -21.3640  -50.5942 C.3       15 UNK        -0.1800 
     87 C          -3.8964  -23.1642  -51.0086 C.2       15 UNK         0.5000 
     88 O          -4.5908  -22.5280  -51.8047 O.2       15 UNK        -0.5000 
     89 N          -4.3829  -24.1084  -50.1879 N.am      16 UNK        -0.5000 
     90 CA         -5.7603  -24.5958  -50.0942 C.3       16 UNK         0.1400 
     91 CB         -6.1238  -25.4178  -51.3471 C.3       16 UNK        -0.1800 
     92 C          -6.7657  -23.4745  -49.7685 C.2       16 UNK         0.5000 
     93 O          -7.7947  -23.3497  -50.4330 O.2       16 UNK        -0.5000 
     94 N          -6.4202  -22.6631  -48.7573 N.am      17 UNK        -0.5000 
     95 CA         -7.1479  -21.4826  -48.2807 C.3       17 UNK         0.1400 
     96 CB         -8.5249  -21.8689  -47.7006 C.3       17 UNK        -0.1800 
     97 C          -7.2185  -20.3741  -49.3508 C.2       17 UNK         0.5000 
     98 O          -8.2687  -19.7597  -49.5451 O.2       17 UNK        -0.5000 
     99 N          -6.0784  -20.1538  -50.0226 N.am      18 UNK        -0.5000 
    100 CA        -5.8527  -19.1823  -51.0982 C.3       18 UNK         0.1400 
    101 CB        -6.0632  -17.7371  -50.5983 C.3       18 UNK        -0.1800 
    102 C         -6.6408  -19.4918  -52.3875 C.2       18 UNK         0.5000 
    103 O         -6.9936  -18.5720  -53.1282 O.2       18 UNK        -0.5000 
    104 N         -6.8795  -20.7831  -52.6531 N.am      19 UNK        -0.5000 
    105 CA        -7.3933  -21.2670  -53.9343 C.3       19 UNK         0.1400 
    106 CB        -8.0370  -22.6469  -53.7458 C.3       19 UNK        -0.1800 
    107 C         -6.2782  -21.3205  -54.9953 C.2       19 UNK         0.5000 
    108 O         -6.5543  -21.1056  -56.1765 O.2       19 UNK        -0.5000 
    109 N         -5.0381  -21.5823  -54.5562 N.am      20 UNK        -0.5000 
    110 CA        -3.8296  -21.4855  -55.3710 C.3       20 UNK         0.1400 
    111 CB        -2.6673  -22.1529  -54.6229 C.3       20 UNK        -0.1800 
    112 C         -3.4890  -20.0174  -55.6902 C.2       20 UNK         0.5000 
    113 O         -3.7172  -19.1369  -54.8572 O.2       20 UNK        -0.5000 
    114 N         -2.9375  -19.7936  -56.8888 N.am      21 UNK        -0.5000 
    115 CA        -2.5488  -18.4824  -57.4076 C.3       21 UNK         0.1400 
    116 CB        -2.1911  -18.5914  -58.8987 C.3       21 UNK        -0.1800 
    117 C         -1.4852  -17.7027  -56.5918 C.2       21 UNK         0.5000 
    118 O         -1.7006  -16.5117  -56.3725 O.2       21 UNK        -0.5000 
    119 N         -0.3710  -18.2771  -56.1074 N.am      22 UNK        -0.5000 
    120 CA         0.2174  -19.6062  -56.3615 C.3       22 UNK         0.1400 
    121 C          0.9600  -19.7228  -57.7248 C.2       22 UNK         0.5000 
    122 N          1.2283  -18.6329  -58.4339 N.am      22 UNK        -0.7600 
    123 O          1.2843  -20.8260  -58.1539 O.2       22 UNK        -0.5000 
    124 C124        1.1714  -20.0275  -55.2125 C.3       23 UNK        -0.0398 
    125 S125        0.3702  -20.0943  -53.5723 S.3       23 UNK        -0.2404 
    126 C126        0.9376  -18.5244  -52.8435 C.3       23 UNK        -0.0205 
    127 H127       -4.2858  -11.9024  -47.5474 H         1 UNK         0.0600 
    128 H128       -3.1021  -10.5928  -47.5800 H         1 UNK         0.0600 
    129 H129       -4.5613  -10.4905  -48.5717 H         1 UNK         0.0600 
    130 H130       -3.5956  -13.6837  -48.6948 H         1 UNK         0.3000 
    131 H131       -2.6321  -13.5724  -51.3799 H         1 UNK         0.0600 
    132 H132       -2.3867  -16.0476  -51.1312 H         1 UNK         0.0800 
    133 H133       -3.9655  -15.4510  -50.7331 H         1 UNK         0.0800 
    134 H134       -2.6801  -18.5818  -48.2794 H         1 UNK         0.0800 
    135 H135       -3.1604  -18.3361  -49.9346 H         1 UNK         0.0800 
    136 H136       -1.4998  -18.1827  -51.6968 H         1 UNK         0.1150 
    137 H137        2.6407  -18.6548  -50.7124 H         1 UNK         0.1150 
    138 H138       -0.2611  -18.2149  -47.5910 H         1 UNK         0.1150 
    139 H139        3.2732  -17.8752  -48.3983 H         1 UNK         0.0800 
    140 H140        2.1373  -17.9738  -47.0908 H         1 UNK         0.0800 
    141 H141        1.6020  -19.7577  -45.7576 H         1 UNK         0.0800 
    142 H142        3.0248  -20.6837  -45.3943 H         1 UNK         0.0800 
    143 H143        1.9454  -22.5859  -46.8642 H         1 UNK         0.0600 
    144 H144        1.6019  -22.0230  -44.0865 H         1 UNK         0.3000 
    145 H145       -0.0160  -25.0297  -43.1900 H         1 UNK         0.0600 
    146 H146        1.9978  -25.4013  -41.7940 H         1 UNK         0.0600 
    147 H147        2.3457  -25.8135  -43.4660 H         1 UNK         0.0600 
    148 H148        2.9356  -24.2954  -42.7972 H         1 UNK         0.0600 
    149 H149        1.1798  -23.0063  -41.5972 H         1 UNK         0.3000 
    150 H150       -1.4437  -20.6107  -41.6718 H         1 UNK         0.0600 
    151 H151       -2.0869  -22.2569  -39.9563 H         1 UNK         0.0600 
    152 H152       -1.1957  -20.9321  -39.2220 H         1 UNK         0.0600 
    153 H153       -0.4111  -22.4892  -39.4846 H         1 UNK         0.0600 
    154 H154        0.4751  -19.5880  -41.6830 H         1 UNK         0.3000 
    155 H155        3.7025  -20.0781  -40.2787 H         1 UNK         0.0600 
    156 H156        4.3231  -19.2097  -42.5224 H         1 UNK         0.0600 
    157 H157        2.7367  -19.6369  -43.1552 H         1 UNK         0.0600 
    158 H158        3.8507  -20.8990  -42.6349 H         1 UNK         0.0600 
    159 H159        2.3076  -17.8708  -41.5267 H         1 UNK         0.3000 
    160 H160        1.2763  -16.3770  -38.4192 H         1 UNK         0.0600 
    161 H161        2.3888  -14.4943  -39.6096 H         1 UNK         0.0600 
    162 H162        3.2102  -15.6298  -40.6792 H         1 UNK         0.0600 
    163 H163        3.5757  -15.6150  -38.9603 H         1 UNK         0.0600 
    164 H164        0.7856  -15.8320  -41.2211 H         1 UNK         0.3000 
    165 H165       -2.3279  -17.4205  -41.4539 H         1 UNK         0.0600 
    166 H166       -3.3019  -15.1551  -41.7522 H         1 UNK         0.0600 
    167 H167       -3.0512  -15.4921  -40.0470 H         1 UNK         0.0600 
    168 H168       -1.9384  -14.4291  -40.9001 H         1 UNK         0.0600 
    169 H169       -0.9895  -15.3516  -42.9721 H         1 UNK         0.3000 
    170 H170        0.5589  -17.6786  -45.2230 H         1 UNK         0.0600 
    171 H171       -1.7583  -16.9993  -45.8678 H         1 UNK         0.0600 
    172 H172       -1.4418  -15.3595  -45.3179 H         1 UNK         0.0600 
    173 H173       -0.5530  -16.0184  -46.6824 H         1 UNK         0.0600 
    174 H174        1.0891  -14.9713  -45.1648 H         1 UNK         0.3000 
    175 H175        3.5585  -14.5044  -42.9123 H         1 UNK         0.0600 
    176 H176        5.4814  -14.8050  -44.4722 H         1 UNK         0.0600 
    177 H177        4.9867  -16.3405  -43.7814 H         1 UNK         0.0600 
    178 H178        4.5393  -15.9435  -45.4359 H         1 UNK         0.0600 
    179 H179        3.3149  -13.8459  -45.7653 H         1 UNK         0.3000 
    180 H180        1.2171  -11.0780  -45.2710 H         1 UNK         0.0600 
    181 H181        4.2353  -11.0154  -45.8150 H         1 UNK         0.0600 
    182 H182        3.4007  -10.0838  -44.5775 H         1 UNK         0.0600 
    183 H183        3.0729   -9.7700  -46.2738 H         1 UNK         0.0600 
    184 H184        2.7230  -11.9816  -47.5269 H         1 UNK         0.3000 
    185 H185        1.4361  -12.8142  -49.3102 H         1 UNK         0.0600 
    186 H186        1.7867  -15.3026  -49.6704 H         1 UNK         0.0600 
    187 H187        2.8421  -14.6895  -48.4084 H         1 UNK         0.0600 
    188 H188        1.3977  -15.5963  -47.9796 H         1 UNK         0.0600 
    189 H189       -1.0388  -13.7398  -48.2432 H         1 UNK         0.3000 
    190 H190       -0.7050  -21.0683  -44.9896 H         1 UNK         0.3000 
    191 H191       -2.3735  -20.5219  -47.2690 H         1 UNK         0.0600 
    192 H192       -2.5993  -19.2542  -45.1462 H         1 UNK         0.0600 
    193 H193       -4.1076  -20.0618  -45.5448 H         1 UNK         0.0600 
    194 H194       -3.0654  -20.7222  -44.2910 H         1 UNK         0.0600 
    195 H195       -2.0528  -23.2645  -45.0207 H         1 UNK         0.3000 
    196 H196       -4.2493  -24.7916  -46.0094 H         1 UNK         0.0600 
    197 H197       -3.1849  -26.6684  -44.8316 H         1 UNK         0.0600 
    198 H198       -3.0876  -25.2282  -43.8282 H         1 UNK         0.0600 
    199 H199       -1.6671  -25.7956  -44.7048 H         1 UNK         0.0600 
    200 H200       -0.7566  -24.7819  -46.9214 H         1 UNK         0.3000 
    201 H201       -0.9088  -26.7206  -48.9785 H         1 UNK         0.0600 
    202 H202        1.2225  -26.0022  -47.9471 H         1 UNK         0.0600 
    203 H203        1.0329  -24.3784  -48.6054 H         1 UNK         0.0600 
    204 H204        1.2855  -25.7456  -49.6839 H         1 UNK         0.0600 
    205 H205       -1.4340  -23.1938  -49.0560 H         1 UNK         0.3000 
    206 H206       -1.9530  -23.0518  -51.8964 H         1 UNK         0.0600 
    207 H207       -1.1026  -21.1269  -50.5570 H         1 UNK         0.0600 
    208 H208       -2.6120  -20.7217  -51.3543 H         1 UNK         0.0600 
    209 H209       -2.6025  -21.0925  -49.6333 H         1 UNK         0.0600 
    210 H210       -3.7367  -24.5492  -49.5451 H         1 UNK         0.3000 
    211 H211       -5.7913  -25.2754  -49.2418 H         1 UNK         0.0600 
    212 H212       -6.0312  -24.8310  -52.2593 H         1 UNK         0.0600 
    213 H213       -7.1466  -25.7923  -51.2941 H         1 UNK         0.0600 
    214 H214       -5.4682  -26.2829  -51.4458 H         1 UNK         0.0600 
    215 H215       -5.5176  -22.8148  -48.3098 H         1 UNK         0.3000 
    216 H216       -6.5541  -21.0735  -47.4619 H         1 UNK         0.0600 
    217 H217       -8.4292  -22.6490  -46.9454 H         1 UNK         0.0600 
    218 H218       -9.2066  -22.2290  -48.4714 H         1 UNK         0.0600 
    219 H219       -8.9994  -21.0114  -47.2223 H         1 UNK         0.0600 
    220 H220       -5.2954  -20.7544  -49.8082 H         1 UNK         0.3000 
    221 H221       -4.8024  -19.2833  -51.3739 H         1 UNK         0.0600 
    222 H222       -7.1158  -17.5202  -50.4154 H         1 UNK         0.0600 
    223 H223       -5.5201  -17.5520  -49.6723 H         1 UNK         0.0600 
    224 H224       -5.7088  -17.0167  -51.3356 H         1 UNK         0.0600 
    225 H225       -6.5324  -21.4833  -52.0090 H         1 UNK         0.3000 
    226 H226       -8.1660  -20.5826  -54.2908 H         1 UNK         0.0600 
    227 H227       -8.8398  -22.6109  -53.0092 H         1 UNK         0.0600 
    228 H228       -8.4666  -23.0083  -54.6808 H         1 UNK         0.0600 
    229 H229       -7.3093  -23.3845  -53.4123 H         1 UNK         0.0600 
    230 H230       -4.9015  -21.7617  -53.5660 H         1 UNK         0.3000 
    231 H231       -4.0018  -22.0273  -56.3034 H         1 UNK         0.0600 
    232 H232       -2.9126  -23.1762  -54.3376 H         1 UNK         0.0600 
    233 H233       -2.4120  -21.6006  -53.7184 H         1 UNK         0.0600 
    234 H234       -1.7719  -22.1937  -55.2436 H         1 UNK         0.0600 
    235 H235       -2.7916  -20.5766  -57.5090 H         1 UNK         0.3000 
    236 H236       -3.4513  -17.8687  -57.3598 H         1 UNK         0.0600 
    237 H237       -3.0796  -18.8003  -59.4948 H         1 UNK         0.0600 
    238 H238       -1.7642  -17.6606  -59.2745 H         1 UNK         0.0600 
    239 H239       -1.4756  -19.3880  -59.0949 H         1 UNK         0.0600 
    240 H240        0.2254  -17.6807  -55.5566 H         1 UNK         0.3000 
    241 H241       -0.5697  -20.3536  -56.3886 H         1 UNK         0.0600 
    242 H242        0.9794  -17.7180  -58.0927 H         1 UNK         0.3800 
    243 H243        1.7064  -18.7228  -59.3169 H         1 UNK         0.3800 
    244 H244        2.0374  -19.3649  -55.1713 H         1 UNK         0.0800 
    245 H245        1.5721  -21.0247  -55.4042 H         1 UNK         0.0800 
    246 H246        0.4708  -17.6890  -53.3664 H         1 UNK         0.0800 
    247 H247        2.0138  -18.4220  -52.9904 H         1 UNK         0.0800 
@<TRIPOS>BOND
     1    1    2 1    
     2    1  127 1    
     3    1  128 1    
     4    1  129 1    
     5    2    3 2    
     6    2    4 am   BACKBONE|DICT|INTERRES
     7    4    5 1    
     8    4  130 1    
     9    5    6 1    
    10    5   65 1    
    11    5  131 1    
    12    6    7 1    
    13    6  132 1    
    14    6  133 1    
    15    7    8 1    
    16    8    9 1    
    17    8  134 1    
    18    8  135 1    
    19    9   10 ar   
    20    9   14 ar   
    21   10   11 ar   
    22   10  136 1    
    23   11   12 ar   
    24   11  126 1    
    25   12   13 ar   
    26   12  137 1    
    27   13   14 ar   
    28   13   15 1    
    29   14  138 1    
    30   15   16 1    
    31   15  139 1    
    32   15  140 1    
    33   16   17 1    
    34   17   18 1    
    35   17  141 1    
    36   17  142 1    
    37   18   19 1    
    38   18   67 1    
    39   18  143 1    
    40   19   20 am   BACKBONE|DICT|INTERRES
    41   19  144 1    
    42   20   21 2    
    43   20   22 1    
    44   22   23 1    
    45   22   24 1    
    46   22  145 1    
    47   23  146 1    
    48   23  147 1    
    49   23  148 1    
    50   24   25 am   BACKBONE|DICT|INTERRES
    51   24  149 1    
    52   25   26 2    
    53   25   27 1    
    54   27   28 1    
    55   27   29 1    
    56   27  150 1    
    57   28  151 1    
    58   28  152 1    
    59   28  153 1    
    60   29   30 am   BACKBONE|DICT|INTERRES
    61   29  154 1    
    62   30   31 2    
    63   30   32 1    
    64   32   33 1    
    65   32   34 1    
    66   32  155 1    
    67   33  156 1    
    68   33  157 1    
    69   33  158 1    
    70   34   35 am   BACKBONE|DICT|INTERRES
    71   34  159 1    
    72   35   36 2    
    73   35   37 1    
    74   37   38 1    
    75   37   39 1    
    76   37  160 1    
    77   38  161 1    
    78   38  162 1    
    79   38  163 1    
    80   39   40 am   BACKBONE|DICT|INTERRES
    81   39  164 1    
    82   40   41 2    
    83   40   42 1    
    84   42   43 1    
    85   42   44 1    
    86   42  165 1    
    87   43  166 1    
    88   43  167 1    
    89   43  168 1    
    90   44   45 am   BACKBONE|DICT|INTERRES
    91   44  169 1    
    92   45   46 2    
    93   45   47 1    
    94   47   48 1    
    95   47   49 1    
    96   47  170 1    
    97   48  171 1    
    98   48  172 1    
    99   48  173 1    
   100   49   50 am   BACKBONE|DICT|INTERRES
   101   49  174 1    
   102   50   51 2    
   103   50   52 1    
   104   52   53 1    
   105   52   54 1    
   106   52  175 1    
   107   53  176 1    
   108   53  177 1    
   109   53  178 1    
   110   54   55 am   BACKBONE|DICT|INTERRES
   111   54  179 1    
   112   55   56 2    
   113   55   57 1    
   114   57   58 1    
   115   57   59 1    
   116   57  180 1    
   117   58  181 1    
   118   58  182 1    
   119   58  183 1    
   120   59   60 am   BACKBONE|DICT|INTERRES
   121   59  184 1    
   122   60   61 2    
   123   60   62 1    
   124   62   63 1    
   125   62   64 1    
   126   62  185 1    
   127   63  186 1    
   128   63  187 1    
   129   63  188 1    
   130   64   65 am   BACKBONE|DICT|INTERRES
   131   64  189 1    
   132   65   66 2    
   133   67   68 2    
   134   67   69 am   BACKBONE|DICT|INTERRES
   135   69   70 1    
   136   69  190 1    
   137   70   71 1    
   138   70   72 1    
   139   70  191 1    
   140   71  192 1    
   141   71  193 1    
   142   71  194 1    
   143   72   73 2    
   144   72   74 am   BACKBONE|DICT|INTERRES
   145   74   75 1    
   146   74  195 1    
   147   75   76 1    
   148   75   77 1    
   149   75  196 1    
   150   76  197 1    
   151   76  198 1    
   152   76  199 1    
   153   77   78 2    
   154   77   79 am   BACKBONE|DICT|INTERRES
   155   79   80 1    
   156   79  200 1    
   157   80   81 1    
   158   80   82 1    
   159   80  201 1    
   160   81  202 1    
   161   81  203 1    
   162   81  204 1    
   163   82   83 2    
   164   82   84 am   BACKBONE|DICT|INTERRES
   165   84   85 1    
   166   84  205 1    
   167   85   86 1    
   168   85   87 1    
   169   85  206 1    
   170   86  207 1    
   171   86  208 1    
   172   86  209 1    
   173   87   88 2    
   174   87   89 am   BACKBONE|DICT|INTERRES
   175   89   90 1    
   176   89  210 1    
   177   90   91 1    
   178   90   92 1    
   179   90  211 1    
   180   91  212 1    
   181   91  213 1    
   182   91  214 1    
   183   92   93 2    
   184   92   94 am   BACKBONE|DICT|INTERRES
   185   94   95 1    
   186   94  215 1    
   187   95   96 1    
   188   95   97 1    
   189   95  216 1    
   190   96  217 1    
   191   96  218 1    
   192   96  219 1    
   193   97   98 2    
   194   97   99 am   BACKBONE|DICT|INTERRES
   195   99  100 1    
   196   99  220 1    
   197  100  101 1    
   198  100  102 1    
   199  100  221 1    
   200  101  222 1    
   201  101  223 1    
   202  101  224 1    
   203  102  103 2    
   204  102  104 am   BACKBONE|DICT|INTERRES
   205  104  105 1    
   206  104  225 1    
   207  105  106 1    
   208  105  107 1    
   209  105  226 1    
   210  106  227 1    
   211  106  228 1    
   212  106  229 1    
   213  107  108 2    
   214  107  109 am   BACKBONE|DICT|INTERRES
   215  109  110 1    
   216  109  230 1    
   217  110  111 1    
   218  110  112 1    
   219  110  231 1    
   220  111  232 1    
   221  111  233 1    
   222  111  234 1    
   223  112  113 2    
   224  112  114 am   BACKBONE|DICT|INTERRES
   225  114  115 1    
   226  114  235 1    
   227  115  116 1    
   228  115  117 1    
   229  115  236 1    
   230  116  237 1    
   231  116  238 1    
   232  116  239 1    
   233  117  118 2    
   234  117  119 am   BACKBONE|DICT|INTERRES
   235  119  120 1    
   236  119  240 1    
   237  120  121 1    
   238  120  124 1    
   239  120  241 1    
   240  121  122 am   BACKBONE|DICT|INTERRES
   241  121  123 2    
   242  122  242 1    
   243  122  243 1    
   244  124  125 1    
   245  124  244 1    
   246  124  245 1    
   247  125  126 1    
   248  126  246 1    
   249  126  247 1    
@<TRIPOS>SUBSTRUCTURE
     1 UNK         1 GROUP             0       ****    0 ROOT    
