@<TRIPOS>MOLECULE
3R540
247   249    1
SMALL
USER_CHARGES


@<TRIPOS>ATOM
      1 CA          4.6974  -15.3850  -47.1465 C.3       0 UNK        -0.1800 
      2 C           3.3019  -15.0193  -46.6624 C.2       0 UNK         0.5000 
      3 O           3.0922  -14.8657  -45.4609 O.2       0 UNK        -0.5000 
      4 N           2.3505  -14.8837  -47.5945 N.am      1 UNK        -0.5000 
      5 CA          0.9383  -14.5811  -47.3196 C.3       1 UNK         0.1400 
      6 C6          0.0126  -15.0101  -48.4858 C.3       23 UNK        -0.0398 
      7 S7          0.1854  -16.7705  -48.9437 S.3       23 UNK        -0.2404 
      8 C8          0.9899  -16.6141  -50.5663 C.3       23 UNK        -0.0205 
      9 C9          1.1707  -17.9601  -51.2502 C.ar      23 UNK        -0.0193 
     10 C10         0.2765  -18.3684  -52.2439 C.ar      23 UNK        -0.1150 
     11 C11         0.4863  -19.5595  -52.9457 C.ar      23 UNK        -0.0193 
     12 C12         1.5867  -20.3596  -52.6227 C.ar      23 UNK        -0.1150 
     13 C13         2.4802  -19.9708  -51.6196 C.ar      23 UNK        -0.0193 
     14 C14         2.2667  -18.7691  -50.9366 C.ar      23 UNK        -0.1150 
     15 C15         3.7059  -20.8226  -51.3193 C.3       23 UNK        -0.0205 
     16 S16         3.3058  -22.2988  -50.3330 S.3       23 UNK        -0.2404 
     17 C17         3.0580  -21.5724  -48.6785 C.3       23 UNK        -0.0398 
     18 CA          2.1437  -22.4349  -47.7768 C.3       11 UNK         0.1400 
     19 N           2.3176  -22.0883  -46.3652 N.am      11 UNK        -0.5000 
     20 C           1.7617  -22.7219  -45.3263 C.2       10 UNK         0.5000 
     21 O           1.0349  -23.7088  -45.4402 O.2       10 UNK        -0.5000 
     22 CA          2.0217  -22.1313  -43.9304 C.3       10 UNK         0.1400 
     23 CB          3.3899  -22.5688  -43.3777 C.3       10 UNK        -0.1800 
     24 N           1.8487  -20.6761  -43.8571 N.am      10 UNK        -0.5000 
     25 C           2.5773  -19.6868  -44.3961 C.2       9 UNK         0.5000 
     26 O           3.5489  -19.8645  -45.1316 O.2       9 UNK        -0.5000 
     27 CA          2.1240  -18.2519  -44.0649 C.3       9 UNK         0.1400 
     28 CB          1.1193  -17.7599  -45.1154 C.3       9 UNK        -0.1800 
     29 N           1.5010  -18.1541  -42.7451 N.am      9 UNK        -0.5000 
     30 C           2.1316  -18.3293  -41.5755 C.2       8 UNK         0.5000 
     31 O           3.3481  -18.4833  -41.4644 O.2       8 UNK        -0.5000 
     32 CA          1.2369  -18.3898  -40.3254 C.3       8 UNK         0.1400 
     33 CB          0.8967  -16.9798  -39.8175 C.3       8 UNK        -0.1800 
     34 N           0.0015  -19.1311  -40.5901 N.am      8 UNK        -0.5000 
     35 C          -0.0772  -20.4676  -40.6657 C.2       7 UNK         0.5000 
     36 O           0.8745  -21.2201  -40.4587 O.2       7 UNK        -0.5000 
     37 CA         -1.4410  -21.0712  -41.0509 C.3       7 UNK         0.1400 
     38 CB         -2.2568  -21.4051  -39.7933 C.3       7 UNK        -0.1800 
     39 N          -2.2330  -20.1943  -41.9145 N.am      7 UNK        -0.5000 
     40 C          -1.9910  -19.9867  -43.2158 C.2       6 UNK         0.5000 
     41 O          -1.0869  -20.5386  -43.8437 O.2       6 UNK        -0.5000 
     42 CA         -2.8899  -18.9553  -43.9243 C.3       6 UNK         0.1400 
     43 CB         -4.1587  -19.6279  -44.4690 C.3       6 UNK        -0.1800 
     44 N          -3.2539  -17.8042  -43.0905 N.am      6 UNK        -0.5000 
     45 C          -2.3617  -16.9636  -42.5510 C.2       5 UNK         0.5000 
     46 O          -1.1425  -17.1326  -42.6276 O.2       5 UNK        -0.5000 
     47 CA         -2.9118  -15.7691  -41.7514 C.3       5 UNK         0.1400 
     48 CB         -3.2558  -16.2040  -40.3183 C.3       5 UNK        -0.1800 
     49 N          -1.9158  -14.6993  -41.6911 N.am      5 UNK        -0.5000 
     50 C          -1.5927  -13.9117  -42.7235 C.2       4 UNK         0.5000 
     51 O          -2.2359  -13.8565  -43.7749 O.2       4 UNK        -0.5000 
     52 CA         -0.3067  -13.0909  -42.5584 C.3       4 UNK         0.1400 
     53 CB          0.9108  -13.9353  -42.9684 C.3       4 UNK        -0.1800 
     54 N          -0.3561  -11.9023  -43.4052 N.am      4 UNK        -0.5000 
     55 C          -0.2260  -10.6419  -42.9727 C.2       3 UNK         0.5000 
     56 O          -0.0515  -10.3450  -41.7889 O.2       3 UNK        -0.5000 
     57 CA         -0.3121   -9.5253  -44.0383 C.3       3 UNK         0.1400 
     58 CB          0.3652   -8.2126  -43.5899 C.3       3 UNK        -0.1800 
     59 N           0.1754   -9.9327  -45.3616 N.am      3 UNK        -0.5000 
     60 C           1.4091  -10.3483  -45.6838 C.2       2 UNK         0.5000 
     61 O           2.3489  -10.4305  -44.8906 O.2       2 UNK        -0.5000 
     62 CA          1.6102  -10.7680  -47.1529 C.3       2 UNK         0.1400 
     63 CB          2.8926  -10.1569  -47.7416 C.3       2 UNK        -0.1800 
     64 N           1.6576  -12.2210  -47.3209 N.am      2 UNK        -0.5000 
     65 C           0.6984  -13.0938  -46.9767 C.2       1 UNK         0.5000 
     66 O          -0.3590  -12.7666  -46.4365 O.2       1 UNK        -0.5000 
     67 C           0.6647  -22.3490  -48.2073 C.2       11 UNK         0.5000 
     68 O           0.1786  -23.2391  -48.9026 O.2       11 UNK        -0.5000 
     69 N          -0.0397  -21.3130  -47.7317 N.am      12 UNK        -0.5000 
     70 CA         -1.4641  -21.1085  -47.9814 C.3       12 UNK         0.1400 
     71 CB         -1.8657  -19.7003  -47.5270 C.3       12 UNK        -0.1800 
     72 C          -2.3580  -22.1787  -47.3303 C.2       12 UNK         0.5000 
     73 O          -3.3245  -22.6138  -47.9563 O.2       12 UNK        -0.5000 
     74 N          -2.0083  -22.6047  -46.1078 N.am      13 UNK        -0.5000 
     75 CA         -2.6762  -23.7012  -45.4044 C.3       13 UNK         0.1400 
     76 CB         -2.2555  -23.7198  -43.9278 C.3       13 UNK        -0.1800 
     77 C          -2.4188  -25.0646  -46.0689 C.2       13 UNK         0.5000 
     78 O          -3.3499  -25.8608  -46.1860 O.2       13 UNK        -0.5000 
     79 N          -1.1805  -25.2927  -46.5301 N.am      14 UNK        -0.5000 
     80 CA         -0.7814  -26.4820  -47.2874 C.3       14 UNK         0.1400 
     81 CB          0.7464  -26.5012  -47.4462 C.3       14 UNK        -0.1800 
     82 C          -1.4795  -26.5751  -48.6585 C.2       14 UNK         0.5000 
     83 O          -1.8920  -27.6637  -49.0599 O.2       14 UNK        -0.5000 
     84 N          -1.6314  -25.4265  -49.3320 N.am      15 UNK        -0.5000 
     85 CA         -2.3662  -25.2749  -50.5893 C.3       15 UNK         0.1400 
     86 CB         -1.9785  -23.9327  -51.2264 C.3       15 UNK        -0.1800 
     87 C          -3.8977  -25.3648  -50.4244 C.2       15 UNK         0.5000 
     88 O          -4.5989  -25.5571  -51.4184 O.2       15 UNK        -0.5000 
     89 N          -4.3876  -25.2021  -49.1870 N.am      16 UNK        -0.5000 
     90 CA         -5.7728  -25.2536  -48.7025 C.3       16 UNK         0.1400 
     91 CB         -6.4195  -26.6214  -48.9894 C.3       16 UNK        -0.1800 
     92 C          -6.6680  -24.0975  -49.1877 C.2       16 UNK         0.5000 
     93 O          -7.3946  -23.5176  -48.3804 O.2       16 UNK        -0.5000 
     94 N          -6.5946  -23.7680  -50.4818 N.am      17 UNK        -0.5000 
     95 CA         -7.3312  -22.6760  -51.1225 C.3       17 UNK         0.1400 
     96 CB         -7.5384  -23.0258  -52.6054 C.3       17 UNK        -0.1800 
     97 C          -6.6414  -21.3043  -50.9678 C.2       17 UNK         0.5000 
     98 O          -7.1805  -20.3054  -51.4459 O.2       17 UNK        -0.5000 
     99 N          -5.4667  -21.2713  -50.3209 N.am      18 UNK        -0.5000 
    100 CA        -4.6030  -20.1058  -50.1290 C.3       18 UNK         0.1400 
    101 CB        -5.2555  -19.0842  -49.1704 C.3       18 UNK        -0.1800 
    102 C         -4.1371  -19.5217  -51.4772 C.2       18 UNK         0.5000 
    103 O         -3.6981  -20.2858  -52.3374 O.2       18 UNK        -0.5000 
    104 N         -4.2457  -18.1985  -51.6567 N.am      19 UNK        -0.5000 
    105 CA        -3.8409  -17.4800  -52.8681 C.3       19 UNK         0.1400 
    106 CB        -4.0081  -15.9710  -52.6405 C.3       19 UNK        -0.1800 
    107 C         -4.5811  -17.9243  -54.1442 C.2       19 UNK         0.5000 
    108 O         -4.0065  -17.8495  -55.2303 O.2       19 UNK        -0.5000 
    109 N         -5.8128  -18.4351  -54.0015 N.am      20 UNK        -0.5000 
    110 CA        -6.6163  -18.9744  -55.1025 C.3       20 UNK         0.1400 
    111 CB        -8.0575  -19.1995  -54.6217 C.3       20 UNK        -0.1800 
    112 C         -6.0357  -20.2606  -55.7287 C.2       20 UNK         0.5000 
    113 O         -6.4491  -20.6273  -56.8293 O.2       20 UNK        -0.5000 
    114 N         -5.0790  -20.9096  -55.0474 N.am      21 UNK        -0.5000 
    115 CA        -4.3363  -22.0584  -55.5634 C.3       21 UNK         0.1400 
    116 CB        -3.6563  -22.7855  -54.3952 C.3       21 UNK        -0.1800 
    117 C         -3.2804  -21.6830  -56.6225 C.2       21 UNK         0.5000 
    118 O         -2.8238  -22.5781  -57.3356 O.2       21 UNK        -0.5000 
    119 N         -2.8879  -20.4028  -56.7035 N.am      22 UNK        -0.5000 
    120 CA        -1.8246  -19.9310  -57.6057 C.3       22 UNK         0.1400 
    121 C         -2.0884  -18.5590  -58.2885 C.2       22 UNK         0.5000 
    122 N         -3.0145  -17.7321  -57.8217 N.am      22 UNK        -0.7600 
    123 O         -1.4545  -18.2480  -59.2936 O.2       22 UNK        -0.5000 
    124 C124       -0.4233  -20.0205  -56.9457 C.3       23 UNK        -0.0398 
    125 S125       -0.1747  -18.8846  -55.5330 S.3       23 UNK        -0.2404 
    126 C126       -0.4449  -19.9558  -54.0830 C.3       23 UNK        -0.0205 
    127 H127        5.0118  -16.3286  -46.7003 H         1 UNK         0.0600 
    128 H128        4.7365  -15.4923  -48.2308 H         1 UNK         0.0600 
    129 H129        5.4101  -14.6138  -46.8542 H         1 UNK         0.0600 
    130 H130        2.5847  -15.0339  -48.5644 H         1 UNK         0.3000 
    131 H131        0.6356  -15.1485  -46.4397 H         1 UNK         0.0600 
    132 H132        0.1870  -14.3846  -49.3630 H         1 UNK         0.0800 
    133 H133       -1.0321  -14.8519  -48.2110 H         1 UNK         0.0800 
    134 H134        0.3964  -15.9535  -51.2005 H         1 UNK         0.0800 
    135 H135        1.9613  -16.1328  -50.4467 H         1 UNK         0.0800 
    136 H136       -0.5596  -17.7364  -52.5032 H         1 UNK         0.1150 
    137 H137        1.7628  -21.2777  -53.1656 H         1 UNK         0.1150 
    138 H138        2.9652  -18.4490  -50.1761 H         1 UNK         0.1150 
    139 H139        4.1551  -21.1437  -52.2601 H         1 UNK         0.0800 
    140 H140        4.4700  -20.2370  -50.8055 H         1 UNK         0.0800 
    141 H141        2.6710  -20.5560  -48.7620 H         1 UNK         0.0800 
    142 H142        4.0459  -21.4791  -48.2250 H         1 UNK         0.0800 
    143 H143        2.4515  -23.4780  -47.8763 H         1 UNK         0.0600 
    144 H144        2.8964  -21.2794  -46.1525 H         1 UNK         0.3000 
    145 H145        1.2570  -22.5455  -43.2711 H         1 UNK         0.0600 
    146 H146        3.5379  -22.1987  -42.3629 H         1 UNK         0.0600 
    147 H147        3.4637  -23.6563  -43.3418 H         1 UNK         0.0600 
    148 H148        4.2155  -22.2068  -43.9909 H         1 UNK         0.0600 
    149 H149        1.0062  -20.3917  -43.3729 H         1 UNK         0.3000 
    150 H150        2.9996  -17.5997  -44.0830 H         1 UNK         0.0600 
    151 H151        1.5724  -17.7184  -46.1067 H         1 UNK         0.0600 
    152 H152        0.7661  -16.7595  -44.8693 H         1 UNK         0.0600 
    153 H153        0.2472  -18.4105  -45.1746 H         1 UNK         0.0600 
    154 H154        0.5045  -17.9484  -42.7296 H         1 UNK         0.3000 
    155 H155        1.7929  -18.9050  -39.5391 H         1 UNK         0.0600 
    156 H156        0.3394  -16.4047  -40.5556 H         1 UNK         0.0600 
    157 H157        1.8044  -16.4211  -39.5860 H         1 UNK         0.0600 
    158 H158        0.3001  -17.0230  -38.9062 H         1 UNK         0.0600 
    159 H159       -0.8091  -18.5830  -40.8381 H         1 UNK         0.3000 
    160 H160       -1.2457  -22.0028  -41.5858 H         1 UNK         0.0600 
    161 H161       -3.1923  -21.9019  -40.0513 H         1 UNK         0.0600 
    162 H162       -2.4981  -20.5095  -39.2193 H         1 UNK         0.0600 
    163 H163       -1.7037  -22.0775  -39.1361 H         1 UNK         0.0600 
    164 H164       -3.0000  -19.6998  -41.4833 H         1 UNK         0.3000 
    165 H165       -2.3249  -18.5587  -44.7673 H         1 UNK         0.0600 
    166 H166       -4.7380  -18.9385  -45.0834 H         1 UNK         0.0600 
    167 H167       -3.9105  -20.4865  -45.0942 H         1 UNK         0.0600 
    168 H168       -4.8024  -19.9850  -43.6643 H         1 UNK         0.0600 
    169 H169       -4.2403  -17.6207  -42.9747 H         1 UNK         0.3000 
    170 H170       -3.8136  -15.3956  -42.2410 H         1 UNK         0.0600 
    171 H171       -4.0195  -16.9827  -40.3160 H         1 UNK         0.0600 
    172 H172       -2.3839  -16.5977  -39.7940 H         1 UNK         0.0600 
    173 H173       -3.6462  -15.3685  -39.7369 H         1 UNK         0.0600 
    174 H174       -1.3190  -14.6985  -40.8776 H         1 UNK         0.3000 
    175 H175       -0.2066  -12.8173  -41.5061 H         1 UNK         0.0600 
    176 H176        0.8342  -14.2686  -44.0037 H         1 UNK         0.0600 
    177 H177        1.8373  -13.3695  -42.8695 H         1 UNK         0.0600 
    178 H178        1.0041  -14.8268  -42.3475 H         1 UNK         0.0600 
    179 H179       -0.5432  -12.0756  -44.3876 H         1 UNK         0.3000 
    180 H180       -1.3757   -9.3165  -44.1611 H         1 UNK         0.0600 
    181 H181        1.4255   -8.3552  -43.3793 H         1 UNK         0.0600 
    182 H182       -0.0980   -7.8219  -42.6832 H         1 UNK         0.0600 
    183 H183        0.2758   -7.4412  -44.3548 H         1 UNK         0.0600 
    184 H184       -0.5295   -9.9567  -46.0856 H         1 UNK         0.3000 
    185 H185        0.7675  -10.3960  -47.7393 H         1 UNK         0.0600 
    186 H186        3.7865  -10.5387  -47.2465 H         1 UNK         0.0600 
    187 H187        2.9808  -10.3735  -48.8064 H         1 UNK         0.0600 
    188 H188        2.8940   -9.0718  -47.6305 H         1 UNK         0.0600 
    189 H189        2.5021  -12.5943  -47.7277 H         1 UNK         0.3000 
    190 H190        0.4251  -20.6370  -47.1449 H         1 UNK         0.3000 
    191 H191       -1.6182  -21.1749  -49.0600 H         1 UNK         0.0600 
    192 H192       -1.4126  -19.4517  -46.5702 H         1 UNK         0.0600 
    193 H193       -2.9457  -19.5984  -47.4191 H         1 UNK         0.0600 
    194 H194       -1.5434  -18.9560  -48.2526 H         1 UNK         0.0600 
    195 H195       -1.2130  -22.1847  -45.6464 H         1 UNK         0.3000 
    196 H196       -3.7528  -23.5205  -45.4406 H         1 UNK         0.0600 
    197 H197       -1.1717  -23.7372  -43.8122 H         1 UNK         0.0600 
    198 H198       -2.6558  -24.5957  -43.4156 H         1 UNK         0.0600 
    199 H199       -2.6390  -22.8449  -43.4061 H         1 UNK         0.0600 
    200 H200       -0.4544  -24.6081  -46.3395 H         1 UNK         0.3000 
    201 H201       -1.0724  -27.3598  -46.7067 H         1 UNK         0.0600 
    202 H202        1.2437  -26.4895  -46.4761 H         1 UNK         0.0600 
    203 H203        1.1044  -25.6430  -48.0148 H         1 UNK         0.0600 
    204 H204        1.0728  -27.4007  -47.9695 H         1 UNK         0.0600 
    205 H205       -1.1753  -24.5907  -48.9753 H         1 UNK         0.3000 
    206 H206       -2.0600  -26.0762  -51.2648 H         1 UNK         0.0600 
    207 H207       -0.9018  -23.8623  -51.3820 H         1 UNK         0.0600 
    208 H208       -2.4509  -23.8193  -52.1994 H         1 UNK         0.0600 
    209 H209       -2.2856  -23.0873  -50.6097 H         1 UNK         0.0600 
    210 H210       -3.7099  -24.9863  -48.4678 H         1 UNK         0.3000 
    211 H211       -5.6997  -25.1517  -47.6186 H         1 UNK         0.0600 
    212 H212       -6.5468  -26.7987  -50.0576 H         1 UNK         0.0600 
    213 H213       -7.4062  -26.6879  -48.5295 H         1 UNK         0.0600 
    214 H214       -5.8160  -27.4334  -48.5836 H         1 UNK         0.0600 
    215 H215       -5.9664  -24.3130  -51.0673 H         1 UNK         0.3000 
    216 H216       -8.3159  -22.5930  -50.6581 H         1 UNK         0.0600 
    217 H217       -8.1519  -22.2755  -53.1047 H         1 UNK         0.0600 
    218 H218       -8.0482  -23.9829  -52.7167 H         1 UNK         0.0600 
    219 H219       -6.5934  -23.0860  -53.1430 H         1 UNK         0.0600 
    220 H220       -5.1006  -22.1455  -49.9713 H         1 UNK         0.3000 
    221 H221       -3.7035  -20.4797  -49.6484 H         1 UNK         0.0600 
    222 H222       -6.1548  -18.6360  -49.5940 H         1 UNK         0.0600 
    223 H223       -5.5377  -19.5618  -48.2318 H         1 UNK         0.0600 
    224 H224       -4.5655  -18.2776  -48.9198 H         1 UNK         0.0600 
    225 H225       -4.6355  -17.6407  -50.9110 H         1 UNK         0.3000 
    226 H226       -2.7821  -17.6834  -53.0322 H         1 UNK         0.0600 
    227 H227       -3.4021  -15.6291  -51.8011 H         1 UNK         0.0600 
    228 H228       -3.6917  -15.4063  -53.5186 H         1 UNK         0.0600 
    229 H229       -5.0467  -15.7077  -52.4369 H         1 UNK         0.0600 
    230 H230       -6.2031  -18.5177  -53.0723 H         1 UNK         0.3000 
    231 H231       -6.6421  -18.2201  -55.8917 H         1 UNK         0.0600 
    232 H232       -8.4852  -18.2860  -54.2084 H         1 UNK         0.0600 
    233 H233       -8.1111  -19.9725  -53.8567 H         1 UNK         0.0600 
    234 H234       -8.6987  -19.5136  -55.4462 H         1 UNK         0.0600 
    235 H235       -4.7822  -20.5520  -54.1460 H         1 UNK         0.3000 
    236 H236       -5.0453  -22.7479  -56.0264 H         1 UNK         0.0600 
    237 H237       -3.2131  -23.7251  -54.7270 H         1 UNK         0.0600 
    238 H238       -2.8556  -22.1839  -53.9639 H         1 UNK         0.0600 
    239 H239       -4.3605  -23.0230  -53.5994 H         1 UNK         0.0600 
    240 H240       -3.3054  -19.7090  -56.0970 H         1 UNK         0.3000 
    241 H241       -1.7989  -20.6143  -58.4571 H         1 UNK         0.0600 
    242 H242       -3.1686  -16.8605  -58.3023 H         1 UNK         0.3800 
    243 H243       -3.4683  -17.8837  -56.9236 H         1 UNK         0.3800 
    244 H244       -0.2258  -21.0463  -56.6335 H         1 UNK         0.0800 
    245 H245        0.3465  -19.7975  -57.6864 H         1 UNK         0.0800 
    246 H246       -1.4830  -19.8686  -53.7617 H         1 UNK         0.0800 
    247 H247       -0.2921  -21.0031  -54.3459 H         1 UNK         0.0800 
@<TRIPOS>BOND
     1    1    2 1    
     2    1  127 1    
     3    1  128 1    
     4    1  129 1    
     5    2    3 2    
     6    2    4 am   BACKBONE|DICT|INTERRES
     7    4    5 1    
     8    4  130 1    
     9    5    6 1    
    10    5   65 1    
    11    5  131 1    
    12    6    7 1    
    13    6  132 1    
    14    6  133 1    
    15    7    8 1    
    16    8    9 1    
    17    8  134 1    
    18    8  135 1    
    19    9   10 ar   
    20    9   14 ar   
    21   10   11 ar   
    22   10  136 1    
    23   11   12 ar   
    24   11  126 1    
    25   12   13 ar   
    26   12  137 1    
    27   13   14 ar   
    28   13   15 1    
    29   14  138 1    
    30   15   16 1    
    31   15  139 1    
    32   15  140 1    
    33   16   17 1    
    34   17   18 1    
    35   17  141 1    
    36   17  142 1    
    37   18   19 1    
    38   18   67 1    
    39   18  143 1    
    40   19   20 am   BACKBONE|DICT|INTERRES
    41   19  144 1    
    42   20   21 2    
    43   20   22 1    
    44   22   23 1    
    45   22   24 1    
    46   22  145 1    
    47   23  146 1    
    48   23  147 1    
    49   23  148 1    
    50   24   25 am   BACKBONE|DICT|INTERRES
    51   24  149 1    
    52   25   26 2    
    53   25   27 1    
    54   27   28 1    
    55   27   29 1    
    56   27  150 1    
    57   28  151 1    
    58   28  152 1    
    59   28  153 1    
    60   29   30 am   BACKBONE|DICT|INTERRES
    61   29  154 1    
    62   30   31 2    
    63   30   32 1    
    64   32   33 1    
    65   32   34 1    
    66   32  155 1    
    67   33  156 1    
    68   33  157 1    
    69   33  158 1    
    70   34   35 am   BACKBONE|DICT|INTERRES
    71   34  159 1    
    72   35   36 2    
    73   35   37 1    
    74   37   38 1    
    75   37   39 1    
    76   37  160 1    
    77   38  161 1    
    78   38  162 1    
    79   38  163 1    
    80   39   40 am   BACKBONE|DICT|INTERRES
    81   39  164 1    
    82   40   41 2    
    83   40   42 1    
    84   42   43 1    
    85   42   44 1    
    86   42  165 1    
    87   43  166 1    
    88   43  167 1    
    89   43  168 1    
    90   44   45 am   BACKBONE|DICT|INTERRES
    91   44  169 1    
    92   45   46 2    
    93   45   47 1    
    94   47   48 1    
    95   47   49 1    
    96   47  170 1    
    97   48  171 1    
    98   48  172 1    
    99   48  173 1    
   100   49   50 am   BACKBONE|DICT|INTERRES
   101   49  174 1    
   102   50   51 2    
   103   50   52 1    
   104   52   53 1    
   105   52   54 1    
   106   52  175 1    
   107   53  176 1    
   108   53  177 1    
   109   53  178 1    
   110   54   55 am   BACKBONE|DICT|INTERRES
   111   54  179 1    
   112   55   56 2    
   113   55   57 1    
   114   57   58 1    
   115   57   59 1    
   116   57  180 1    
   117   58  181 1    
   118   58  182 1    
   119   58  183 1    
   120   59   60 am   BACKBONE|DICT|INTERRES
   121   59  184 1    
   122   60   61 2    
   123   60   62 1    
   124   62   63 1    
   125   62   64 1    
   126   62  185 1    
   127   63  186 1    
   128   63  187 1    
   129   63  188 1    
   130   64   65 am   BACKBONE|DICT|INTERRES
   131   64  189 1    
   132   65   66 2    
   133   67   68 2    
   134   67   69 am   BACKBONE|DICT|INTERRES
   135   69   70 1    
   136   69  190 1    
   137   70   71 1    
   138   70   72 1    
   139   70  191 1    
   140   71  192 1    
   141   71  193 1    
   142   71  194 1    
   143   72   73 2    
   144   72   74 am   BACKBONE|DICT|INTERRES
   145   74   75 1    
   146   74  195 1    
   147   75   76 1    
   148   75   77 1    
   149   75  196 1    
   150   76  197 1    
   151   76  198 1    
   152   76  199 1    
   153   77   78 2    
   154   77   79 am   BACKBONE|DICT|INTERRES
   155   79   80 1    
   156   79  200 1    
   157   80   81 1    
   158   80   82 1    
   159   80  201 1    
   160   81  202 1    
   161   81  203 1    
   162   81  204 1    
   163   82   83 2    
   164   82   84 am   BACKBONE|DICT|INTERRES
   165   84   85 1    
   166   84  205 1    
   167   85   86 1    
   168   85   87 1    
   169   85  206 1    
   170   86  207 1    
   171   86  208 1    
   172   86  209 1    
   173   87   88 2    
   174   87   89 am   BACKBONE|DICT|INTERRES
   175   89   90 1    
   176   89  210 1    
   177   90   91 1    
   178   90   92 1    
   179   90  211 1    
   180   91  212 1    
   181   91  213 1    
   182   91  214 1    
   183   92   93 2    
   184   92   94 am   BACKBONE|DICT|INTERRES
   185   94   95 1    
   186   94  215 1    
   187   95   96 1    
   188   95   97 1    
   189   95  216 1    
   190   96  217 1    
   191   96  218 1    
   192   96  219 1    
   193   97   98 2    
   194   97   99 am   BACKBONE|DICT|INTERRES
   195   99  100 1    
   196   99  220 1    
   197  100  101 1    
   198  100  102 1    
   199  100  221 1    
   200  101  222 1    
   201  101  223 1    
   202  101  224 1    
   203  102  103 2    
   204  102  104 am   BACKBONE|DICT|INTERRES
   205  104  105 1    
   206  104  225 1    
   207  105  106 1    
   208  105  107 1    
   209  105  226 1    
   210  106  227 1    
   211  106  228 1    
   212  106  229 1    
   213  107  108 2    
   214  107  109 am   BACKBONE|DICT|INTERRES
   215  109  110 1    
   216  109  230 1    
   217  110  111 1    
   218  110  112 1    
   219  110  231 1    
   220  111  232 1    
   221  111  233 1    
   222  111  234 1    
   223  112  113 2    
   224  112  114 am   BACKBONE|DICT|INTERRES
   225  114  115 1    
   226  114  235 1    
   227  115  116 1    
   228  115  117 1    
   229  115  236 1    
   230  116  237 1    
   231  116  238 1    
   232  116  239 1    
   233  117  118 2    
   234  117  119 am   BACKBONE|DICT|INTERRES
   235  119  120 1    
   236  119  240 1    
   237  120  121 1    
   238  120  124 1    
   239  120  241 1    
   240  121  122 am   BACKBONE|DICT|INTERRES
   241  121  123 2    
   242  122  242 1    
   243  122  243 1    
   244  124  125 1    
   245  124  244 1    
   246  124  245 1    
   247  125  126 1    
   248  126  246 1    
   249  126  247 1    
@<TRIPOS>SUBSTRUCTURE
     1 UNK         1 GROUP             0       ****    0 ROOT    
