@<TRIPOS>MOLECULE
3R540
247   249    1
SMALL
USER_CHARGES


@<TRIPOS>ATOM
      1 CA          8.9350  -14.6319  -50.7109 C.3       0 UNK        -0.1800 
      2 C           7.6293  -14.4719  -49.9450 C.2       0 UNK         0.5000 
      3 O           7.3533  -13.3877  -49.4317 O.2       0 UNK        -0.5000 
      4 N           6.8355  -15.5498  -49.8649 N.am      1 UNK        -0.5000 
      5 CA          5.5276  -15.6280  -49.1940 C.3       1 UNK         0.1400 
      6 C6          4.4393  -14.7212  -49.8365 C.3       23 UNK        -0.0398 
      7 S7          4.1416  -15.0782  -51.6040 S.3       23 UNK        -0.2404 
      8 C8          2.3130  -15.1132  -51.6787 C.3       23 UNK        -0.0205 
      9 C9          1.6771  -16.4813  -51.4247 C.ar      23 UNK        -0.0193 
     10 C10         0.4868  -16.8106  -52.0819 C.ar      23 UNK        -0.1150 
     11 C11        -0.1279  -18.0507  -51.8791 C.ar      23 UNK        -0.0193 
     12 C12         0.4549  -18.9712  -51.0031 C.ar      23 UNK        -0.1150 
     13 C13         1.6358  -18.6528  -50.3283 C.ar      23 UNK        -0.0193 
     14 C14         2.2371  -17.4110  -50.5422 C.ar      23 UNK        -0.1150 
     15 C15         2.2856  -19.6545  -49.3879 C.3       23 UNK        -0.0205 
     16 S16         2.2578  -19.1053  -47.6519 S.3       23 UNK        -0.2404 
     17 C17         0.4801  -19.1204  -47.2417 C.3       23 UNK        -0.0398 
     18 CA         -0.0218  -20.5294  -46.8318 C.3       11 UNK         0.1400 
     19 N          -0.8550  -20.5074  -45.6277 N.am      11 UNK        -0.5000 
     20 C          -1.2547  -21.6033  -44.9656 C.2       10 UNK         0.5000 
     21 O          -0.8972  -22.7468  -45.2495 O.2       10 UNK        -0.5000 
     22 CA         -2.2782  -21.3863  -43.8393 C.3       10 UNK         0.1400 
     23 CB         -1.5797  -20.9680  -42.5378 C.3       10 UNK        -0.1800 
     24 N          -3.2811  -20.3886  -44.2178 N.am      10 UNK        -0.5000 
     25 C          -4.2257  -20.6010  -45.1464 C.2       9 UNK         0.5000 
     26 O          -4.3863  -21.6808  -45.7148 O.2       9 UNK        -0.5000 
     27 CA         -5.1143  -19.4039  -45.5352 C.3       9 UNK         0.1400 
     28 CB         -6.3677  -19.3509  -44.6502 C.3       9 UNK        -0.1800 
     29 N          -4.4189  -18.1181  -45.4655 N.am      9 UNK        -0.5000 
     30 C          -3.3987  -17.7617  -46.2593 C.2       8 UNK         0.5000 
     31 O          -2.9051  -18.4938  -47.1147 O.2       8 UNK        -0.5000 
     32 CA         -2.7718  -16.3827  -45.9961 C.3       8 UNK         0.1400 
     33 CB         -3.5791  -15.2677  -46.6746 C.3       8 UNK        -0.1800 
     34 N          -2.6271  -16.0858  -44.5678 N.am      8 UNK        -0.5000 
     35 C          -1.9006  -16.8095  -43.7062 C.2       7 UNK         0.5000 
     36 O          -1.2529  -17.8074  -44.0302 O.2       7 UNK        -0.5000 
     37 CA         -1.9182  -16.3510  -42.2433 C.3       7 UNK         0.1400 
     38 CB         -2.2137  -17.5191  -41.2837 C.3       7 UNK        -0.1800 
     39 N          -0.6384  -15.7347  -41.9135 N.am      7 UNK        -0.5000 
     40 C          -0.4494  -14.8675  -40.9101 C.2       6 UNK         0.5000 
     41 O          -1.3441  -14.4948  -40.1498 O.2       6 UNK        -0.5000 
     42 CA          0.9687  -14.3007  -40.7367 C.3       6 UNK         0.1400 
     43 CB          1.9154  -15.3473  -40.1263 C.3       6 UNK        -0.1800 
     44 N           1.5006  -13.8360  -42.0158 N.am      6 UNK        -0.5000 
     45 C           1.3232  -12.5996  -42.5049 C.2       5 UNK         0.5000 
     46 O           0.7593  -11.6951  -41.8878 O.2       5 UNK        -0.5000 
     47 CA          1.8610  -12.3179  -43.9233 C.3       5 UNK         0.1400 
     48 CB          3.2706  -11.7108  -43.8537 C.3       5 UNK        -0.1800 
     49 N           1.9026  -13.5105  -44.7683 N.am      5 UNK        -0.5000 
     50 C           0.8256  -14.1715  -45.2143 C.2       4 UNK         0.5000 
     51 O          -0.3314  -13.7868  -45.0500 O.2       4 UNK        -0.5000 
     52 CA          1.0877  -15.5100  -45.9291 C.3       4 UNK         0.1400 
     53 CB          1.0742  -15.3157  -47.4520 C.3       4 UNK        -0.1800 
     54 N           2.3385  -16.1580  -45.5218 N.am      4 UNK        -0.5000 
     55 C           2.5836  -16.6233  -44.2854 C.2       3 UNK         0.5000 
     56 O           1.7775  -16.5303  -43.3599 O.2       3 UNK        -0.5000 
     57 CA          3.9724  -17.2205  -44.0121 C.3       3 UNK         0.1400 
     58 CB          3.9791  -18.7424  -44.2411 C.3       3 UNK        -0.1800 
     59 N           4.9811  -16.5526  -44.8313 N.am      3 UNK        -0.5000 
     60 C           6.3065  -16.6032  -44.6888 C.2       2 UNK         0.5000 
     61 O           6.8752  -17.2950  -43.8423 O.2       2 UNK        -0.5000 
     62 CA          7.1238  -15.7139  -45.6571 C.3       2 UNK         0.1400 
     63 CB          8.6417  -15.9360  -45.5274 C.3       2 UNK        -0.1800 
     64 N           6.7527  -15.8643  -47.0699 N.am      2 UNK        -0.5000 
     65 C           5.6325  -15.4237  -47.6627 C.2       1 UNK         0.5000 
     66 O           4.7049  -14.8974  -47.0420 O.2       1 UNK        -0.5000 
     67 C          -0.7435  -21.2382  -47.9955 C.2       11 UNK         0.5000 
     68 O          -0.1402  -22.0832  -48.6529 O.2       11 UNK        -0.5000 
     69 N          -2.0340  -20.9302  -48.1915 N.am      12 UNK        -0.5000 
     70 CA         -2.9034  -21.5646  -49.1821 C.3       12 UNK         0.1400 
     71 CB         -4.2930  -20.9089  -49.1692 C.3       12 UNK        -0.1800 
     72 C          -3.0299  -23.0805  -48.9735 C.2       12 UNK         0.5000 
     73 O          -2.9470  -23.8290  -49.9465 O.2       12 UNK        -0.5000 
     74 N          -3.2028  -23.5112  -47.7173 N.am      13 UNK        -0.5000 
     75 CA         -3.2365  -24.9201  -47.3282 C.3       13 UNK         0.1400 
     76 CB         -3.6536  -25.0403  -45.8552 C.3       13 UNK        -0.1800 
     77 C          -1.8977  -25.6361  -47.5874 C.2       13 UNK         0.5000 
     78 O          -1.9017  -26.7391  -48.1340 O.2       13 UNK        -0.5000 
     79 N          -0.7807  -24.9833  -47.2338 N.am      14 UNK        -0.5000 
     80 CA          0.5806  -25.4769  -47.4605 C.3       14 UNK         0.1400 
     81 CB          1.5813  -24.5788  -46.7170 C.3       14 UNK        -0.1800 
     82 C           0.9465  -25.5824  -48.9542 C.2       14 UNK         0.5000 
     83 O           1.5790  -26.5581  -49.3595 O.2       14 UNK        -0.5000 
     84 N           0.5192  -24.5914  -49.7473 N.am      15 UNK        -0.5000 
     85 CA          0.6974  -24.5295  -51.1997 C.3       15 UNK         0.1400 
     86 CB          0.4797  -23.0773  -51.6584 C.3       15 UNK        -0.1800 
     87 C          -0.2374  -25.4756  -51.9808 C.2       15 UNK         0.5000 
     88 O          -0.0298  -25.6628  -53.1800 O.2       15 UNK        -0.5000 
     89 N          -1.2599  -26.0207  -51.3040 N.am      16 UNK        -0.5000 
     90 CA         -2.3636  -26.8278  -51.8384 C.3       16 UNK         0.1400 
     91 CB         -1.8530  -28.1431  -52.4624 C.3       16 UNK        -0.1800 
     92 C          -3.2988  -26.0324  -52.7774 C.2       16 UNK         0.5000 
     93 O          -3.9939  -26.6228  -53.6058 O.2       16 UNK        -0.5000 
     94 N          -3.3203  -24.7046  -52.6058 N.am      17 UNK        -0.5000 
     95 CA         -4.2524  -23.7775  -53.2443 C.3       17 UNK         0.1400 
     96 CB         -3.6086  -22.3824  -53.2804 C.3       17 UNK        -0.1800 
     97 C          -5.6011  -23.7494  -52.4975 C.2       17 UNK         0.5000 
     98 O          -6.6370  -23.5288  -53.1257 O.2       17 UNK        -0.5000 
     99 N          -5.5511  -24.0071  -51.1796 N.am      18 UNK        -0.5000 
    100 CA        -6.6519  -24.2343  -50.2406 C.3       18 UNK         0.1400 
    101 CB        -7.1702  -25.6790  -50.4030 C.3       18 UNK        -0.1800 
    102 C         -7.7603  -23.1659  -50.3238 C.2       18 UNK         0.5000 
    103 O         -7.5730  -22.0595  -49.8158 O.2       18 UNK        -0.5000 
    104 N         -8.8758  -23.5071  -50.9849 N.am      19 UNK        -0.5000 
    105 CA       -10.0658  -22.6764  -51.1905 C.3       19 UNK         0.1400 
    106 CB       -11.1279  -23.5132  -51.9204 C.3       19 UNK        -0.1800 
    107 C         -9.8172  -21.3498  -51.9377 C.2       19 UNK         0.5000 
    108 O        -10.6573  -20.4529  -51.8555 O.2       19 UNK        -0.5000 
    109 N         -8.6713  -21.2276  -52.6248 N.am      20 UNK        -0.5000 
    110 CA        -8.1867  -19.9804  -53.2205 C.3       20 UNK         0.1400 
    111 CB        -6.9368  -20.2801  -54.0581 C.3       20 UNK        -0.1800 
    112 C         -7.8678  -18.8869  -52.1788 C.2       20 UNK         0.5000 
    113 O         -7.8981  -17.7061  -52.5250 O.2       20 UNK        -0.5000 
    114 N         -7.5561  -19.2944  -50.9375 N.am      21 UNK        -0.5000 
    115 CA        -7.3160  -18.4952  -49.7270 C.3       21 UNK         0.1400 
    116 CB        -8.5787  -17.7025  -49.3404 C.3       21 UNK        -0.1800 
    117 C         -6.0738  -17.5791  -49.7399 C.2       21 UNK         0.5000 
    118 O         -5.5954  -17.2309  -48.6624 O.2       21 UNK        -0.5000 
    119 N         -5.5702  -17.2126  -50.9246 N.am      22 UNK        -0.5000 
    120 CA        -4.3591  -16.4045  -51.1635 C.3       22 UNK         0.1400 
    121 C         -4.4470  -14.9241  -50.6766 C.2       22 UNK         0.5000 
    122 N         -5.6283  -14.3888  -50.3938 N.am      22 UNK        -0.7600 
    123 O         -3.4362  -14.2328  -50.5874 O.2       22 UNK        -0.5000 
    124 C124       -3.0561  -17.1127  -50.6949 C.3       23 UNK        -0.0398 
    125 S125       -2.8082  -18.7294  -51.5102 S.3       23 UNK        -0.2404 
    126 C126       -1.4085  -18.4006  -52.6262 C.3       23 UNK        -0.0205 
    127 H127        9.7818  -14.4282  -50.0555 H         1 UNK         0.0600 
    128 H128        8.9696  -13.9289  -51.5432 H         1 UNK         0.0600 
    129 H129        9.0500  -15.6391  -51.1121 H         1 UNK         0.0600 
    130 H130        7.1306  -16.4012  -50.3225 H         1 UNK         0.3000 
    131 H131        5.2070  -16.6629  -49.3127 H         1 UNK         0.0600 
    132 H132        3.4957  -14.8422  -49.3065 H         1 UNK         0.0800 
    133 H133        4.7033  -13.6676  -49.7366 H         1 UNK         0.0800 
    134 H134        1.8952  -14.3880  -50.9793 H         1 UNK         0.0800 
    135 H135        2.0291  -14.7672  -52.6738 H         1 UNK         0.0800 
    136 H136        0.0386  -16.0985  -52.7607 H         1 UNK         0.1150 
    137 H137       -0.0143  -19.9330  -50.8479 H         1 UNK         0.1150 
    138 H138        3.1458  -17.1813  -50.0123 H         1 UNK         0.1150 
    139 H139        1.8205  -20.6354  -49.4743 H         1 UNK         0.0800 
    140 H140        3.3248  -19.7921  -49.6891 H         1 UNK         0.0800 
    141 H141        0.3629  -18.4307  -46.4058 H         1 UNK         0.0800 
    142 H142       -0.1021  -18.6807  -48.0543 H         1 UNK         0.0800 
    143 H143        0.8431  -21.1459  -46.5768 H         1 UNK         0.0600 
    144 H144       -1.1854  -19.6030  -45.3130 H         1 UNK         0.3000 
    145 H145       -2.7893  -22.3345  -43.6589 H         1 UNK         0.0600 
    146 H146       -2.3006  -20.7769  -41.7428 H         1 UNK         0.0600 
    147 H147       -0.9115  -21.7561  -42.1888 H         1 UNK         0.0600 
    148 H148       -0.9767  -20.0705  -42.6727 H         1 UNK         0.0600 
    149 H149       -3.1772  -19.4637  -43.8282 H         1 UNK         0.3000 
    150 H150       -5.4347  -19.5512  -46.5686 H         1 UNK         0.0600 
    151 H151       -6.9202  -20.2902  -44.7005 H         1 UNK         0.0600 
    152 H152       -7.0448  -18.5599  -44.9734 H         1 UNK         0.0600 
    153 H153       -6.1158  -19.1731  -43.6040 H         1 UNK         0.0600 
    154 H154       -4.7525  -17.4549  -44.7822 H         1 UNK         0.3000 
    155 H155       -1.7800  -16.3910  -46.4471 H         1 UNK         0.0600 
    156 H156       -3.0953  -14.2987  -46.5500 H         1 UNK         0.0600 
    157 H157       -4.5905  -15.1966  -46.2730 H         1 UNK         0.0600 
    158 H158       -3.6652  -15.4497  -47.7463 H         1 UNK         0.0600 
    159 H159       -3.1038  -15.2610  -44.2330 H         1 UNK         0.3000 
    160 H160       -2.7117  -15.6088  -42.1308 H         1 UNK         0.0600 
    161 H161       -1.3827  -18.2233  -41.2439 H         1 UNK         0.0600 
    162 H162       -3.1033  -18.0696  -41.5922 H         1 UNK         0.0600 
    163 H163       -2.3908  -17.1612  -40.2696 H         1 UNK         0.0600 
    164 H164        0.1504  -16.0147  -42.4932 H         1 UNK         0.3000 
    165 H165        0.9139  -13.4625  -40.0385 H         1 UNK         0.0600 
    166 H166        2.0079  -16.2344  -40.7526 H         1 UNK         0.0600 
    167 H167        2.9142  -14.9358  -39.9801 H         1 UNK         0.0600 
    168 H168        1.5530  -15.6744  -39.1510 H         1 UNK         0.0600 
    169 H169        1.9172  -14.5421  -42.6082 H         1 UNK         0.3000 
    170 H170        1.1953  -11.5904  -44.3926 H         1 UNK         0.0600 
    171 H171        3.9856  -12.4025  -43.4064 H         1 UNK         0.0600 
    172 H172        3.6356  -11.4453  -44.8461 H         1 UNK         0.0600 
    173 H173        3.2744  -10.8003  -43.2528 H         1 UNK         0.0600 
    174 H174        2.8150  -13.8846  -44.9840 H         1 UNK         0.3000 
    175 H175        0.2796  -16.1864  -45.6583 H         1 UNK         0.0600 
    176 H176        1.8313  -14.5974  -47.7649 H         1 UNK         0.0600 
    177 H177        1.2543  -16.2514  -47.9796 H         1 UNK         0.0600 
    178 H178        0.1077  -14.9371  -47.7872 H         1 UNK         0.0600 
    179 H179        3.0376  -16.2625  -46.2428 H         1 UNK         0.3000 
    180 H180        4.2017  -17.0256  -42.9625 H         1 UNK         0.0600 
    181 H181        3.9269  -18.9887  -45.3003 H         1 UNK         0.0600 
    182 H182        3.1320  -19.2202  -43.7469 H         1 UNK         0.0600 
    183 H183        4.8842  -19.1986  -43.8407 H         1 UNK         0.0600 
    184 H184        4.6373  -15.9144  -45.5443 H         1 UNK         0.3000 
    185 H185        6.9207  -14.6801  -45.3700 H         1 UNK         0.0600 
    186 H186        9.1968  -15.2517  -46.1695 H         1 UNK         0.0600 
    187 H187        8.9796  -15.7614  -44.5051 H         1 UNK         0.0600 
    188 H188        8.9230  -16.9543  -45.7986 H         1 UNK         0.0600 
    189 H189        7.4430  -16.3089  -47.6572 H         1 UNK         0.3000 
    190 H190       -2.4374  -20.1639  -47.6561 H         1 UNK         0.3000 
    191 H191       -2.4489  -21.3963  -50.1596 H         1 UNK         0.0600 
    192 H192       -4.8666  -21.2014  -50.0493 H         1 UNK         0.0600 
    193 H193       -4.2200  -19.8225  -49.1751 H         1 UNK         0.0600 
    194 H194       -4.8751  -21.1949  -48.2938 H         1 UNK         0.0600 
    195 H195       -3.3271  -22.8277  -46.9770 H         1 UNK         0.3000 
    196 H196       -3.9986  -25.4136  -47.9351 H         1 UNK         0.0600 
    197 H197       -3.7112  -26.0856  -45.5496 H         1 UNK         0.0600 
    198 H198       -4.6354  -24.5970  -45.6874 H         1 UNK         0.0600 
    199 H199       -2.9459  -24.5423  -45.1923 H         1 UNK         0.0600 
    200 H200       -0.8661  -24.0890  -46.7603 H         1 UNK         0.3000 
    201 H201        0.6451  -26.4797  -47.0333 H         1 UNK         0.0600 
    202 H202        1.3702  -24.5547  -45.6478 H         1 UNK         0.0600 
    203 H203        1.5543  -23.5531  -47.0853 H         1 UNK         0.0600 
    204 H204        2.6012  -24.9451  -46.8398 H         1 UNK         0.0600 
    205 H205        0.0741  -23.7835  -49.3155 H         1 UNK         0.3000 
    206 H206        1.7246  -24.8143  -51.4357 H         1 UNK         0.0600 
    207 H207       -0.5297  -22.7316  -51.4313 H         1 UNK         0.0600 
    208 H208        1.1820  -22.4009  -51.1715 H         1 UNK         0.0600 
    209 H209        0.6271  -22.9760  -52.7343 H         1 UNK         0.0600 
    210 H210       -1.3397  -25.7827  -50.3239 H         1 UNK         0.3000 
    211 H211       -2.9735  -27.0948  -50.9741 H         1 UNK         0.0600 
    212 H212       -1.3093  -27.9699  -53.3912 H         1 UNK         0.0600 
    213 H213       -2.6823  -28.8128  -52.6924 H         1 UNK         0.0600 
    214 H214       -1.1905  -28.6725  -51.7777 H         1 UNK         0.0600 
    215 H215       -2.7697  -24.3295  -51.8408 H         1 UNK         0.3000 
    216 H216       -4.4326  -24.1030  -54.2709 H         1 UNK         0.0600 
    217 H217       -4.1847  -21.7048  -53.9089 H         1 UNK         0.0600 
    218 H218       -2.6016  -22.4219  -53.6964 H         1 UNK         0.0600 
    219 H219       -3.5412  -21.9382  -52.2870 H         1 UNK         0.0600 
    220 H220       -4.6244  -24.1106  -50.7777 H         1 UNK         0.3000 
    221 H221       -6.2259  -24.1489  -49.2396 H         1 UNK         0.0600 
    222 H222       -7.5189  -25.8805  -51.4166 H         1 UNK         0.0600 
    223 H223       -6.3816  -26.3986  -50.1815 H         1 UNK         0.0600 
    224 H224       -7.9926  -25.8849  -49.7165 H         1 UNK         0.0600 
    225 H225       -8.9042  -24.4249  -51.4044 H         1 UNK         0.3000 
    226 H226      -10.4535  -22.4164  -50.2036 H         1 UNK         0.0600 
    227 H227      -11.3873  -24.4065  -51.3518 H         1 UNK         0.0600 
    228 H228      -12.0472  -22.9435  -52.0628 H         1 UNK         0.0600 
    229 H229      -10.7815  -23.8292  -52.9052 H         1 UNK         0.0600 
    230 H230       -8.0490  -22.0276  -52.6732 H         1 UNK         0.3000 
    231 H231       -8.9653  -19.5962  -53.8825 H         1 UNK         0.0600 
    232 H232       -6.5943  -19.3886  -54.5850 H         1 UNK         0.0600 
    233 H233       -7.1315  -21.0486  -54.8064 H         1 UNK         0.0600 
    234 H234       -6.1183  -20.6223  -53.4258 H         1 UNK         0.0600 
    235 H235       -7.5405  -20.2965  -50.7713 H         1 UNK         0.3000 
    236 H236       -7.1362  -19.2257  -48.9364 H         1 UNK         0.0600 
    237 H237       -9.4423  -18.3609  -49.2448 H         1 UNK         0.0600 
    238 H238       -8.4456  -17.2000  -48.3815 H         1 UNK         0.0600 
    239 H239       -8.8202  -16.9371  -50.0784 H         1 UNK         0.0600 
    240 H240       -6.0985  -17.4762  -51.7481 H         1 UNK         0.3000 
    241 H241       -4.2926  -16.3156  -52.2482 H         1 UNK         0.0600 
    242 H242       -6.4689  -14.9382  -50.4709 H         1 UNK         0.3800 
    243 H243       -5.6794  -13.4287  -50.0924 H         1 UNK         0.3800 
    244 H244       -2.1860  -16.4846  -50.8874 H         1 UNK         0.0800 
    245 H245       -3.0724  -17.2720  -49.6162 H         1 UNK         0.0800 
    246 H246       -1.6882  -17.6065  -53.3201 H         1 UNK         0.0800 
    247 H247       -1.2296  -19.2894  -53.2327 H         1 UNK         0.0800 
@<TRIPOS>BOND
     1    1    2 1    
     2    1  127 1    
     3    1  128 1    
     4    1  129 1    
     5    2    3 2    
     6    2    4 am   BACKBONE|DICT|INTERRES
     7    4    5 1    
     8    4  130 1    
     9    5    6 1    
    10    5   65 1    
    11    5  131 1    
    12    6    7 1    
    13    6  132 1    
    14    6  133 1    
    15    7    8 1    
    16    8    9 1    
    17    8  134 1    
    18    8  135 1    
    19    9   10 ar   
    20    9   14 ar   
    21   10   11 ar   
    22   10  136 1    
    23   11   12 ar   
    24   11  126 1    
    25   12   13 ar   
    26   12  137 1    
    27   13   14 ar   
    28   13   15 1    
    29   14  138 1    
    30   15   16 1    
    31   15  139 1    
    32   15  140 1    
    33   16   17 1    
    34   17   18 1    
    35   17  141 1    
    36   17  142 1    
    37   18   19 1    
    38   18   67 1    
    39   18  143 1    
    40   19   20 am   BACKBONE|DICT|INTERRES
    41   19  144 1    
    42   20   21 2    
    43   20   22 1    
    44   22   23 1    
    45   22   24 1    
    46   22  145 1    
    47   23  146 1    
    48   23  147 1    
    49   23  148 1    
    50   24   25 am   BACKBONE|DICT|INTERRES
    51   24  149 1    
    52   25   26 2    
    53   25   27 1    
    54   27   28 1    
    55   27   29 1    
    56   27  150 1    
    57   28  151 1    
    58   28  152 1    
    59   28  153 1    
    60   29   30 am   BACKBONE|DICT|INTERRES
    61   29  154 1    
    62   30   31 2    
    63   30   32 1    
    64   32   33 1    
    65   32   34 1    
    66   32  155 1    
    67   33  156 1    
    68   33  157 1    
    69   33  158 1    
    70   34   35 am   BACKBONE|DICT|INTERRES
    71   34  159 1    
    72   35   36 2    
    73   35   37 1    
    74   37   38 1    
    75   37   39 1    
    76   37  160 1    
    77   38  161 1    
    78   38  162 1    
    79   38  163 1    
    80   39   40 am   BACKBONE|DICT|INTERRES
    81   39  164 1    
    82   40   41 2    
    83   40   42 1    
    84   42   43 1    
    85   42   44 1    
    86   42  165 1    
    87   43  166 1    
    88   43  167 1    
    89   43  168 1    
    90   44   45 am   BACKBONE|DICT|INTERRES
    91   44  169 1    
    92   45   46 2    
    93   45   47 1    
    94   47   48 1    
    95   47   49 1    
    96   47  170 1    
    97   48  171 1    
    98   48  172 1    
    99   48  173 1    
   100   49   50 am   BACKBONE|DICT|INTERRES
   101   49  174 1    
   102   50   51 2    
   103   50   52 1    
   104   52   53 1    
   105   52   54 1    
   106   52  175 1    
   107   53  176 1    
   108   53  177 1    
   109   53  178 1    
   110   54   55 am   BACKBONE|DICT|INTERRES
   111   54  179 1    
   112   55   56 2    
   113   55   57 1    
   114   57   58 1    
   115   57   59 1    
   116   57  180 1    
   117   58  181 1    
   118   58  182 1    
   119   58  183 1    
   120   59   60 am   BACKBONE|DICT|INTERRES
   121   59  184 1    
   122   60   61 2    
   123   60   62 1    
   124   62   63 1    
   125   62   64 1    
   126   62  185 1    
   127   63  186 1    
   128   63  187 1    
   129   63  188 1    
   130   64   65 am   BACKBONE|DICT|INTERRES
   131   64  189 1    
   132   65   66 2    
   133   67   68 2    
   134   67   69 am   BACKBONE|DICT|INTERRES
   135   69   70 1    
   136   69  190 1    
   137   70   71 1    
   138   70   72 1    
   139   70  191 1    
   140   71  192 1    
   141   71  193 1    
   142   71  194 1    
   143   72   73 2    
   144   72   74 am   BACKBONE|DICT|INTERRES
   145   74   75 1    
   146   74  195 1    
   147   75   76 1    
   148   75   77 1    
   149   75  196 1    
   150   76  197 1    
   151   76  198 1    
   152   76  199 1    
   153   77   78 2    
   154   77   79 am   BACKBONE|DICT|INTERRES
   155   79   80 1    
   156   79  200 1    
   157   80   81 1    
   158   80   82 1    
   159   80  201 1    
   160   81  202 1    
   161   81  203 1    
   162   81  204 1    
   163   82   83 2    
   164   82   84 am   BACKBONE|DICT|INTERRES
   165   84   85 1    
   166   84  205 1    
   167   85   86 1    
   168   85   87 1    
   169   85  206 1    
   170   86  207 1    
   171   86  208 1    
   172   86  209 1    
   173   87   88 2    
   174   87   89 am   BACKBONE|DICT|INTERRES
   175   89   90 1    
   176   89  210 1    
   177   90   91 1    
   178   90   92 1    
   179   90  211 1    
   180   91  212 1    
   181   91  213 1    
   182   91  214 1    
   183   92   93 2    
   184   92   94 am   BACKBONE|DICT|INTERRES
   185   94   95 1    
   186   94  215 1    
   187   95   96 1    
   188   95   97 1    
   189   95  216 1    
   190   96  217 1    
   191   96  218 1    
   192   96  219 1    
   193   97   98 2    
   194   97   99 am   BACKBONE|DICT|INTERRES
   195   99  100 1    
   196   99  220 1    
   197  100  101 1    
   198  100  102 1    
   199  100  221 1    
   200  101  222 1    
   201  101  223 1    
   202  101  224 1    
   203  102  103 2    
   204  102  104 am   BACKBONE|DICT|INTERRES
   205  104  105 1    
   206  104  225 1    
   207  105  106 1    
   208  105  107 1    
   209  105  226 1    
   210  106  227 1    
   211  106  228 1    
   212  106  229 1    
   213  107  108 2    
   214  107  109 am   BACKBONE|DICT|INTERRES
   215  109  110 1    
   216  109  230 1    
   217  110  111 1    
   218  110  112 1    
   219  110  231 1    
   220  111  232 1    
   221  111  233 1    
   222  111  234 1    
   223  112  113 2    
   224  112  114 am   BACKBONE|DICT|INTERRES
   225  114  115 1    
   226  114  235 1    
   227  115  116 1    
   228  115  117 1    
   229  115  236 1    
   230  116  237 1    
   231  116  238 1    
   232  116  239 1    
   233  117  118 2    
   234  117  119 am   BACKBONE|DICT|INTERRES
   235  119  120 1    
   236  119  240 1    
   237  120  121 1    
   238  120  124 1    
   239  120  241 1    
   240  121  122 am   BACKBONE|DICT|INTERRES
   241  121  123 2    
   242  122  242 1    
   243  122  243 1    
   244  124  125 1    
   245  124  244 1    
   246  124  245 1    
   247  125  126 1    
   248  126  246 1    
   249  126  247 1    
@<TRIPOS>SUBSTRUCTURE
     1 UNK         1 GROUP             0       ****    0 ROOT    
