@<TRIPOS>MOLECULE
3R540
247   249    1
SMALL
USER_CHARGES


@<TRIPOS>ATOM
      1 CA          3.2998  -15.3448  -42.4367 C.3       0 UNK        -0.1800 
      2 C           4.6205  -15.8380  -43.0236 C.2       0 UNK         0.5000 
      3 O           5.4861  -16.2819  -42.2719 O.2       0 UNK        -0.5000 
      4 N           4.8221  -15.7979  -44.3477 N.am      1 UNK        -0.5000 
      5 CA          3.9283  -15.2237  -45.3591 C.3       1 UNK         0.1400 
      6 C6          4.2451  -15.7902  -46.7661 C.3       23 UNK        -0.0398 
      7 S7          2.7641  -15.8415  -47.8282 S.3       23 UNK        -0.2404 
      8 C8          3.5118  -16.1904  -49.4462 C.3       23 UNK        -0.0205 
      9 C9          2.7552  -17.2903  -50.1708 C.ar      23 UNK        -0.0193 
     10 C10         1.6773  -16.9722  -50.9993 C.ar      23 UNK        -0.1150 
     11 C11         0.9813  -17.9743  -51.6816 C.ar      23 UNK        -0.0193 
     12 C12         1.3962  -19.3031  -51.5509 C.ar      23 UNK        -0.1150 
     13 C13         2.4724  -19.6375  -50.7211 C.ar      23 UNK        -0.0193 
     14 C14         3.1423  -18.6254  -50.0274 C.ar      23 UNK        -0.1150 
     15 C15         2.9465  -21.0815  -50.6038 C.3       23 UNK        -0.0205 
     16 S16         1.6133  -22.2434  -50.1714 S.3       23 UNK        -0.2404 
     17 C17         1.1245  -21.6549  -48.5188 C.3       23 UNK        -0.0398 
     18 CA          0.4883  -22.7652  -47.6472 C.3       11 UNK         0.1400 
     19 N           0.5175  -22.3886  -46.2332 N.am      11 UNK        -0.5000 
     20 C           0.3246  -23.2092  -45.1938 C.2       10 UNK         0.5000 
     21 O           0.1207  -24.4159  -45.3213 O.2       10 UNK        -0.5000 
     22 CA          0.2800  -22.5641  -43.7900 C.3       10 UNK         0.1400 
     23 CB          0.9654  -23.4329  -42.7162 C.3       10 UNK        -0.1800 
     24 N           0.7647  -21.1771  -43.7655 N.am      10 UNK        -0.5000 
     25 C           2.0185  -20.7318  -43.9434 C.2       9 UNK         0.5000 
     26 O           3.0013  -21.4636  -44.0567 O.2       9 UNK        -0.5000 
     27 CA          2.2020  -19.2065  -44.0832 C.3       9 UNK         0.1400 
     28 CB          2.4414  -18.8557  -45.5581 C.3       9 UNK        -0.1800 
     29 N           1.0551  -18.4302  -43.6062 N.am      9 UNK        -0.5000 
     30 C           0.7444  -18.2362  -42.3170 C.2       8 UNK         0.5000 
     31 O           1.4276  -18.6444  -41.3782 O.2       8 UNK        -0.5000 
     32 CA         -0.5705  -17.4869  -42.0348 C.3       8 UNK         0.1400 
     33 CB         -0.3416  -15.9687  -41.9759 C.3       8 UNK        -0.1800 
     34 N          -1.5967  -17.7887  -43.0352 N.am      8 UNK        -0.5000 
     35 C          -2.2700  -18.9464  -43.0930 C.2       7 UNK         0.5000 
     36 O          -2.1151  -19.8675  -42.2916 O.2       7 UNK        -0.5000 
     37 CA         -3.2518  -19.1252  -44.2645 C.3       7 UNK         0.1400 
     38 CB         -4.6223  -18.5271  -43.9210 C.3       7 UNK        -0.1800 
     39 N          -2.7586  -18.5499  -45.5180 N.am      7 UNK        -0.5000 
     40 C          -1.6931  -19.0108  -46.1870 C.2       6 UNK         0.5000 
     41 O          -1.0953  -20.0422  -45.8808 O.2       6 UNK        -0.5000 
     42 CA         -1.1922  -18.1901  -47.3879 C.3       6 UNK         0.1400 
     43 CB         -1.7474  -18.7687  -48.6908 C.3       6 UNK        -0.1800 
     44 N          -1.5111  -16.7660  -47.3099 N.am      6 UNK        -0.5000 
     45 C          -1.0681  -15.9329  -46.3614 C.2       5 UNK         0.5000 
     46 O          -0.3038  -16.2789  -45.4572 O.2       5 UNK        -0.5000 
     47 CA         -1.5889  -14.4900  -46.4415 C.3       5 UNK         0.1400 
     48 CB         -0.8742  -13.5366  -45.4671 C.3       5 UNK        -0.1800 
     49 N          -1.4637  -13.9937  -47.8095 N.am      5 UNK        -0.5000 
     50 C          -2.2816  -13.1170  -48.4006 C.2       4 UNK         0.5000 
     51 O          -3.2769  -12.6413  -47.8517 O.2       4 UNK        -0.5000 
     52 CA         -1.9087  -12.6930  -49.8399 C.3       4 UNK         0.1400 
     53 CB         -2.9447  -11.7431  -50.4673 C.3       4 UNK        -0.1800 
     54 N          -0.5979  -12.0430  -49.8937 N.am      4 UNK        -0.5000 
     55 C           0.5825  -12.6661  -49.8016 C.2       3 UNK         0.5000 
     56 O           0.6918  -13.8871  -49.7016 O.2       3 UNK        -0.5000 
     57 CA          1.8571  -11.8008  -49.7821 C.3       3 UNK         0.1400 
     58 CB          1.6586  -10.3583  -50.3013 C.3       3 UNK        -0.1800 
     59 N           2.4710  -11.8098  -48.4502 N.am      3 UNK        -0.5000 
     60 C           1.9407  -11.3469  -47.3078 C.2       2 UNK         0.5000 
     61 O           0.8498  -10.7805  -47.2298 O.2       2 UNK        -0.5000 
     62 CA          2.7639  -11.6207  -46.0397 C.3       2 UNK         0.1400 
     63 CB          2.1329  -11.0460  -44.7559 C.3       2 UNK        -0.1800 
     64 N           2.9333  -13.0642  -45.9093 N.am      2 UNK        -0.5000 
     65 C           3.9776  -13.6798  -45.3506 C.2       1 UNK         0.5000 
     66 O           4.9446  -13.0874  -44.8653 O.2       1 UNK        -0.5000 
     67 C          -0.9470  -23.1151  -48.1021 C.2       11 UNK         0.5000 
     68 O          -1.1310  -23.9946  -48.9473 O.2       11 UNK        -0.5000 
     69 N          -1.9470  -22.4473  -47.5073 N.am      12 UNK        -0.5000 
     70 CA         -3.3640  -22.7532  -47.7054 C.3       12 UNK         0.1400 
     71 CB         -4.2179  -21.5651  -47.2505 C.3       12 UNK        -0.1800 
     72 C          -3.7815  -24.0350  -46.9664 C.2       12 UNK         0.5000 
     73 O          -4.5552  -24.8192  -47.5127 O.2       12 UNK        -0.5000 
     74 N          -3.2293  -24.2473  -45.7621 N.am      13 UNK        -0.5000 
     75 CA         -3.4501  -25.4420  -44.9403 C.3       13 UNK         0.1400 
     76 CB         -2.8918  -25.2056  -43.5287 C.3       13 UNK        -0.1800 
     77 C          -2.8407  -26.7088  -45.5701 C.2       13 UNK         0.5000 
     78 O          -3.4434  -27.7796  -45.4962 O.2       13 UNK        -0.5000 
     79 N          -1.6844  -26.5468  -46.2277 N.am      14 UNK        -0.5000 
     80 CA         -1.0262  -27.5629  -47.0514 C.3       14 UNK         0.1400 
     81 CB          0.4219  -27.1154  -47.3092 C.3       14 UNK        -0.1800 
     82 C          -1.7447  -27.8331  -48.3917 C.2       14 UNK         0.5000 
     83 O          -1.3889  -28.7928  -49.0762 O.2       14 UNK        -0.5000 
     84 N          -2.7137  -26.9760  -48.7524 N.am      15 UNK        -0.5000 
     85 CA         -3.4925  -26.9626  -49.9958 C.3       15 UNK         0.1400 
     86 CB         -4.3495  -28.2378  -50.1317 C.3       15 UNK        -0.1800 
     87 C          -2.6435  -26.6707  -51.2512 C.2       15 UNK         0.5000 
     88 O          -3.0575  -27.0047  -52.3620 O.2       15 UNK        -0.5000 
     89 N          -1.4836  -26.0297  -51.0583 N.am      16 UNK        -0.5000 
     90 CA         -0.5742  -25.6152  -52.1227 C.3       16 UNK         0.1400 
     91 CB          0.8579  -25.5617  -51.5720 C.3       16 UNK        -0.1800 
     92 C          -1.0088  -24.2703  -52.7282 C.2       16 UNK         0.5000 
     93 O          -0.9930  -24.1243  -53.9509 O.2       16 UNK        -0.5000 
     94 N          -1.4385  -23.3320  -51.8708 N.am      17 UNK        -0.5000 
     95 CA         -2.0665  -22.0747  -52.2905 C.3       17 UNK         0.1400 
     96 CB         -1.9750  -21.0492  -51.1545 C.3       17 UNK        -0.1800 
     97 C          -3.5414  -22.2747  -52.6820 C.2       17 UNK         0.5000 
     98 O          -4.0539  -21.5354  -53.5210 O.2       17 UNK        -0.5000 
     99 N          -4.1889  -23.2603  -52.0397 N.am      18 UNK        -0.5000 
    100 CA        -5.5819  -23.6993  -52.2020 C.3       18 UNK         0.1400 
    101 CB        -5.8277  -24.2170  -53.6335 C.3       18 UNK        -0.1800 
    102 C         -6.6523  -22.6740  -51.7620 C.2       18 UNK         0.5000 
    103 O         -7.8435  -22.9445  -51.9222 O.2       18 UNK        -0.5000 
    104 N         -6.2331  -21.5420  -51.1867 N.am      19 UNK        -0.5000 
    105 CA        -7.0802  -20.4787  -50.6631 C.3       19 UNK         0.1400 
    106 CB        -7.6060  -19.6030  -51.8122 C.3       19 UNK        -0.1800 
    107 C         -6.2475  -19.6491  -49.6806 C.2       19 UNK         0.5000 
    108 O         -5.0462  -19.4769  -49.9008 O.2       19 UNK        -0.5000 
    109 N         -6.9022  -19.1398  -48.6290 N.am      20 UNK        -0.5000 
    110 CA        -6.2990  -18.4127  -47.5051 C.3       20 UNK         0.1400 
    111 CB        -7.4023  -18.0719  -46.4913 C.3       20 UNK        -0.1800 
    112 C         -5.5290  -17.1376  -47.8917 C.2       20 UNK         0.5000 
    113 O         -4.5459  -16.8001  -47.2303 O.2       20 UNK        -0.5000 
    114 N         -5.9912  -16.4715  -48.9547 N.am      21 UNK        -0.5000 
    115 CA        -5.4155  -15.2460  -49.5053 C.3       21 UNK         0.1400 
    116 CB        -6.4702  -14.1279  -49.4238 C.3       21 UNK        -0.1800 
    117 C         -4.9033  -15.4585  -50.9435 C.2       21 UNK         0.5000 
    118 O         -4.7886  -14.4877  -51.6911 O.2       21 UNK        -0.5000 
    119 N         -4.6170  -16.7158  -51.3141 N.am      22 UNK        -0.5000 
    120 CA        -4.0909  -17.1443  -52.6270 C.3       22 UNK         0.1400 
    121 C         -5.1067  -17.0649  -53.8090 C.2       22 UNK         0.5000 
    122 N         -6.3680  -16.7142  -53.5902 N.am      22 UNK        -0.7600 
    123 O         -4.7529  -17.3549  -54.9485 O.2       22 UNK        -0.5000 
    124 C124       -2.7365  -16.4741  -53.0035 C.3       23 UNK        -0.0398 
    125 S125       -1.4637  -16.6455  -51.7089 S.3       23 UNK        -0.2404 
    126 C126       -0.1953  -17.6200  -52.5817 C.3       23 UNK        -0.0205 
    127 H127        2.4540  -15.8275  -42.9222 H         1 UNK         0.0600 
    128 H128        3.2431  -15.5784  -41.3732 H         1 UNK         0.0600 
    129 H129        3.2030  -14.2650  -42.5477 H         1 UNK         0.0600 
    130 H130        5.7196  -16.1012  -44.6966 H         1 UNK         0.3000 
    131 H131        2.9104  -15.5195  -45.0993 H         1 UNK         0.0600 
    132 H132        4.6058  -16.8172  -46.6893 H         1 UNK         0.0800 
    133 H133        5.0432  -15.2295  -47.2572 H         1 UNK         0.0800 
    134 H134        3.5096  -15.2760  -50.0414 H         1 UNK         0.0800 
    135 H135        4.5575  -16.4796  -49.3328 H         1 UNK         0.0800 
    136 H136        1.3729  -15.9413  -51.1089 H         1 UNK         0.1150 
    137 H137        0.8851  -20.0825  -52.0978 H         1 UNK         0.1150 
    138 H138        3.9785  -18.8715  -49.3881 H         1 UNK         0.1150 
    139 H139        3.3747  -21.3841  -51.5601 H         1 UNK         0.0800 
    140 H140        3.7464  -21.1726  -49.8674 H         1 UNK         0.0800 
    141 H141        2.0245  -21.2807  -48.0281 H         1 UNK         0.0800 
    142 H142        0.4633  -20.7942  -48.6233 H         1 UNK         0.0800 
    143 H143        1.0911  -23.6700  -47.7508 H         1 UNK         0.0600 
    144 H144        0.5550  -21.3982  -46.0320 H         1 UNK         0.3000 
    145 H145       -0.7774  -22.5041  -43.5286 H         1 UNK         0.0600 
    146 H146        0.9255  -22.9545  -41.7376 H         1 UNK         0.0600 
    147 H147        0.4717  -24.4007  -42.6235 H         1 UNK         0.0600 
    148 H148        2.0111  -23.6275  -42.9545 H         1 UNK         0.0600 
    149 H149        0.0377  -20.4762  -43.7158 H         1 UNK         0.3000 
    150 H150        3.0829  -18.9138  -43.5078 H         1 UNK         0.0600 
    151 H151        3.3912  -19.2602  -45.9098 H         1 UNK         0.0600 
    152 H152        2.4698  -17.7788  -45.7000 H         1 UNK         0.0600 
    153 H153        1.6576  -19.2528  -46.2022 H         1 UNK         0.0600 
    154 H154        0.4674  -17.9996  -44.3102 H         1 UNK         0.3000 
    155 H155       -0.9340  -17.8098  -41.0567 H         1 UNK         0.0600 
    156 H156       -1.2632  -15.4405  -41.7318 H         1 UNK         0.0600 
    157 H157        0.0278  -15.5759  -42.9228 H         1 UNK         0.0600 
    158 H158        0.3904  -15.7153  -41.2081 H         1 UNK         0.0600 
    159 H159       -1.7337  -17.1034  -43.7647 H         1 UNK         0.3000 
    160 H160       -3.3793  -20.1995  -44.4046 H         1 UNK         0.0600 
    161 H161       -4.6024  -17.4367  -43.9236 H         1 UNK         0.0600 
    162 H162       -4.9580  -18.8495  -42.9344 H         1 UNK         0.0600 
    163 H163       -5.3750  -18.8563  -44.6339 H         1 UNK         0.0600 
    164 H164       -3.2411  -17.7358  -45.8833 H         1 UNK         0.3000 
    165 H165       -0.1056  -18.2866  -47.4128 H         1 UNK         0.0600 
    166 H166       -2.7804  -18.4688  -48.8661 H         1 UNK         0.0600 
    167 H167       -1.1485  -18.4475  -49.5404 H         1 UNK         0.0600 
    168 H168       -1.7210  -19.8563  -48.6774 H         1 UNK         0.0600 
    169 H169       -2.1748  -16.4159  -47.9857 H         1 UNK         0.3000 
    170 H170       -2.6457  -14.5318  -46.1692 H         1 UNK         0.0600 
    171 H171       -1.0206  -13.8494  -44.4330 H         1 UNK         0.0600 
    172 H172        0.1975  -13.5110  -45.6554 H         1 UNK         0.0600 
    173 H173       -1.2538  -12.5185  -45.5551 H         1 UNK         0.0600 
    174 H174       -0.6550  -14.3162  -48.3362 H         1 UNK         0.3000 
    175 H175       -1.8792  -13.6002  -50.4479 H         1 UNK         0.0600 
    176 H176       -2.6966  -11.5206  -51.5052 H         1 UNK         0.0600 
    177 H177       -3.9392  -12.1890  -50.4638 H         1 UNK         0.0600 
    178 H178       -3.0066  -10.7985  -49.9257 H         1 UNK         0.0600 
    179 H179       -0.6006  -11.0336  -49.9061 H         1 UNK         0.3000 
    180 H180        2.5650  -12.2923  -50.4512 H         1 UNK         0.0600 
    181 H181        2.6104   -9.8288  -50.3442 H         1 UNK         0.0600 
    182 H182        1.2484  -10.3606  -51.3121 H         1 UNK         0.0600 
    183 H183        0.9869   -9.7726  -49.6736 H         1 UNK         0.0600 
    184 H184        3.3533  -12.2983  -48.3909 H         1 UNK         0.3000 
    185 H185        3.7373  -11.1477  -46.1866 H         1 UNK         0.0600 
    186 H186        1.9936   -9.9676  -44.8389 H         1 UNK         0.0600 
    187 H187        1.1583  -11.4893  -44.5506 H         1 UNK         0.0600 
    188 H188        2.7695  -11.2243  -43.8893 H         1 UNK         0.0600 
    189 H189        2.2104  -13.6260  -46.3398 H         1 UNK         0.3000 
    190 H190       -1.7147  -21.7236  -46.8359 H         1 UNK         0.3000 
    191 H191       -3.5439  -22.9088  -48.7710 H         1 UNK         0.0600 
    192 H192       -5.2700  -21.7303  -47.4855 H         1 UNK         0.0600 
    193 H193       -3.9112  -20.6485  -47.7519 H         1 UNK         0.0600 
    194 H194       -4.1454  -21.4027  -46.1765 H         1 UNK         0.0600 
    195 H195       -2.5868  -23.5614  -45.3993 H         1 UNK         0.3000 
    196 H196       -4.5279  -25.5982  -44.8572 H         1 UNK         0.0600 
    197 H197       -3.1012  -26.0583  -42.8816 H         1 UNK         0.0600 
    198 H198       -3.3440  -24.3285  -43.0654 H         1 UNK         0.0600 
    199 H199       -1.8116  -25.0626  -43.5380 H         1 UNK         0.0600 
    200 H200       -1.2049  -25.6557  -46.1491 H         1 UNK         0.3000 
    201 H201       -1.0048  -28.5011  -46.4934 H         1 UNK         0.0600 
    202 H202        0.9616  -26.9669  -46.3737 H         1 UNK         0.0600 
    203 H203        0.4590  -26.1801  -47.8690 H         1 UNK         0.0600 
    204 H204        0.9692  -27.8637  -47.8838 H         1 UNK         0.0600 
    205 H205       -2.9400  -26.2325  -48.1050 H         1 UNK         0.3000 
    206 H206       -4.1803  -26.1212  -49.9054 H         1 UNK         0.0600 
    207 H207       -4.9372  -28.4146  -49.2309 H         1 UNK         0.0600 
    208 H208       -5.0506  -28.1513  -50.9626 H         1 UNK         0.0600 
    209 H209       -3.7377  -29.1217  -50.3134 H         1 UNK         0.0600 
    210 H210       -1.2500  -25.7241  -50.1207 H         1 UNK         0.3000 
    211 H211       -0.5930  -26.3581  -52.9233 H         1 UNK         0.0600 
    212 H212        0.9153  -24.9738  -50.6572 H         1 UNK         0.0600 
    213 H213        1.5459  -25.1227  -52.2957 H         1 UNK         0.0600 
    214 H214        1.2220  -26.5626  -51.3401 H         1 UNK         0.0600 
    215 H215       -1.3687  -23.5151  -50.8753 H         1 UNK         0.3000 
    216 H216       -1.5308  -21.6766  -53.1550 H         1 UNK         0.0600 
    217 H217       -2.3581  -20.0782  -51.4717 H         1 UNK         0.0600 
    218 H218       -0.9465  -20.9011  -50.8326 H         1 UNK         0.0600 
    219 H219       -2.5568  -21.3582  -50.2871 H         1 UNK         0.0600 
    220 H220       -3.6489  -23.7882  -51.3716 H         1 UNK         0.3000 
    221 H221       -5.7002  -24.5492  -51.5284 H         1 UNK         0.0600 
    222 H222       -5.7876  -23.4129  -54.3686 H         1 UNK         0.0600 
    223 H223       -5.0865  -24.9661  -53.9131 H         1 UNK         0.0600 
    224 H224       -6.8084  -24.6864  -53.7185 H         1 UNK         0.0600 
    225 H225       -5.2418  -21.3738  -51.0780 H         1 UNK         0.3000 
    226 H226       -7.9205  -20.9218  -50.1245 H         1 UNK         0.0600 
    227 H227       -8.1685  -18.7480  -51.4355 H         1 UNK         0.0600 
    228 H228       -6.7875  -19.2217  -52.4223 H         1 UNK         0.0600 
    229 H229       -8.2717  -20.1658  -52.4665 H         1 UNK         0.0600 
    230 H230       -7.8927  -19.3206  -48.5486 H         1 UNK         0.3000 
    231 H231       -5.5850  -19.0806  -47.0229 H         1 UNK         0.0600 
    232 H232       -7.0120  -17.4810  -45.6616 H         1 UNK         0.0600 
    233 H233       -7.8411  -18.9754  -46.0676 H         1 UNK         0.0600 
    234 H234       -8.2039  -17.4919  -46.9503 H         1 UNK         0.0600 
    235 H235       -6.8023  -16.8403  -49.4298 H         1 UNK         0.3000 
    236 H236       -4.5520  -14.9372  -48.9151 H         1 UNK         0.0600 
    237 H237       -7.3407  -14.3498  -50.0419 H         1 UNK         0.0600 
    238 H238       -6.8132  -13.9876  -48.3986 H         1 UNK         0.0600 
    239 H239       -6.0626  -13.1731  -49.7571 H         1 UNK         0.0600 
    240 H240       -4.7363  -17.4617  -50.6389 H         1 UNK         0.3000 
    241 H241       -3.8964  -18.2113  -52.5102 H         1 UNK         0.0600 
    242 H242       -7.0116  -16.6758  -54.3647 H         1 UNK         0.3800 
    243 H243       -6.6728  -16.4466  -52.6699 H         1 UNK         0.3800 
    244 H244       -2.8742  -15.4109  -53.2036 H         1 UNK         0.0800 
    245 H245       -2.3509  -16.8983  -53.9318 H         1 UNK         0.0800 
    246 H246        0.1726  -17.0514  -53.4366 H         1 UNK         0.0800 
    247 H247       -0.6587  -18.5247  -52.9786 H         1 UNK         0.0800 
@<TRIPOS>BOND
     1    1    2 1    
     2    1  127 1    
     3    1  128 1    
     4    1  129 1    
     5    2    3 2    
     6    2    4 am   BACKBONE|DICT|INTERRES
     7    4    5 1    
     8    4  130 1    
     9    5    6 1    
    10    5   65 1    
    11    5  131 1    
    12    6    7 1    
    13    6  132 1    
    14    6  133 1    
    15    7    8 1    
    16    8    9 1    
    17    8  134 1    
    18    8  135 1    
    19    9   10 ar   
    20    9   14 ar   
    21   10   11 ar   
    22   10  136 1    
    23   11   12 ar   
    24   11  126 1    
    25   12   13 ar   
    26   12  137 1    
    27   13   14 ar   
    28   13   15 1    
    29   14  138 1    
    30   15   16 1    
    31   15  139 1    
    32   15  140 1    
    33   16   17 1    
    34   17   18 1    
    35   17  141 1    
    36   17  142 1    
    37   18   19 1    
    38   18   67 1    
    39   18  143 1    
    40   19   20 am   BACKBONE|DICT|INTERRES
    41   19  144 1    
    42   20   21 2    
    43   20   22 1    
    44   22   23 1    
    45   22   24 1    
    46   22  145 1    
    47   23  146 1    
    48   23  147 1    
    49   23  148 1    
    50   24   25 am   BACKBONE|DICT|INTERRES
    51   24  149 1    
    52   25   26 2    
    53   25   27 1    
    54   27   28 1    
    55   27   29 1    
    56   27  150 1    
    57   28  151 1    
    58   28  152 1    
    59   28  153 1    
    60   29   30 am   BACKBONE|DICT|INTERRES
    61   29  154 1    
    62   30   31 2    
    63   30   32 1    
    64   32   33 1    
    65   32   34 1    
    66   32  155 1    
    67   33  156 1    
    68   33  157 1    
    69   33  158 1    
    70   34   35 am   BACKBONE|DICT|INTERRES
    71   34  159 1    
    72   35   36 2    
    73   35   37 1    
    74   37   38 1    
    75   37   39 1    
    76   37  160 1    
    77   38  161 1    
    78   38  162 1    
    79   38  163 1    
    80   39   40 am   BACKBONE|DICT|INTERRES
    81   39  164 1    
    82   40   41 2    
    83   40   42 1    
    84   42   43 1    
    85   42   44 1    
    86   42  165 1    
    87   43  166 1    
    88   43  167 1    
    89   43  168 1    
    90   44   45 am   BACKBONE|DICT|INTERRES
    91   44  169 1    
    92   45   46 2    
    93   45   47 1    
    94   47   48 1    
    95   47   49 1    
    96   47  170 1    
    97   48  171 1    
    98   48  172 1    
    99   48  173 1    
   100   49   50 am   BACKBONE|DICT|INTERRES
   101   49  174 1    
   102   50   51 2    
   103   50   52 1    
   104   52   53 1    
   105   52   54 1    
   106   52  175 1    
   107   53  176 1    
   108   53  177 1    
   109   53  178 1    
   110   54   55 am   BACKBONE|DICT|INTERRES
   111   54  179 1    
   112   55   56 2    
   113   55   57 1    
   114   57   58 1    
   115   57   59 1    
   116   57  180 1    
   117   58  181 1    
   118   58  182 1    
   119   58  183 1    
   120   59   60 am   BACKBONE|DICT|INTERRES
   121   59  184 1    
   122   60   61 2    
   123   60   62 1    
   124   62   63 1    
   125   62   64 1    
   126   62  185 1    
   127   63  186 1    
   128   63  187 1    
   129   63  188 1    
   130   64   65 am   BACKBONE|DICT|INTERRES
   131   64  189 1    
   132   65   66 2    
   133   67   68 2    
   134   67   69 am   BACKBONE|DICT|INTERRES
   135   69   70 1    
   136   69  190 1    
   137   70   71 1    
   138   70   72 1    
   139   70  191 1    
   140   71  192 1    
   141   71  193 1    
   142   71  194 1    
   143   72   73 2    
   144   72   74 am   BACKBONE|DICT|INTERRES
   145   74   75 1    
   146   74  195 1    
   147   75   76 1    
   148   75   77 1    
   149   75  196 1    
   150   76  197 1    
   151   76  198 1    
   152   76  199 1    
   153   77   78 2    
   154   77   79 am   BACKBONE|DICT|INTERRES
   155   79   80 1    
   156   79  200 1    
   157   80   81 1    
   158   80   82 1    
   159   80  201 1    
   160   81  202 1    
   161   81  203 1    
   162   81  204 1    
   163   82   83 2    
   164   82   84 am   BACKBONE|DICT|INTERRES
   165   84   85 1    
   166   84  205 1    
   167   85   86 1    
   168   85   87 1    
   169   85  206 1    
   170   86  207 1    
   171   86  208 1    
   172   86  209 1    
   173   87   88 2    
   174   87   89 am   BACKBONE|DICT|INTERRES
   175   89   90 1    
   176   89  210 1    
   177   90   91 1    
   178   90   92 1    
   179   90  211 1    
   180   91  212 1    
   181   91  213 1    
   182   91  214 1    
   183   92   93 2    
   184   92   94 am   BACKBONE|DICT|INTERRES
   185   94   95 1    
   186   94  215 1    
   187   95   96 1    
   188   95   97 1    
   189   95  216 1    
   190   96  217 1    
   191   96  218 1    
   192   96  219 1    
   193   97   98 2    
   194   97   99 am   BACKBONE|DICT|INTERRES
   195   99  100 1    
   196   99  220 1    
   197  100  101 1    
   198  100  102 1    
   199  100  221 1    
   200  101  222 1    
   201  101  223 1    
   202  101  224 1    
   203  102  103 2    
   204  102  104 am   BACKBONE|DICT|INTERRES
   205  104  105 1    
   206  104  225 1    
   207  105  106 1    
   208  105  107 1    
   209  105  226 1    
   210  106  227 1    
   211  106  228 1    
   212  106  229 1    
   213  107  108 2    
   214  107  109 am   BACKBONE|DICT|INTERRES
   215  109  110 1    
   216  109  230 1    
   217  110  111 1    
   218  110  112 1    
   219  110  231 1    
   220  111  232 1    
   221  111  233 1    
   222  111  234 1    
   223  112  113 2    
   224  112  114 am   BACKBONE|DICT|INTERRES
   225  114  115 1    
   226  114  235 1    
   227  115  116 1    
   228  115  117 1    
   229  115  236 1    
   230  116  237 1    
   231  116  238 1    
   232  116  239 1    
   233  117  118 2    
   234  117  119 am   BACKBONE|DICT|INTERRES
   235  119  120 1    
   236  119  240 1    
   237  120  121 1    
   238  120  124 1    
   239  120  241 1    
   240  121  122 am   BACKBONE|DICT|INTERRES
   241  121  123 2    
   242  122  242 1    
   243  122  243 1    
   244  124  125 1    
   245  124  244 1    
   246  124  245 1    
   247  125  126 1    
   248  126  246 1    
   249  126  247 1    
@<TRIPOS>SUBSTRUCTURE
     1 UNK         1 GROUP             0       ****    0 ROOT    
