@<TRIPOS>MOLECULE
3R540
247   249    1
SMALL
USER_CHARGES


@<TRIPOS>ATOM
      1 CA         -0.1343  -13.6630  -42.2984 C.3       0 UNK        -0.1800 
      2 C          -0.8615  -12.9628  -43.4374 C.2       0 UNK         0.5000 
      3 O          -1.5616  -11.9792  -43.1974 O.2       0 UNK        -0.5000 
      4 N          -0.6920  -13.4503  -44.6745 N.am      1 UNK        -0.5000 
      5 CA         -1.2354  -12.8404  -45.8988 C.3       1 UNK         0.1400 
      6 C6         -1.0968  -13.7773  -47.1231 C.3       23 UNK        -0.0398 
      7 S7         -2.0789  -15.3078  -46.9768 S.3       23 UNK        -0.2404 
      8 C8         -2.7996  -15.4104  -48.6460 C.3       23 UNK        -0.0205 
      9 C9         -3.2187  -16.8319  -48.9794 C.ar      23 UNK        -0.0193 
     10 C10        -4.5558  -17.2264  -48.8864 C.ar      23 UNK        -0.1150 
     11 C11        -4.9296  -18.5379  -49.1952 C.ar      23 UNK        -0.0193 
     12 C12        -3.9540  -19.4581  -49.5891 C.ar      23 UNK        -0.1150 
     13 C13        -2.6129  -19.0750  -49.6896 C.ar      23 UNK        -0.0193 
     14 C14        -2.2568  -17.7558  -49.3934 C.ar      23 UNK        -0.1150 
     15 C15        -1.5566  -20.0877  -50.1210 C.3       23 UNK        -0.0205 
     16 S16        -0.0742  -20.0942  -49.0550 S.3       23 UNK        -0.2404 
     17 C17        -0.7997  -20.3219  -47.3969 C.3       23 UNK        -0.0398 
     18 CA         -0.6631  -21.7532  -46.8344 C.3       11 UNK         0.1400 
     19 N          -0.8528  -21.7374  -45.3815 N.am      11 UNK        -0.5000 
     20 C          -0.7390  -22.7750  -44.5430 C.2       10 UNK         0.5000 
     21 O          -0.4625  -23.9197  -44.8977 O.2       10 UNK        -0.5000 
     22 CA         -1.0462  -22.4862  -43.0665 C.3       10 UNK         0.1400 
     23 CB          0.1034  -21.7117  -42.4023 C.3       10 UNK        -0.1800 
     24 N          -2.2927  -21.7320  -42.9400 N.am      10 UNK        -0.5000 
     25 C          -3.5127  -22.2803  -43.0282 C.2       9 UNK         0.5000 
     26 O          -3.7104  -23.4901  -43.1410 O.2       9 UNK        -0.5000 
     27 CA         -4.7170  -21.3193  -42.9992 C.3       9 UNK         0.1400 
     28 CB         -5.2136  -21.1240  -41.5588 C.3       9 UNK        -0.1800 
     29 N          -4.4327  -20.0093  -43.5883 N.am      9 UNK        -0.5000 
     30 C          -4.1970  -19.7943  -44.8902 C.2       8 UNK         0.5000 
     31 O          -4.1829  -20.6830  -45.7397 O.2       8 UNK        -0.5000 
     32 CA         -3.8658  -18.3466  -45.2974 C.3       8 UNK         0.1400 
     33 CB         -5.1540  -17.5285  -45.4680 C.3       8 UNK        -0.1800 
     34 N          -2.9823  -17.6560  -44.3534 N.am      8 UNK        -0.5000 
     35 C          -1.7695  -18.0842  -43.9836 C.2       7 UNK         0.5000 
     36 O          -1.2853  -19.1627  -44.3341 O.2       7 UNK        -0.5000 
     37 CA         -0.9881  -17.1869  -43.0135 C.3       7 UNK         0.1400 
     38 CB         -1.3458  -17.5328  -41.5604 C.3       7 UNK        -0.1800 
     39 N           0.4486  -17.3715  -43.2042 N.am      7 UNK        -0.5000 
     40 C           1.1483  -16.8159  -44.1985 C.2       6 UNK         0.5000 
     41 O           0.6934  -15.9626  -44.9650 O.2       6 UNK        -0.5000 
     42 CA          2.5924  -17.3201  -44.3751 C.3       6 UNK         0.1400 
     43 CB          2.6059  -18.5769  -45.2613 C.3       6 UNK        -0.1800 
     44 N           3.4531  -16.3014  -44.9775 N.am      6 UNK        -0.5000 
     45 C           3.7986  -15.1539  -44.3808 C.2       5 UNK         0.5000 
     46 O           3.5209  -14.8827  -43.2088 O.2       5 UNK        -0.5000 
     47 CA          4.5580  -14.1420  -45.2574 C.3       5 UNK         0.1400 
     48 CB          3.6298  -13.5527  -46.3320 C.3       5 UNK        -0.1800 
     49 N           5.0892  -13.0511  -44.4405 N.am      5 UNK        -0.5000 
     50 C           6.3152  -13.0350  -43.9001 C.2       4 UNK         0.5000 
     51 O           7.1570  -13.9088  -44.1180 O.2       4 UNK        -0.5000 
     52 CA          6.6627  -11.8794  -42.9321 C.3       4 UNK         0.1400 
     53 CB          8.1239  -11.4042  -43.0810 C.3       4 UNK        -0.1800 
     54 N           5.7329  -10.7430  -42.9715 N.am      4 UNK        -0.5000 
     55 C           5.5189   -9.8943  -43.9863 C.2       3 UNK         0.5000 
     56 O           6.1080   -9.9338  -45.0684 O.2       3 UNK        -0.5000 
     57 CA          4.4210   -8.8374  -43.7557 C.3       3 UNK         0.1400 
     58 CB          4.9875   -7.4142  -43.8830 C.3       3 UNK        -0.1800 
     59 N           3.3044   -8.9979  -44.6888 N.am      3 UNK        -0.5000 
     60 C           2.5552  -10.1010  -44.8091 C.2       2 UNK         0.5000 
     61 O           2.7038  -11.1107  -44.1117 O.2       2 UNK        -0.5000 
     62 CA          1.4650  -10.0734  -45.8918 C.3       2 UNK         0.1400 
     63 CB          2.0716  -10.0210  -47.3074 C.3       2 UNK        -0.1800 
     64 N           0.6504  -11.2716  -45.7415 N.am      2 UNK        -0.5000 
     65 C          -0.5812  -11.4756  -46.2189 C.2       1 UNK         0.5000 
     66 O          -1.1989  -10.6472  -46.8895 O.2       1 UNK        -0.5000 
     67 C          -1.6039  -22.7494  -47.5498 C.2       11 UNK         0.5000 
     68 O          -1.1902  -23.3986  -48.5127 O.2       11 UNK        -0.5000 
     69 N          -2.8296  -22.9069  -47.0295 N.am      12 UNK        -0.5000 
     70 CA         -3.8144  -23.8936  -47.4735 C.3       12 UNK         0.1400 
     71 CB         -5.1234  -23.7014  -46.6946 C.3       12 UNK        -0.1800 
     72 C          -3.3357  -25.3564  -47.3806 C.2       12 UNK         0.5000 
     73 O          -3.7849  -26.1829  -48.1743 O.2       12 UNK        -0.5000 
     74 N          -2.4259  -25.6444  -46.4415 N.am      13 UNK        -0.5000 
     75 CA         -1.7754  -26.9424  -46.2933 C.3       13 UNK         0.1400 
     76 CB         -1.6728  -27.2915  -44.7996 C.3       13 UNK        -0.1800 
     77 C          -0.3864  -26.9316  -46.9511 C.2       13 UNK         0.5000 
     78 O          -0.0893  -27.8136  -47.7565 O.2       13 UNK        -0.5000 
     79 N           0.4370  -25.9344  -46.5991 N.am      14 UNK        -0.5000 
     80 CA          1.8535  -25.8393  -46.9578 C.3       14 UNK         0.1400 
     81 CB          2.5042  -24.7121  -46.1409 C.3       14 UNK        -0.1800 
     82 C           2.1178  -25.6331  -48.4589 C.2       14 UNK         0.5000 
     83 O           3.1036  -26.1639  -48.9723 O.2       14 UNK        -0.5000 
     84 N           1.2410  -24.8778  -49.1303 N.am      15 UNK        -0.5000 
     85 CA          1.3126  -24.5834  -50.5630 C.3       15 UNK         0.1400 
     86 CB          1.4545  -23.0646  -50.7445 C.3       15 UNK        -0.1800 
     87 C           0.0809  -25.1297  -51.3102 C.2       15 UNK         0.5000 
     88 O          -0.1329  -24.7718  -52.4695 O.2       15 UNK        -0.5000 
     89 N          -0.7131  -25.9729  -50.6301 N.am      16 UNK        -0.5000 
     90 CA         -1.9250  -26.6487  -51.1066 C.3       16 UNK         0.1400 
     91 CB         -1.5622  -27.7028  -52.1731 C.3       16 UNK        -0.1800 
     92 C          -3.0397  -25.6894  -51.5804 C.2       16 UNK         0.5000 
     93 O          -3.8474  -26.0704  -52.4300 O.2       16 UNK        -0.5000 
     94 N          -3.0554  -24.4594  -51.0415 N.am      17 UNK        -0.5000 
     95 CA         -3.9653  -23.3394  -51.3257 C.3       17 UNK         0.1400 
     96 CB         -5.4375  -23.7234  -51.0735 C.3       17 UNK        -0.1800 
     97 C          -3.7961  -22.7231  -52.7276 C.2       17 UNK         0.5000 
     98 O          -3.6675  -21.5024  -52.8435 O.2       17 UNK        -0.5000 
     99 N          -3.7780  -23.5831  -53.7538 N.am      18 UNK        -0.5000 
    100 CA        -3.7828  -23.2803  -55.1868 C.3       18 UNK         0.1400 
    101 CB        -3.8322  -24.6060  -55.9619 C.3       18 UNK        -0.1800 
    102 C         -2.6175  -22.4071  -55.6888 C.2       18 UNK         0.5000 
    103 O         -2.7213  -21.8417  -56.7779 O.2       18 UNK        -0.5000 
    104 N         -1.5477  -22.2844  -54.8904 N.am      19 UNK        -0.5000 
    105 CA        -0.4537  -21.3331  -55.0933 C.3       19 UNK         0.1400 
    106 CB         0.6194  -21.5749  -54.0244 C.3       19 UNK        -0.1800 
    107 C         -0.9154  -19.8606  -55.0656 C.2       19 UNK         0.5000 
    108 O         -0.3035  -19.0279  -55.7361 O.2       19 UNK        -0.5000 
    109 N         -1.9911  -19.5767  -54.3182 N.am      20 UNK        -0.5000 
    110 CA        -2.7081  -18.3080  -54.3450 C.3       20 UNK         0.1400 
    111 CB        -3.0164  -17.8559  -52.9075 C.3       20 UNK        -0.1800 
    112 C         -3.9802  -18.4850  -55.1875 C.2       20 UNK         0.5000 
    113 O         -4.0134  -18.0330  -56.3324 O.2       20 UNK        -0.5000 
    114 N         -4.9858  -19.1525  -54.6088 N.am      21 UNK        -0.5000 
    115 CA        -6.3120  -19.4226  -55.1599 C.3       21 UNK         0.1400 
    116 CB        -7.0394  -18.1190  -55.5778 C.3       21 UNK        -0.1800 
    117 C         -7.0696  -20.2276  -54.0896 C.2       21 UNK         0.5000 
    118 O         -6.6627  -21.3488  -53.7886 O.2       21 UNK        -0.5000 
    119 N         -8.1250  -19.6389  -53.5108 N.am      22 UNK        -0.5000 
    120 CA        -8.8807  -20.1393  -52.3459 C.3       22 UNK         0.1400 
    121 C         -9.6759  -21.4617  -52.5813 C.2       22 UNK         0.5000 
    122 N         -9.9158  -21.8775  -53.8186 N.am      22 UNK        -0.7600 
    123 O        -10.1167  -22.1051  -51.6324 O.2       22 UNK        -0.5000 
    124 C124       -8.0216  -20.1804  -51.0491 C.3       23 UNK        -0.0398 
    125 S125       -7.2762  -18.5646  -50.6426 S.3       23 UNK        -0.2404 
    126 C126       -6.3870  -18.9600  -49.1050 C.3       23 UNK        -0.0205 
    127 H127       -0.8403  -14.2184  -41.6816 H         1 UNK         0.0600 
    128 H128        0.3658  -12.9283  -41.6672 H         1 UNK         0.0600 
    129 H129        0.6249  -14.3522  -42.6659 H         1 UNK         0.0600 
    130 H130       -0.1455  -14.2990  -44.8137 H         1 UNK         0.3000 
    131 H131       -2.2983  -12.6516  -45.7341 H         1 UNK         0.0600 
    132 H132       -0.0525  -14.0566  -47.2754 H         1 UNK         0.0800 
    133 H133       -1.4061  -13.2543  -48.0301 H         1 UNK         0.0800 
    134 H134       -3.6482  -14.7285  -48.7173 H         1 UNK         0.0800 
    135 H135       -2.0705  -15.0779  -49.3866 H         1 UNK         0.0800 
    136 H136       -5.3069  -16.5136  -48.5767 H         1 UNK         0.1150 
    137 H137       -4.2459  -20.4702  -49.8257 H         1 UNK         0.1150 
    138 H138       -1.2232  -17.4489  -49.4702 H         1 UNK         0.1150 
    139 H139       -1.9706  -21.0952  -50.1361 H         1 UNK         0.0800 
    140 H140       -1.2547  -19.8660  -51.1453 H         1 UNK         0.0800 
    141 H141       -1.8392  -19.9959  -47.3659 H         1 UNK         0.0800 
    142 H142       -0.2638  -19.6251  -46.7508 H         1 UNK         0.0800 
    143 H143        0.3591  -22.0932  -47.0102 H         1 UNK         0.0600 
    144 H144       -1.0794  -20.8285  -44.9809 H         1 UNK         0.3000 
    145 H145       -1.1517  -23.4421  -42.5488 H         1 UNK         0.0600 
    146 H146        1.0354  -22.2751  -42.4625 H         1 UNK         0.0600 
    147 H147        0.2761  -20.7451  -42.8757 H         1 UNK         0.0600 
    148 H148       -0.1012  -21.5343  -41.3465 H         1 UNK         0.0600 
    149 H149       -2.2139  -20.7253  -42.9141 H         1 UNK         0.3000 
    150 H150       -5.5196  -21.7818  -43.5778 H         1 UNK         0.0600 
    151 H151       -6.1156  -20.5123  -41.5318 H         1 UNK         0.0600 
    152 H152       -4.4604  -20.6413  -40.9348 H         1 UNK         0.0600 
    153 H153       -5.4582  -22.0815  -41.0969 H         1 UNK         0.0600 
    154 H154       -4.4131  -19.2204  -42.9593 H         1 UNK         0.3000 
    155 H155       -3.3542  -18.3840  -46.2612 H         1 UNK         0.0600 
    156 H156       -5.6741  -17.3896  -44.5196 H         1 UNK         0.0600 
    157 H157       -5.8445  -18.0253  -46.1494 H         1 UNK         0.0600 
    158 H158       -4.9415  -16.5430  -45.8831 H         1 UNK         0.0600 
    159 H159       -3.3080  -16.7623  -44.0156 H         1 UNK         0.3000 
    160 H160       -1.2535  -16.1468  -43.2083 H         1 UNK         0.0600 
    161 H161       -0.8012  -16.8988  -40.8604 H         1 UNK         0.0600 
    162 H162       -1.1125  -18.5718  -41.3228 H         1 UNK         0.0600 
    163 H163       -2.4096  -17.3833  -41.3715 H         1 UNK         0.0600 
    164 H164        0.8823  -18.0888  -42.6424 H         1 UNK         0.3000 
    165 H165        2.9982  -17.5760  -43.3940 H         1 UNK         0.0600 
    166 H166        3.6150  -18.9751  -45.3684 H         1 UNK         0.0600 
    167 H167        1.9891  -19.3677  -44.8314 H         1 UNK         0.0600 
    168 H168        2.2177  -18.3692  -46.2596 H         1 UNK         0.0600 
    169 H169        3.6877  -16.4360  -45.9497 H         1 UNK         0.3000 
    170 H170        5.3751  -14.6639  -45.7599 H         1 UNK         0.0600 
    171 H171        4.1312  -12.7677  -46.8981 H         1 UNK         0.0600 
    172 H172        3.3173  -14.3163  -47.0450 H         1 UNK         0.0600 
    173 H173        2.7258  -13.1320  -45.8945 H         1 UNK         0.0600 
    174 H174        4.4243  -12.3351  -44.1699 H         1 UNK         0.3000 
    175 H175        6.5633  -12.3023  -41.9315 H         1 UNK         0.0600 
    176 H176        8.3335  -11.0437  -44.0883 H         1 UNK         0.0600 
    177 H177        8.3508  -10.5995  -42.3817 H         1 UNK         0.0600 
    178 H178        8.8229  -12.2155  -42.8752 H         1 UNK         0.0600 
    179 H179        5.1604  -10.6381  -42.1450 H         1 UNK         0.3000 
    180 H180        4.0247   -8.9517  -42.7445 H         1 UNK         0.0600 
    181 H181        4.2304   -6.6651  -43.6507 H         1 UNK         0.0600 
    182 H182        5.3588   -7.2162  -44.8894 H         1 UNK         0.0600 
    183 H183        5.8172   -7.2621  -43.1914 H         1 UNK         0.0600 
    184 H184        3.1351   -8.2242  -45.3147 H         1 UNK         0.3000 
    185 H185        0.8406   -9.1937  -45.7235 H         1 UNK         0.0600 
    186 H186        2.7004  -10.8886  -47.5072 H         1 UNK         0.0600 
    187 H187        1.2952   -9.9906  -48.0717 H         1 UNK         0.0600 
    188 H188        2.6874   -9.1315  -47.4431 H         1 UNK         0.0600 
    189 H189        1.0635  -11.9678  -45.1329 H         1 UNK         0.3000 
    190 H190       -3.1305  -22.2746  -46.2942 H         1 UNK         0.3000 
    191 H191       -4.0163  -23.6866  -48.5209 H         1 UNK         0.0600 
    192 H192       -4.9715  -23.8133  -45.6208 H         1 UNK         0.0600 
    193 H193       -5.8729  -24.4328  -46.9999 H         1 UNK         0.0600 
    194 H194       -5.5473  -22.7134  -46.8741 H         1 UNK         0.0600 
    195 H195       -2.0794  -24.8971  -45.8521 H         1 UNK         0.3000 
    196 H196       -2.3683  -27.7231  -46.7747 H         1 UNK         0.0600 
    197 H197       -1.1805  -28.2542  -44.6566 H         1 UNK         0.0600 
    198 H198       -2.6615  -27.3615  -44.3459 H         1 UNK         0.0600 
    199 H199       -1.1046  -26.5455  -44.2427 H         1 UNK         0.0600 
    200 H200        0.1000  -25.2335  -45.9409 H         1 UNK         0.3000 
    201 H201        2.3275  -26.7801  -46.6701 H         1 UNK         0.0600 
    202 H202        2.3950  -24.8870  -45.0704 H         1 UNK         0.0600 
    203 H203        2.0597  -23.7428  -46.3678 H         1 UNK         0.0600 
    204 H204        3.5720  -24.6415  -46.3516 H         1 UNK         0.0600 
    205 H205        0.4479  -24.4713  -48.6423 H         1 UNK         0.3000 
    206 H206        2.1868  -25.0599  -51.0103 H         1 UNK         0.0600 
    207 H207        1.7579  -22.8268  -51.7628 H         1 UNK         0.0600 
    208 H208        0.5145  -22.5495  -50.5483 H         1 UNK         0.0600 
    209 H209        2.2119  -22.6495  -50.0796 H         1 UNK         0.0600 
    210 H210       -0.4319  -26.2050  -49.6874 H         1 UNK         0.3000 
    211 H211       -2.3317  -27.1812  -50.2462 H         1 UNK         0.0600 
    212 H212       -1.2059  -27.2396  -53.0938 H         1 UNK         0.0600 
    213 H213       -2.4261  -28.3172  -52.4290 H         1 UNK         0.0600 
    214 H214       -0.7843  -28.3761  -51.8131 H         1 UNK         0.0600 
    215 H215       -2.3177  -24.2503  -50.3796 H         1 UNK         0.3000 
    216 H216       -3.7036  -22.5644  -50.6074 H         1 UNK         0.0600 
    217 H217       -6.0764  -22.8436  -51.1217 H         1 UNK         0.0600 
    218 H218       -5.5807  -24.1771  -50.0939 H         1 UNK         0.0600 
    219 H219       -5.8113  -24.4260  -51.8185 H         1 UNK         0.0600 
    220 H220       -3.8625  -24.5665  -53.5078 H         1 UNK         0.3000 
    221 H221       -4.7015  -22.7276  -55.3921 H         1 UNK         0.0600 
    222 H222       -2.9531  -25.2194  -55.7600 H         1 UNK         0.0600 
    223 H223       -4.7149  -25.1869  -55.6937 H         1 UNK         0.0600 
    224 H224       -3.8737  -24.4326  -57.0381 H         1 UNK         0.0600 
    225 H225       -1.5380  -22.8097  -54.0275 H         1 UNK         0.3000 
    226 H226       -0.0166  -21.5277  -56.0747 H         1 UNK         0.0600 
    227 H227        1.0014  -22.5946  -54.0759 H         1 UNK         0.0600 
    228 H228        1.4672  -20.9021  -54.1595 H         1 UNK         0.0600 
    229 H229        0.2248  -21.4107  -53.0209 H         1 UNK         0.0600 
    230 H230       -2.4557  -20.3361  -53.8276 H         1 UNK         0.3000 
    231 H231       -2.1037  -17.5285  -54.8136 H         1 UNK         0.0600 
    232 H232       -2.0964  -17.6443  -52.3630 H         1 UNK         0.0600 
    233 H233       -3.6134  -16.9433  -52.9015 H         1 UNK         0.0600 
    234 H234       -3.5666  -18.6122  -52.3480 H         1 UNK         0.0600 
    235 H235       -4.8254  -19.5676  -53.6980 H         1 UNK         0.3000 
    236 H236       -6.1993  -20.0644  -56.0354 H         1 UNK         0.0600 
    237 H237       -7.0655  -17.3894  -54.7673 H         1 UNK         0.0600 
    238 H238       -6.5554  -17.6445  -56.4305 H         1 UNK         0.0600 
    239 H239       -8.0660  -18.3195  -55.8873 H         1 UNK         0.0600 
    240 H240       -8.3863  -18.7175  -53.8300 H         1 UNK         0.3000 
    241 H241       -9.6606  -19.3958  -52.1782 H         1 UNK         0.0600 
    242 H242      -10.4395  -22.7261  -53.9655 H         1 UNK         0.3800 
    243 H243       -9.5646  -21.3605  -54.6086 H         1 UNK         0.3800 
    244 H244       -8.6276  -20.4892  -50.1958 H         1 UNK         0.0800 
    245 H245       -7.2240  -20.9152  -51.1456 H         1 UNK         0.0800 
    246 H246       -6.4522  -20.0265  -48.8835 H         1 UNK         0.0800 
    247 H247       -6.8759  -18.4481  -48.2756 H         1 UNK         0.0800 
@<TRIPOS>BOND
     1    1    2 1    
     2    1  127 1    
     3    1  128 1    
     4    1  129 1    
     5    2    3 2    
     6    2    4 am   BACKBONE|DICT|INTERRES
     7    4    5 1    
     8    4  130 1    
     9    5    6 1    
    10    5   65 1    
    11    5  131 1    
    12    6    7 1    
    13    6  132 1    
    14    6  133 1    
    15    7    8 1    
    16    8    9 1    
    17    8  134 1    
    18    8  135 1    
    19    9   10 ar   
    20    9   14 ar   
    21   10   11 ar   
    22   10  136 1    
    23   11   12 ar   
    24   11  126 1    
    25   12   13 ar   
    26   12  137 1    
    27   13   14 ar   
    28   13   15 1    
    29   14  138 1    
    30   15   16 1    
    31   15  139 1    
    32   15  140 1    
    33   16   17 1    
    34   17   18 1    
    35   17  141 1    
    36   17  142 1    
    37   18   19 1    
    38   18   67 1    
    39   18  143 1    
    40   19   20 am   BACKBONE|DICT|INTERRES
    41   19  144 1    
    42   20   21 2    
    43   20   22 1    
    44   22   23 1    
    45   22   24 1    
    46   22  145 1    
    47   23  146 1    
    48   23  147 1    
    49   23  148 1    
    50   24   25 am   BACKBONE|DICT|INTERRES
    51   24  149 1    
    52   25   26 2    
    53   25   27 1    
    54   27   28 1    
    55   27   29 1    
    56   27  150 1    
    57   28  151 1    
    58   28  152 1    
    59   28  153 1    
    60   29   30 am   BACKBONE|DICT|INTERRES
    61   29  154 1    
    62   30   31 2    
    63   30   32 1    
    64   32   33 1    
    65   32   34 1    
    66   32  155 1    
    67   33  156 1    
    68   33  157 1    
    69   33  158 1    
    70   34   35 am   BACKBONE|DICT|INTERRES
    71   34  159 1    
    72   35   36 2    
    73   35   37 1    
    74   37   38 1    
    75   37   39 1    
    76   37  160 1    
    77   38  161 1    
    78   38  162 1    
    79   38  163 1    
    80   39   40 am   BACKBONE|DICT|INTERRES
    81   39  164 1    
    82   40   41 2    
    83   40   42 1    
    84   42   43 1    
    85   42   44 1    
    86   42  165 1    
    87   43  166 1    
    88   43  167 1    
    89   43  168 1    
    90   44   45 am   BACKBONE|DICT|INTERRES
    91   44  169 1    
    92   45   46 2    
    93   45   47 1    
    94   47   48 1    
    95   47   49 1    
    96   47  170 1    
    97   48  171 1    
    98   48  172 1    
    99   48  173 1    
   100   49   50 am   BACKBONE|DICT|INTERRES
   101   49  174 1    
   102   50   51 2    
   103   50   52 1    
   104   52   53 1    
   105   52   54 1    
   106   52  175 1    
   107   53  176 1    
   108   53  177 1    
   109   53  178 1    
   110   54   55 am   BACKBONE|DICT|INTERRES
   111   54  179 1    
   112   55   56 2    
   113   55   57 1    
   114   57   58 1    
   115   57   59 1    
   116   57  180 1    
   117   58  181 1    
   118   58  182 1    
   119   58  183 1    
   120   59   60 am   BACKBONE|DICT|INTERRES
   121   59  184 1    
   122   60   61 2    
   123   60   62 1    
   124   62   63 1    
   125   62   64 1    
   126   62  185 1    
   127   63  186 1    
   128   63  187 1    
   129   63  188 1    
   130   64   65 am   BACKBONE|DICT|INTERRES
   131   64  189 1    
   132   65   66 2    
   133   67   68 2    
   134   67   69 am   BACKBONE|DICT|INTERRES
   135   69   70 1    
   136   69  190 1    
   137   70   71 1    
   138   70   72 1    
   139   70  191 1    
   140   71  192 1    
   141   71  193 1    
   142   71  194 1    
   143   72   73 2    
   144   72   74 am   BACKBONE|DICT|INTERRES
   145   74   75 1    
   146   74  195 1    
   147   75   76 1    
   148   75   77 1    
   149   75  196 1    
   150   76  197 1    
   151   76  198 1    
   152   76  199 1    
   153   77   78 2    
   154   77   79 am   BACKBONE|DICT|INTERRES
   155   79   80 1    
   156   79  200 1    
   157   80   81 1    
   158   80   82 1    
   159   80  201 1    
   160   81  202 1    
   161   81  203 1    
   162   81  204 1    
   163   82   83 2    
   164   82   84 am   BACKBONE|DICT|INTERRES
   165   84   85 1    
   166   84  205 1    
   167   85   86 1    
   168   85   87 1    
   169   85  206 1    
   170   86  207 1    
   171   86  208 1    
   172   86  209 1    
   173   87   88 2    
   174   87   89 am   BACKBONE|DICT|INTERRES
   175   89   90 1    
   176   89  210 1    
   177   90   91 1    
   178   90   92 1    
   179   90  211 1    
   180   91  212 1    
   181   91  213 1    
   182   91  214 1    
   183   92   93 2    
   184   92   94 am   BACKBONE|DICT|INTERRES
   185   94   95 1    
   186   94  215 1    
   187   95   96 1    
   188   95   97 1    
   189   95  216 1    
   190   96  217 1    
   191   96  218 1    
   192   96  219 1    
   193   97   98 2    
   194   97   99 am   BACKBONE|DICT|INTERRES
   195   99  100 1    
   196   99  220 1    
   197  100  101 1    
   198  100  102 1    
   199  100  221 1    
   200  101  222 1    
   201  101  223 1    
   202  101  224 1    
   203  102  103 2    
   204  102  104 am   BACKBONE|DICT|INTERRES
   205  104  105 1    
   206  104  225 1    
   207  105  106 1    
   208  105  107 1    
   209  105  226 1    
   210  106  227 1    
   211  106  228 1    
   212  106  229 1    
   213  107  108 2    
   214  107  109 am   BACKBONE|DICT|INTERRES
   215  109  110 1    
   216  109  230 1    
   217  110  111 1    
   218  110  112 1    
   219  110  231 1    
   220  111  232 1    
   221  111  233 1    
   222  111  234 1    
   223  112  113 2    
   224  112  114 am   BACKBONE|DICT|INTERRES
   225  114  115 1    
   226  114  235 1    
   227  115  116 1    
   228  115  117 1    
   229  115  236 1    
   230  116  237 1    
   231  116  238 1    
   232  116  239 1    
   233  117  118 2    
   234  117  119 am   BACKBONE|DICT|INTERRES
   235  119  120 1    
   236  119  240 1    
   237  120  121 1    
   238  120  124 1    
   239  120  241 1    
   240  121  122 am   BACKBONE|DICT|INTERRES
   241  121  123 2    
   242  122  242 1    
   243  122  243 1    
   244  124  125 1    
   245  124  244 1    
   246  124  245 1    
   247  125  126 1    
   248  126  246 1    
   249  126  247 1    
@<TRIPOS>SUBSTRUCTURE
     1 UNK         1 GROUP             0       ****    0 ROOT    
