@<TRIPOS>MOLECULE
3R540
247   249    1
SMALL
USER_CHARGES


@<TRIPOS>ATOM
      1 CA         -5.2304  -17.4031  -45.4554 C.3       0 UNK        -0.1800 
      2 C          -3.8577  -16.7489  -45.5056 C.2       0 UNK         0.5000 
      3 O          -3.6665  -15.6849  -44.9192 O.2       0 UNK        -0.5000 
      4 N          -2.8947  -17.3842  -46.1838 N.am      1 UNK        -0.5000 
      5 CA         -1.5128  -16.9120  -46.3352 C.3       1 UNK         0.1400 
      6 C6         -0.7324  -17.7840  -47.3479 C.3       23 UNK        -0.0398 
      7 S7          0.7719  -16.9681  -47.9786 S.3       23 UNK        -0.2404 
      8 C8          0.7044  -17.3186  -49.7693 C.3       23 UNK        -0.0205 
      9 C9          0.9194  -18.7767  -50.1845 C.ar      23 UNK        -0.0193 
     10 C10         0.6193  -19.1304  -51.5008 C.ar      23 UNK        -0.1150 
     11 C11         0.7849  -20.4403  -51.9507 C.ar      23 UNK        -0.0193 
     12 C12         1.2262  -21.4197  -51.0575 C.ar      23 UNK        -0.1150 
     13 C13         1.5446  -21.0951  -49.7334 C.ar      23 UNK        -0.0193 
     14 C14         1.4199  -19.7600  -49.3198 C.ar      23 UNK        -0.1150 
     15 C15         1.9935  -22.2346  -48.8077 C.3       23 UNK        -0.0205 
     16 S16         2.6078  -21.7895  -47.1401 S.3       23 UNK        -0.2404 
     17 C17         1.0887  -21.2300  -46.2991 C.3       23 UNK        -0.0398 
     18 CA          0.2976  -22.3488  -45.5841 C.3       11 UNK         0.1400 
     19 N           1.0833  -22.9957  -44.5345 N.am      11 UNK        -0.5000 
     20 C           1.0928  -24.3084  -44.2676 C.2       10 UNK         0.5000 
     21 O           0.4186  -25.1332  -44.8847 O.2       10 UNK        -0.5000 
     22 CA          1.9810  -24.7814  -43.0964 C.3       10 UNK         0.1400 
     23 CB          3.3289  -25.2964  -43.6234 C.3       10 UNK        -0.1800 
     24 N           2.2316  -23.7410  -42.0962 N.am      10 UNK        -0.5000 
     25 C           1.2888  -23.1489  -41.3504 C.2       9 UNK         0.5000 
     26 O           0.1082  -23.4966  -41.3527 O.2       9 UNK        -0.5000 
     27 CA          1.7194  -21.9387  -40.4964 C.3       9 UNK         0.1400 
     28 CB          1.9097  -22.3611  -39.0320 C.3       9 UNK        -0.1800 
     29 N           2.9330  -21.2469  -40.9532 N.am      9 UNK        -0.5000 
     30 C           3.1367  -20.7091  -42.1649 C.2       8 UNK         0.5000 
     31 O           2.3297  -20.7880  -43.0938 O.2       8 UNK        -0.5000 
     32 CA          4.5070  -20.0352  -42.3763 C.3       8 UNK         0.1400 
     33 CB          5.6133  -21.0992  -42.4739 C.3       8 UNK        -0.1800 
     34 N           4.5594  -19.2110  -43.5840 N.am      8 UNK        -0.5000 
     35 C           3.9071  -18.0573  -43.7680 C.2       7 UNK         0.5000 
     36 O           3.2111  -17.5121  -42.9062 O.2       7 UNK        -0.5000 
     37 CA          4.0856  -17.3997  -45.1464 C.3       7 UNK         0.1400 
     38 CB          3.5829  -18.3050  -46.2835 C.3       7 UNK        -0.1800 
     39 N           3.3680  -16.1312  -45.1707 N.am      7 UNK        -0.5000 
     40 C           3.6524  -15.0781  -45.9448 C.2       6 UNK         0.5000 
     41 O           4.5538  -15.0730  -46.7844 O.2       6 UNK        -0.5000 
     42 CA          2.8116  -13.8035  -45.7345 C.3       6 UNK         0.1400 
     43 CB          1.8312  -13.5746  -46.8951 C.3       6 UNK        -0.1800 
     44 N           2.0519  -13.8396  -44.4866 N.am      6 UNK        -0.5000 
     45 C           2.5072  -13.4253  -43.2977 C.2       5 UNK         0.5000 
     46 O           3.6302  -12.9471  -43.1279 O.2       5 UNK        -0.5000 
     47 CA          1.5405  -13.5820  -42.1051 C.3       5 UNK         0.1400 
     48 CB          1.8569  -12.6265  -40.9360 C.3       5 UNK        -0.1800 
     49 N           0.1309  -13.4852  -42.4985 N.am      5 UNK        -0.5000 
     50 C          -0.5089  -12.4331  -43.0340 C.2       4 UNK         0.5000 
     51 O           0.0134  -11.3338  -43.2220 O.2       4 UNK        -0.5000 
     52 CA         -1.9782  -12.6464  -43.4576 C.3       4 UNK         0.1400 
     53 CB         -2.0914  -12.6618  -44.9908 C.3       4 UNK        -0.1800 
     54 N          -2.5577  -13.8861  -42.9386 N.am      4 UNK        -0.5000 
     55 C          -2.9011  -14.1080  -41.6629 C.2       3 UNK         0.5000 
     56 O          -2.8698  -13.2468  -40.7836 O.2       3 UNK        -0.5000 
     57 CA         -3.2865  -15.5548  -41.3040 C.3       3 UNK         0.1400 
     58 CB         -4.7797  -15.8081  -41.5614 C.3       3 UNK        -0.1800 
     59 N          -2.4841  -16.5399  -42.0369 N.am      3 UNK        -0.5000 
     60 C          -1.1782  -16.7637  -41.8251 C.2       2 UNK         0.5000 
     61 O          -0.5159  -16.1715  -40.9744 O.2       2 UNK        -0.5000 
     62 CA         -0.4890  -17.8031  -42.7275 C.3       2 UNK         0.1400 
     63 CB         -0.6319  -19.2014  -42.1156 C.3       2 UNK        -0.1800 
     64 N          -1.0098  -17.7987  -44.0962 N.am      2 UNK        -0.5000 
     65 C          -0.7827  -16.8103  -44.9752 C.2       1 UNK         0.5000 
     66 O          -0.0805  -15.8274  -44.7263 O.2       1 UNK        -0.5000 
     67 C          -1.0482  -21.8066  -45.0501 C.2       11 UNK         0.5000 
     68 O          -1.6488  -20.9533  -45.7019 O.2       11 UNK        -0.5000 
     69 N          -1.5365  -22.2930  -43.8988 N.am      12 UNK        -0.5000 
     70 CA         -2.8428  -21.9111  -43.3435 C.3       12 UNK         0.1400 
     71 CB         -2.9771  -22.4669  -41.9189 C.3       12 UNK        -0.1800 
     72 C          -4.0412  -22.3380  -44.2159 C.2       12 UNK         0.5000 
     73 O          -5.0907  -21.6970  -44.1610 O.2       12 UNK        -0.5000 
     74 N          -3.8538  -23.3933  -45.0181 N.am      13 UNK        -0.5000 
     75 CA         -4.8234  -23.8849  -45.9966 C.3       13 UNK         0.1400 
     76 CB         -4.6257  -25.4024  -46.1481 C.3       13 UNK        -0.1800 
     77 C          -4.7100  -23.1869  -47.3693 C.2       13 UNK         0.5000 
     78 O          -5.5646  -23.4240  -48.2236 O.2       13 UNK        -0.5000 
     79 N          -3.6666  -22.3717  -47.5735 N.am      14 UNK        -0.5000 
     80 CA         -3.3709  -21.6825  -48.8273 C.3       14 UNK         0.1400 
     81 CB         -1.8778  -21.8677  -49.1414 C.3       14 UNK        -0.1800 
     82 C          -3.6964  -20.1876  -48.7102 C.2       14 UNK         0.5000 
     83 O          -3.7194  -19.6435  -47.6056 O.2       14 UNK        -0.5000 
     84 N          -3.8971  -19.5344  -49.8555 N.am      15 UNK        -0.5000 
     85 CA         -4.1360  -18.1028  -49.9890 C.3       15 UNK         0.1400 
     86 CB         -5.6122  -17.7903  -49.6829 C.3       15 UNK        -0.1800 
     87 C          -3.7566  -17.6751  -51.4139 C.2       15 UNK         0.5000 
     88 O          -3.6067  -18.5335  -52.2855 O.2       15 UNK        -0.5000 
     89 N          -3.6347  -16.3568  -51.6234 N.am      16 UNK        -0.5000 
     90 CA         -3.3045  -15.6978  -52.8925 C.3       16 UNK         0.1400 
     91 CB         -4.4882  -15.8069  -53.8808 C.3       16 UNK        -0.1800 
     92 C          -1.9505  -16.1754  -53.4645 C.2       16 UNK         0.5000 
     93 O          -0.9682  -16.2026  -52.7214 O.2       16 UNK        -0.5000 
     94 N          -1.9118  -16.5179  -54.7574 N.am      17 UNK        -0.5000 
     95 CA         -0.7415  -17.0264  -55.4702 C.3       17 UNK         0.1400 
     96 CB          0.2706  -15.8909  -55.7340 C.3       17 UNK        -0.1800 
     97 C          -1.1944  -17.7395  -56.7577 C.2       17 UNK         0.5000 
     98 O          -0.6395  -17.4946  -57.8306 O.2       17 UNK        -0.5000 
     99 N          -2.2203  -18.5895  -56.6387 N.am      18 UNK        -0.5000 
    100 CA        -2.7805  -19.3894  -57.7241 C.3       18 UNK         0.1400 
    101 CB        -3.9832  -18.6564  -58.3397 C.3       18 UNK        -0.1800 
    102 C         -3.2059  -20.7399  -57.1428 C.2       18 UNK         0.5000 
    103 O         -3.7260  -20.7700  -56.0269 O.2       18 UNK        -0.5000 
    104 N         -3.0044  -21.8256  -57.9013 N.am      19 UNK        -0.5000 
    105 CA        -3.1986  -23.2166  -57.4686 C.3       19 UNK         0.1400 
    106 CB        -2.8737  -24.1583  -58.6377 C.3       19 UNK        -0.1800 
    107 C         -4.5934  -23.5348  -56.8952 C.2       19 UNK         0.5000 
    108 O         -4.6973  -24.3202  -55.9524 O.2       19 UNK        -0.5000 
    109 N         -5.6300  -22.8853  -57.4411 N.am      20 UNK        -0.5000 
    110 CA        -7.0171  -22.9907  -56.9839 C.3       20 UNK         0.1400 
    111 CB        -7.9305  -22.3003  -58.0084 C.3       20 UNK        -0.1800 
    112 C         -7.2543  -22.4093  -55.5744 C.2       20 UNK         0.5000 
    113 O         -8.1862  -22.8439  -54.8963 O.2       20 UNK        -0.5000 
    114 N         -6.4192  -21.4468  -55.1629 N.am      21 UNK        -0.5000 
    115 CA        -6.4507  -20.8197  -53.8438 C.3       21 UNK         0.1400 
    116 CB        -6.2319  -19.3097  -54.0089 C.3       21 UNK        -0.1800 
    117 C         -5.3955  -21.4329  -52.9061 C.2       21 UNK         0.5000 
    118 O         -5.6629  -21.5702  -51.7123 O.2       21 UNK        -0.5000 
    119 N         -4.2269  -21.8005  -53.4497 N.am      22 UNK        -0.5000 
    120 CA        -3.1403  -22.4660  -52.7147 C.3       22 UNK         0.1400 
    121 C         -3.4610  -23.9327  -52.3103 C.2       22 UNK         0.5000 
    122 N         -4.2426  -24.6764  -53.0840 N.am      22 UNK        -0.7600 
    123 O         -2.9905  -24.4035  -51.2798 O.2       22 UNK        -0.5000 
    124 C124       -1.7855  -22.4069  -53.4620 C.3       23 UNK        -0.0398 
    125 S125       -1.2401  -20.7072  -53.8377 S.3       23 UNK        -0.2404 
    126 C126        0.5273  -20.7699  -53.4135 C.3       23 UNK        -0.0205 
    127 H127       -5.9272  -16.8592  -46.0928 H         1 UNK         0.0600 
    128 H128       -5.6168  -17.3910  -44.4365 H         1 UNK         0.0600 
    129 H129       -5.1983  -18.4404  -45.7882 H         1 UNK         0.0600 
    130 H130       -3.1240  -18.2662  -46.6446 H         1 UNK         0.3000 
    131 H131       -1.5770  -15.9000  -46.7410 H         1 UNK         0.0600 
    132 H132       -1.3689  -18.0226  -48.2001 H         1 UNK         0.0800 
    133 H133       -0.4644  -18.7407  -46.9040 H         1 UNK         0.0800 
    134 H134       -0.2561  -16.9703  -50.1525 H         1 UNK         0.0800 
    135 H135        1.4661  -16.7116  -50.2601 H         1 UNK         0.0800 
    136 H136        0.2624  -18.3785  -52.1897 H         1 UNK         0.1150 
    137 H137        1.3361  -22.4398  -51.3980 H         1 UNK         0.1150 
    138 H138        1.7034  -19.4805  -48.3195 H         1 UNK         0.1150 
    139 H139        1.1664  -22.9367  -48.6946 H         1 UNK         0.0800 
    140 H140        2.7912  -22.7851  -49.3082 H         1 UNK         0.0800 
    141 H141        0.4577  -20.7556  -47.0439 H         1 UNK         0.0800 
    142 H142        1.3588  -20.4497  -45.5867 H         1 UNK         0.0800 
    143 H143        0.0357  -23.0884  -46.3433 H         1 UNK         0.0600 
    144 H144        1.6423  -22.3672  -43.9634 H         1 UNK         0.3000 
    145 H145        1.4640  -25.6066  -42.6024 H         1 UNK         0.0600 
    146 H146        3.1841  -26.0946  -44.3527 H         1 UNK         0.0600 
    147 H147        3.8978  -24.5043  -44.1124 H         1 UNK         0.0600 
    148 H148        3.9401  -25.7018  -42.8168 H         1 UNK         0.0600 
    149 H149        3.1759  -23.3915  -42.0330 H         1 UNK         0.3000 
    150 H150        0.9005  -21.2204  -40.5354 H         1 UNK         0.0600 
    151 H151        2.7425  -23.0564  -38.9195 H         1 UNK         0.0600 
    152 H152        1.0160  -22.8544  -38.6469 H         1 UNK         0.0600 
    153 H153        2.1018  -21.4988  -38.3933 H         1 UNK         0.0600 
    154 H154        3.6642  -21.1542  -40.2628 H         1 UNK         0.3000 
    155 H155        4.7075  -19.3930  -41.5162 H         1 UNK         0.0600 
    156 H156        5.4491  -21.7734  -43.3159 H         1 UNK         0.0600 
    157 H157        5.6617  -21.7085  -41.5707 H         1 UNK         0.0600 
    158 H158        6.5932  -20.6384  -42.6005 H         1 UNK         0.0600 
    159 H159        5.0822  -19.5967  -44.3560 H         1 UNK         0.3000 
    160 H160        5.1521  -17.2083  -45.2814 H         1 UNK         0.0600 
    161 H161        2.5261  -18.5365  -46.1589 H         1 UNK         0.0600 
    162 H162        4.1279  -19.2482  -46.3174 H         1 UNK         0.0600 
    163 H163        3.7080  -17.8298  -47.2565 H         1 UNK         0.0600 
    164 H164        2.6425  -16.0462  -44.4701 H         1 UNK         0.3000 
    165 H165        3.5062  -12.9612  -45.7148 H         1 UNK         0.0600 
    166 H166        1.0280  -14.3103  -46.8932 H         1 UNK         0.0600 
    167 H167        2.3357  -13.6350  -47.8602 H         1 UNK         0.0600 
    168 H168        1.3724  -12.5880  -46.8280 H         1 UNK         0.0600 
    169 H169        1.1407  -14.2876  -44.5305 H         1 UNK         0.3000 
    170 H170        1.6817  -14.6009  -41.7417 H         1 UNK         0.0600 
    171 H171        2.8572  -12.8093  -40.5420 H         1 UNK         0.0600 
    172 H172        1.8132  -11.5810  -41.2419 H         1 UNK         0.0600 
    173 H173        1.1552  -12.7661  -40.1136 H         1 UNK         0.0600 
    174 H174       -0.3994  -14.3388  -42.3884 H         1 UNK         0.3000 
    175 H175       -2.5589  -11.8045  -43.0755 H         1 UNK         0.0600 
    176 H176       -3.1292  -12.7645  -45.3088 H         1 UNK         0.0600 
    177 H177       -1.7087  -11.7365  -45.4231 H         1 UNK         0.0600 
    178 H178       -1.5257  -13.4865  -45.4264 H         1 UNK         0.0600 
    179 H179       -2.7015  -14.6327  -43.6135 H         1 UNK         0.3000 
    180 H180       -3.1000  -15.6935  -40.2369 H         1 UNK         0.0600 
    181 H181       -5.0424  -15.6616  -42.6089 H         1 UNK         0.0600 
    182 H182       -5.3950  -15.1260  -40.9735 H         1 UNK         0.0600 
    183 H183       -5.0627  -16.8231  -41.2820 H         1 UNK         0.0600 
    184 H184       -2.9461  -17.0342  -42.7850 H         1 UNK         0.3000 
    185 H185        0.5740  -17.5601  -42.7695 H         1 UNK         0.0600 
    186 H186       -0.1824  -19.9642  -42.7497 H         1 UNK         0.0600 
    187 H187       -0.1302  -19.2419  -41.1489 H         1 UNK         0.0600 
    188 H188       -1.6754  -19.4637  -41.9467 H         1 UNK         0.0600 
    189 H189       -1.5944  -18.5735  -44.3773 H         1 UNK         0.3000 
    190 H190       -0.9920  -22.9630  -43.3710 H         1 UNK         0.3000 
    191 H191       -2.8804  -20.8226  -43.2892 H         1 UNK         0.0600 
    192 H192       -2.8786  -23.5528  -41.9001 H         1 UNK         0.0600 
    193 H193       -3.9472  -22.2155  -41.4881 H         1 UNK         0.0600 
    194 H194       -2.2149  -22.0487  -41.2614 H         1 UNK         0.0600 
    195 H195       -2.9617  -23.8651  -44.9888 H         1 UNK         0.3000 
    196 H196       -5.8353  -23.7112  -45.6243 H         1 UNK         0.0600 
    197 H197       -5.3558  -25.8266  -46.8388 H         1 UNK         0.0600 
    198 H198       -4.7502  -25.9138  -45.1934 H         1 UNK         0.0600 
    199 H199       -3.6333  -25.6425  -46.5317 H         1 UNK         0.0600 
    200 H200       -3.0888  -22.1011  -46.7873 H         1 UNK         0.3000 
    201 H201       -3.9596  -22.1055  -49.6425 H         1 UNK         0.0600 
    202 H202       -1.5933  -21.3425  -50.0534 H         1 UNK         0.0600 
    203 H203       -1.2518  -21.4767  -48.3423 H         1 UNK         0.0600 
    204 H204       -1.6287  -22.9198  -49.2787 H         1 UNK         0.0600 
    205 H205       -3.8433  -20.0190  -50.7441 H         1 UNK         0.3000 
    206 H206       -3.4947  -17.5618  -49.2906 H         1 UNK         0.0600 
    207 H207       -6.2808  -18.3261  -50.3580 H         1 UNK         0.0600 
    208 H208       -5.8218  -16.7253  -49.7873 H         1 UNK         0.0600 
    209 H209       -5.8733  -18.0705  -48.6622 H         1 UNK         0.0600 
    210 H210       -3.7512  -15.7342  -50.8369 H         1 UNK         0.3000 
    211 H211       -3.1720  -14.6405  -52.6589 H         1 UNK         0.0600 
    212 H212       -4.6476  -16.8309  -54.2165 H         1 UNK         0.0600 
    213 H213       -4.3266  -15.1866  -54.7631 H         1 UNK         0.0600 
    214 H214       -5.4144  -15.4651  -53.4187 H         1 UNK         0.0600 
    215 H215       -2.7641  -16.4713  -55.2986 H         1 UNK         0.3000 
    216 H216       -0.2577  -17.7828  -54.8486 H         1 UNK         0.0600 
    217 H217        1.1490  -16.2629  -56.2627 H         1 UNK         0.0600 
    218 H218        0.6253  -15.4451  -54.8050 H         1 UNK         0.0600 
    219 H219       -0.1688  -15.0974  -56.3394 H         1 UNK         0.0600 
    220 H220       -2.5834  -18.8160  -55.7200 H         1 UNK         0.3000 
    221 H221       -2.0253  -19.5633  -58.4937 H         1 UNK         0.0600 
    222 H222       -4.7627  -18.4711  -57.5992 H         1 UNK         0.0600 
    223 H223       -3.6855  -17.6954  -58.7594 H         1 UNK         0.0600 
    224 H224       -4.4269  -19.2406  -59.1468 H         1 UNK         0.0600 
    225 H225       -2.5986  -21.7037  -58.8180 H         1 UNK         0.3000 
    226 H226       -2.4757  -23.4076  -56.6739 H         1 UNK         0.0600 
    227 H227       -1.8454  -24.0288  -58.9757 H         1 UNK         0.0600 
    228 H228       -2.9871  -25.2024  -58.3427 H         1 UNK         0.0600 
    229 H229       -3.5326  -23.9842  -59.4893 H         1 UNK         0.0600 
    230 H230       -5.4483  -22.2489  -58.2032 H         1 UNK         0.3000 
    231 H231       -7.2804  -24.0500  -56.9495 H         1 UNK         0.0600 
    232 H232       -7.6982  -21.2387  -58.1028 H         1 UNK         0.0600 
    233 H233       -8.9782  -22.3823  -57.7159 H         1 UNK         0.0600 
    234 H234       -7.8335  -22.7554  -58.9942 H         1 UNK         0.0600 
    235 H235       -5.6391  -21.1871  -55.7565 H         1 UNK         0.3000 
    236 H236       -7.4294  -20.9642  -53.3814 H         1 UNK         0.0600 
    237 H237       -6.2706  -18.8019  -53.0447 H         1 UNK         0.0600 
    238 H238       -5.2613  -19.0961  -54.4572 H         1 UNK         0.0600 
    239 H239       -6.9992  -18.8653  -54.6426 H         1 UNK         0.0600 
    240 H240       -4.0386  -21.5623  -54.4196 H         1 UNK         0.3000 
    241 H241       -3.0098  -21.9090  -51.7887 H         1 UNK         0.0600 
    242 H242       -4.4456  -25.6237  -52.8087 H         1 UNK         0.3800 
    243 H243       -4.5639  -24.3423  -53.9870 H         1 UNK         0.3800 
    244 H244       -1.8440  -22.9597  -54.4001 H         1 UNK         0.0800 
    245 H245       -1.0134  -22.8971  -52.8662 H         1 UNK         0.0800 
    246 H246        0.9429  -21.7430  -53.6791 H         1 UNK         0.0800 
    247 H247        1.0542  -20.0417  -54.0316 H         1 UNK         0.0800 
@<TRIPOS>BOND
     1    1    2 1    
     2    1  127 1    
     3    1  128 1    
     4    1  129 1    
     5    2    3 2    
     6    2    4 am   BACKBONE|DICT|INTERRES
     7    4    5 1    
     8    4  130 1    
     9    5    6 1    
    10    5   65 1    
    11    5  131 1    
    12    6    7 1    
    13    6  132 1    
    14    6  133 1    
    15    7    8 1    
    16    8    9 1    
    17    8  134 1    
    18    8  135 1    
    19    9   10 ar   
    20    9   14 ar   
    21   10   11 ar   
    22   10  136 1    
    23   11   12 ar   
    24   11  126 1    
    25   12   13 ar   
    26   12  137 1    
    27   13   14 ar   
    28   13   15 1    
    29   14  138 1    
    30   15   16 1    
    31   15  139 1    
    32   15  140 1    
    33   16   17 1    
    34   17   18 1    
    35   17  141 1    
    36   17  142 1    
    37   18   19 1    
    38   18   67 1    
    39   18  143 1    
    40   19   20 am   BACKBONE|DICT|INTERRES
    41   19  144 1    
    42   20   21 2    
    43   20   22 1    
    44   22   23 1    
    45   22   24 1    
    46   22  145 1    
    47   23  146 1    
    48   23  147 1    
    49   23  148 1    
    50   24   25 am   BACKBONE|DICT|INTERRES
    51   24  149 1    
    52   25   26 2    
    53   25   27 1    
    54   27   28 1    
    55   27   29 1    
    56   27  150 1    
    57   28  151 1    
    58   28  152 1    
    59   28  153 1    
    60   29   30 am   BACKBONE|DICT|INTERRES
    61   29  154 1    
    62   30   31 2    
    63   30   32 1    
    64   32   33 1    
    65   32   34 1    
    66   32  155 1    
    67   33  156 1    
    68   33  157 1    
    69   33  158 1    
    70   34   35 am   BACKBONE|DICT|INTERRES
    71   34  159 1    
    72   35   36 2    
    73   35   37 1    
    74   37   38 1    
    75   37   39 1    
    76   37  160 1    
    77   38  161 1    
    78   38  162 1    
    79   38  163 1    
    80   39   40 am   BACKBONE|DICT|INTERRES
    81   39  164 1    
    82   40   41 2    
    83   40   42 1    
    84   42   43 1    
    85   42   44 1    
    86   42  165 1    
    87   43  166 1    
    88   43  167 1    
    89   43  168 1    
    90   44   45 am   BACKBONE|DICT|INTERRES
    91   44  169 1    
    92   45   46 2    
    93   45   47 1    
    94   47   48 1    
    95   47   49 1    
    96   47  170 1    
    97   48  171 1    
    98   48  172 1    
    99   48  173 1    
   100   49   50 am   BACKBONE|DICT|INTERRES
   101   49  174 1    
   102   50   51 2    
   103   50   52 1    
   104   52   53 1    
   105   52   54 1    
   106   52  175 1    
   107   53  176 1    
   108   53  177 1    
   109   53  178 1    
   110   54   55 am   BACKBONE|DICT|INTERRES
   111   54  179 1    
   112   55   56 2    
   113   55   57 1    
   114   57   58 1    
   115   57   59 1    
   116   57  180 1    
   117   58  181 1    
   118   58  182 1    
   119   58  183 1    
   120   59   60 am   BACKBONE|DICT|INTERRES
   121   59  184 1    
   122   60   61 2    
   123   60   62 1    
   124   62   63 1    
   125   62   64 1    
   126   62  185 1    
   127   63  186 1    
   128   63  187 1    
   129   63  188 1    
   130   64   65 am   BACKBONE|DICT|INTERRES
   131   64  189 1    
   132   65   66 2    
   133   67   68 2    
   134   67   69 am   BACKBONE|DICT|INTERRES
   135   69   70 1    
   136   69  190 1    
   137   70   71 1    
   138   70   72 1    
   139   70  191 1    
   140   71  192 1    
   141   71  193 1    
   142   71  194 1    
   143   72   73 2    
   144   72   74 am   BACKBONE|DICT|INTERRES
   145   74   75 1    
   146   74  195 1    
   147   75   76 1    
   148   75   77 1    
   149   75  196 1    
   150   76  197 1    
   151   76  198 1    
   152   76  199 1    
   153   77   78 2    
   154   77   79 am   BACKBONE|DICT|INTERRES
   155   79   80 1    
   156   79  200 1    
   157   80   81 1    
   158   80   82 1    
   159   80  201 1    
   160   81  202 1    
   161   81  203 1    
   162   81  204 1    
   163   82   83 2    
   164   82   84 am   BACKBONE|DICT|INTERRES
   165   84   85 1    
   166   84  205 1    
   167   85   86 1    
   168   85   87 1    
   169   85  206 1    
   170   86  207 1    
   171   86  208 1    
   172   86  209 1    
   173   87   88 2    
   174   87   89 am   BACKBONE|DICT|INTERRES
   175   89   90 1    
   176   89  210 1    
   177   90   91 1    
   178   90   92 1    
   179   90  211 1    
   180   91  212 1    
   181   91  213 1    
   182   91  214 1    
   183   92   93 2    
   184   92   94 am   BACKBONE|DICT|INTERRES
   185   94   95 1    
   186   94  215 1    
   187   95   96 1    
   188   95   97 1    
   189   95  216 1    
   190   96  217 1    
   191   96  218 1    
   192   96  219 1    
   193   97   98 2    
   194   97   99 am   BACKBONE|DICT|INTERRES
   195   99  100 1    
   196   99  220 1    
   197  100  101 1    
   198  100  102 1    
   199  100  221 1    
   200  101  222 1    
   201  101  223 1    
   202  101  224 1    
   203  102  103 2    
   204  102  104 am   BACKBONE|DICT|INTERRES
   205  104  105 1    
   206  104  225 1    
   207  105  106 1    
   208  105  107 1    
   209  105  226 1    
   210  106  227 1    
   211  106  228 1    
   212  106  229 1    
   213  107  108 2    
   214  107  109 am   BACKBONE|DICT|INTERRES
   215  109  110 1    
   216  109  230 1    
   217  110  111 1    
   218  110  112 1    
   219  110  231 1    
   220  111  232 1    
   221  111  233 1    
   222  111  234 1    
   223  112  113 2    
   224  112  114 am   BACKBONE|DICT|INTERRES
   225  114  115 1    
   226  114  235 1    
   227  115  116 1    
   228  115  117 1    
   229  115  236 1    
   230  116  237 1    
   231  116  238 1    
   232  116  239 1    
   233  117  118 2    
   234  117  119 am   BACKBONE|DICT|INTERRES
   235  119  120 1    
   236  119  240 1    
   237  120  121 1    
   238  120  124 1    
   239  120  241 1    
   240  121  122 am   BACKBONE|DICT|INTERRES
   241  121  123 2    
   242  122  242 1    
   243  122  243 1    
   244  124  125 1    
   245  124  244 1    
   246  124  245 1    
   247  125  126 1    
   248  126  246 1    
   249  126  247 1    
@<TRIPOS>SUBSTRUCTURE
     1 UNK         1 GROUP             0       ****    0 ROOT    
