@<TRIPOS>MOLECULE
3R540
247   249    1
SMALL
USER_CHARGES


@<TRIPOS>ATOM
      1 CA          0.7424  -11.4329  -50.5216 C.3       0 UNK        -0.1800 
      2 C           1.0219  -12.8491  -50.0398 C.2       0 UNK         0.5000 
      3 O           2.0098  -13.4557  -50.4557 O.2       0 UNK        -0.5000 
      4 N           0.1664  -13.3748  -49.1546 N.am      1 UNK        -0.5000 
      5 CA          0.2388  -14.7242  -48.5804 C.3       1 UNK         0.1400 
      6 C6         -1.1448  -15.1932  -48.0558 C.3       23 UNK        -0.0398 
      7 S7         -2.3686  -15.4172  -49.3912 S.3       23 UNK        -0.2404 
      8 C8         -2.4012  -17.2319  -49.5535 C.3       23 UNK        -0.0205 
      9 C9         -1.1582  -17.7604  -50.2539 C.ar      23 UNK        -0.0193 
     10 C10        -1.1449  -17.9074  -51.6434 C.ar      23 UNK        -0.1150 
     11 C11        -0.0250  -18.4285  -52.2951 C.ar      23 UNK        -0.0193 
     12 C12         1.1052  -18.7708  -51.5472 C.ar      23 UNK        -0.1150 
     13 C13         1.1145  -18.6073  -50.1585 C.ar      23 UNK        -0.0193 
     14 C14        -0.0254  -18.1159  -49.5166 C.ar      23 UNK        -0.1150 
     15 C15         2.3627  -18.9490  -49.3606 C.3       23 UNK        -0.0205 
     16 S16         2.3245  -20.6600  -48.7474 S.3       23 UNK        -0.2404 
     17 C17         1.5422  -20.4296  -47.1161 C.3       23 UNK        -0.0398 
     18 CA          1.0188  -21.7514  -46.5082 C.3       11 UNK         0.1400 
     19 N           0.9664  -21.6900  -45.0452 N.am      11 UNK        -0.5000 
     20 C           0.8071  -22.7455  -44.2348 C.2       10 UNK         0.5000 
     21 O           0.6441  -23.8982  -44.6370 O.2       10 UNK        -0.5000 
     22 CA          0.8088  -22.4572  -42.7223 C.3       10 UNK         0.1400 
     23 CB          2.2337  -22.1940  -42.2112 C.3       10 UNK        -0.1800 
     24 N          -0.0522  -21.3256  -42.3816 N.am      10 UNK        -0.5000 
     25 C          -1.3908  -21.3628  -42.4294 C.2       9 UNK         0.5000 
     26 O          -2.0358  -22.3806  -42.6815 O.2       9 UNK        -0.5000 
     27 CA         -2.1391  -20.0410  -42.1754 C.3       9 UNK         0.1400 
     28 CB         -2.3768  -19.8346  -40.6721 C.3       9 UNK        -0.1800 
     29 N          -1.4559  -18.8689  -42.7250 N.am      9 UNK        -0.5000 
     30 C          -1.2135  -18.6629  -44.0279 C.2       8 UNK         0.5000 
     31 O          -1.5411  -19.4426  -44.9207 O.2       8 UNK        -0.5000 
     32 CA         -0.4233  -17.3942  -44.3886 C.3       8 UNK         0.1400 
     33 CB         -1.3261  -16.1538  -44.2783 C.3       8 UNK        -0.1800 
     34 N           0.7669  -17.2275  -43.5533 N.am      8 UNK        -0.5000 
     35 C           1.7725  -18.1105  -43.4644 C.2       7 UNK         0.5000 
     36 O           1.8300  -19.1505  -44.1176 O.2       7 UNK        -0.5000 
     37 CA          2.8623  -17.8266  -42.4185 C.3       7 UNK         0.1400 
     38 CB          3.9024  -16.8284  -42.9453 C.3       7 UNK        -0.1800 
     39 N           2.2885  -17.3404  -41.1656 N.am      7 UNK        -0.5000 
     40 C           1.5667  -18.0974  -40.3266 C.2       6 UNK         0.5000 
     41 O           1.3511  -19.2973  -40.4993 O.2       6 UNK        -0.5000 
     42 CA          0.9503  -17.3790  -39.1127 C.3       6 UNK         0.1400 
     43 CB          1.9677  -17.2797  -37.9664 C.3       6 UNK        -0.1800 
     44 N           0.4635  -16.0397  -39.4481 N.am      6 UNK        -0.5000 
     45 C          -0.5796  -15.7985  -40.2547 C.2       5 UNK         0.5000 
     46 O          -1.2688  -16.6832  -40.7616 O.2       5 UNK        -0.5000 
     47 CA         -0.8717  -14.3227  -40.5846 C.3       5 UNK         0.1400 
     48 CB         -1.7779  -13.6989  -39.5129 C.3       5 UNK        -0.1800 
     49 N           0.3395  -13.5088  -40.7333 N.am      5 UNK        -0.5000 
     50 C           1.2631  -13.6946  -41.6855 C.2       4 UNK         0.5000 
     51 O           1.2152  -14.6066  -42.5115 O.2       4 UNK        -0.5000 
     52 CA          2.4689  -12.7418  -41.6754 C.3       4 UNK         0.1400 
     53 CB          3.6499  -13.3774  -40.9263 C.3       4 UNK        -0.1800 
     54 N           2.8924  -12.4030  -43.0327 N.am      4 UNK        -0.5000 
     55 C           2.2622  -11.5392  -43.8354 C.2       3 UNK         0.5000 
     56 O           1.2469  -10.9236  -43.5067 O.2       3 UNK        -0.5000 
     57 CA          2.8757  -11.2879  -45.2275 C.3       3 UNK         0.1400 
     58 CB          4.1966  -10.5007  -45.1237 C.3       3 UNK        -0.1800 
     59 N           3.0309  -12.4820  -46.0669 N.am      3 UNK        -0.5000 
     60 C           3.8142  -13.5566  -45.8913 C.2       2 UNK         0.5000 
     61 O           4.5532  -13.7136  -44.9176 O.2       2 UNK        -0.5000 
     62 CA          3.7933  -14.6138  -47.0220 C.3       2 UNK         0.1400 
     63 CB          4.0529  -16.0457  -46.5092 C.3       2 UNK        -0.1800 
     64 N           2.5905  -14.5760  -47.8674 N.am      2 UNK        -0.5000 
     65 C           1.3277  -14.8136  -47.4868 C.2       1 UNK         0.5000 
     66 O           1.0119  -15.0649  -46.3265 O.2       1 UNK        -0.5000 
     67 C          -0.3210  -22.1833  -47.1404 C.2       11 UNK         0.5000 
     68 O          -0.3035  -22.8427  -48.1783 O.2       11 UNK        -0.5000 
     69 N          -1.4513  -21.8684  -46.4888 N.am      12 UNK        -0.5000 
     70 CA         -2.8172  -22.2289  -46.8904 C.3       12 UNK         0.1400 
     71 CB         -3.8062  -21.7204  -45.8316 C.3       12 UNK        -0.1800 
     72 C          -3.0497  -23.7312  -47.1535 C.2       12 UNK         0.5000 
     73 O          -3.9300  -24.0716  -47.9444 O.2       12 UNK        -0.5000 
     74 N          -2.2502  -24.6008  -46.5207 N.am      13 UNK        -0.5000 
     75 CA         -2.2517  -26.0456  -46.7523 C.3       13 UNK         0.1400 
     76 CB         -1.4468  -26.7290  -45.6369 C.3       13 UNK        -0.1800 
     77 C          -1.6989  -26.4436  -48.1372 C.2       13 UNK         0.5000 
     78 O          -2.1239  -27.4623  -48.6828 O.2       13 UNK        -0.5000 
     79 N          -0.7717  -25.6423  -48.6788 N.am      14 UNK        -0.5000 
     80 CA         -0.1531  -25.8376  -49.9910 C.3       14 UNK         0.1400 
     81 CB          1.3467  -25.5168  -49.8898 C.3       14 UNK        -0.1800 
     82 C          -0.8194  -24.9541  -51.0587 C.2       14 UNK         0.5000 
     83 O          -1.0078  -25.4021  -52.1895 O.2       14 UNK        -0.5000 
     84 N          -1.1802  -23.7222  -50.6751 N.am      15 UNK        -0.5000 
     85 CA         -1.8401  -22.7243  -51.5184 C.3       15 UNK         0.1400 
     86 CB         -1.7082  -21.3526  -50.8429 C.3       15 UNK        -0.1800 
     87 C          -3.3210  -23.0336  -51.8078 C.2       15 UNK         0.5000 
     88 O          -3.8958  -22.4105  -52.7006 O.2       15 UNK        -0.5000 
     89 N          -3.8998  -23.9805  -51.0551 N.am      16 UNK        -0.5000 
     90 CA         -5.2926  -24.4240  -51.0828 C.3       16 UNK         0.1400 
     91 CB         -5.6671  -25.0327  -52.4487 C.3       16 UNK        -0.1800 
     92 C          -6.2376  -23.2993  -50.6277 C.2       16 UNK         0.5000 
     93 O          -6.9506  -22.7062  -51.4396 O.2       16 UNK        -0.5000 
     94 N          -6.1923  -23.0234  -49.3177 N.am      17 UNK        -0.5000 
     95 CA         -6.9870  -22.0316  -48.5929 C.3       17 UNK         0.1400 
     96 CB         -8.4748  -22.4505  -48.5564 C.3       17 UNK        -0.1800 
     97 C          -6.7358  -20.6122  -49.1362 C.2       17 UNK         0.5000 
     98 O          -5.6009  -20.1356  -49.0675 O.2       17 UNK        -0.5000 
     99 N          -7.7750  -19.9719  -49.6860 N.am      18 UNK        -0.5000 
    100 CA        -7.7531  -18.6375  -50.2861 C.3       18 UNK         0.1400 
    101 CB        -9.1902  -18.0851  -50.2993 C.3       18 UNK        -0.1800 
    102 C         -7.0926  -18.6189  -51.6835 C.2       18 UNK         0.5000 
    103 O         -7.6848  -18.1165  -52.6404 O.2       18 UNK        -0.5000 
    104 N         -5.8696  -19.1599  -51.7638 N.am      19 UNK        -0.5000 
    105 CA        -4.9718  -19.1817  -52.9211 C.3       19 UNK         0.1400 
    106 CB        -4.5361  -17.7440  -53.2779 C.3       19 UNK        -0.1800 
    107 C         -5.5335  -19.9292  -54.1487 C.2       19 UNK         0.5000 
    108 O         -5.1915  -19.5730  -55.2773 O.2       19 UNK        -0.5000 
    109 N         -6.3687  -20.9588  -53.9472 N.am      20 UNK        -0.5000 
    110 CA        -7.0182  -21.6891  -55.0417 C.3       20 UNK         0.1400 
    111 CB        -8.1004  -22.6226  -54.4794 C.3       20 UNK        -0.1800 
    112 C         -6.0450  -22.4557  -55.9637 C.2       20 UNK         0.5000 
    113 O         -6.4068  -22.7362  -57.1075 O.2       20 UNK        -0.5000 
    114 N         -4.8356  -22.7630  -55.4738 N.am      21 UNK        -0.5000 
    115 CA        -3.7874  -23.4476  -56.2300 C.3       21 UNK         0.1400 
    116 CB        -3.0850  -24.4540  -55.3030 C.3       21 UNK        -0.1800 
    117 C         -2.7518  -22.4908  -56.8555 C.2       21 UNK         0.5000 
    118 O         -1.8949  -22.9730  -57.5988 O.2       21 UNK        -0.5000 
    119 N         -2.7978  -21.1848  -56.5496 N.am      22 UNK        -0.5000 
    120 CA        -1.7240  -20.2386  -56.9178 C.3       22 UNK         0.1400 
    121 C         -2.1425  -18.7583  -57.1442 C.2       22 UNK         0.5000 
    122 N         -3.3783  -18.3470  -56.9049 N.am      22 UNK        -0.7600 
    123 O         -1.3248  -17.9571  -57.5894 O.2       22 UNK        -0.5000 
    124 C124       -0.4765  -20.3718  -55.9996 C.3       23 UNK        -0.0398 
    125 S125       -0.8455  -20.2173  -54.2169 S.3       23 UNK        -0.2404 
    126 C126       -0.0451  -18.6381  -53.8013 C.3       23 UNK        -0.0205 
    127 H127        0.6136  -11.4242  -51.6039 H         1 UNK         0.0600 
    128 H128        1.5782  -10.7796  -50.2712 H         1 UNK         0.0600 
    129 H129       -0.1596  -11.0208  -50.0685 H         1 UNK         0.0600 
    130 H130       -0.6213  -12.8210  -48.8500 H         1 UNK         0.3000 
    131 H131        0.5448  -15.4096  -49.3728 H         1 UNK         0.0600 
    132 H132       -1.0600  -16.1295  -47.5030 H         1 UNK         0.0800 
    133 H133       -1.5446  -14.4706  -47.3425 H         1 UNK         0.0800 
    134 H134       -3.2899  -17.5178  -50.1179 H         1 UNK         0.0800 
    135 H135       -2.5128  -17.6954  -48.5719 H         1 UNK         0.0800 
    136 H136       -2.0134  -17.6358  -52.2208 H         1 UNK         0.1150 
    137 H137        1.9770  -19.1704  -52.0459 H         1 UNK         0.1150 
    138 H138       -0.0273  -17.9974  -48.4439 H         1 UNK         0.1150 
    139 H139        3.2462  -18.8243  -49.9885 H         1 UNK         0.0800 
    140 H140        2.4848  -18.2529  -48.5294 H         1 UNK         0.0800 
    141 H141        0.7509  -19.6815  -47.1616 H         1 UNK         0.0800 
    142 H142        2.3178  -20.0073  -46.4771 H         1 UNK         0.0800 
    143 H143        1.7413  -22.5354  -46.7463 H         1 UNK         0.0600 
    144 H144        1.1221  -20.7734  -44.6303 H         1 UNK         0.3000 
    145 H145        0.4283  -23.3447  -42.2121 H         1 UNK         0.0600 
    146 H146        2.2433  -22.0538  -41.1301 H         1 UNK         0.0600 
    147 H147        2.8906  -23.0348  -42.4368 H         1 UNK         0.0600 
    148 H148        2.6708  -21.3045  -42.6651 H         1 UNK         0.0600 
    149 H149        0.4057  -20.4615  -42.1173 H         1 UNK         0.3000 
    150 H150       -3.1113  -20.1154  -42.6670 H         1 UNK         0.0600 
    151 H151       -2.8993  -20.6874  -40.2371 H         1 UNK         0.0600 
    152 H152       -2.9875  -18.9506  -40.4876 H         1 UNK         0.0600 
    153 H153       -1.4384  -19.7114  -40.1304 H         1 UNK         0.0600 
    154 H154       -1.1828  -18.1513  -42.0594 H         1 UNK         0.3000 
    155 H155       -0.0862  -17.4854  -45.4230 H         1 UNK         0.0600 
    156 H156       -2.1408  -16.2037  -45.0013 H         1 UNK         0.0600 
    157 H157       -0.7738  -15.2351  -44.4722 H         1 UNK         0.0600 
    158 H158       -1.7741  -16.0621  -43.2897 H         1 UNK         0.0600 
    159 H159        0.8389  -16.3546  -43.0359 H         1 UNK         0.3000 
    160 H160        3.3784  -18.7663  -42.2097 H         1 UNK         0.0600 
    161 H161        3.4470  -15.8879  -43.2566 H         1 UNK         0.0600 
    162 H162        4.4248  -17.2412  -43.8082 H         1 UNK         0.0600 
    163 H163        4.6566  -16.6059  -42.1906 H         1 UNK         0.0600 
    164 H164        2.3687  -16.3521  -40.9819 H         1 UNK         0.3000 
    165 H165        0.1026  -17.9749  -38.7674 H         1 UNK         0.0600 
    166 H166        1.5178  -16.8373  -37.0774 H         1 UNK         0.0600 
    167 H167        2.3358  -18.2675  -37.6857 H         1 UNK         0.0600 
    168 H168        2.8315  -16.6738  -38.2432 H         1 UNK         0.0600 
    169 H169        0.9731  -15.2558  -39.0684 H         1 UNK         0.3000 
    170 H170       -1.4063  -14.2991  -41.5364 H         1 UNK         0.0600 
    171 H171       -2.6970  -14.2749  -39.3959 H         1 UNK         0.0600 
    172 H172       -1.2869  -13.6629  -38.5397 H         1 UNK         0.0600 
    173 H173       -2.0657  -12.6825  -39.7825 H         1 UNK         0.0600 
    174 H174        0.4518  -12.7459  -40.0811 H         1 UNK         0.3000 
    175 H175        2.1883  -11.8217  -41.1583 H         1 UNK         0.0600 
    176 H176        4.0012  -14.2829  -41.4206 H         1 UNK         0.0600 
    177 H177        4.4908  -12.6866  -40.8622 H         1 UNK         0.0600 
    178 H178        3.3716  -13.6448  -39.9062 H         1 UNK         0.0600 
    179 H179        3.6655  -12.9306  -43.4287 H         1 UNK         0.3000 
    180 H180        2.1687  -10.6520  -45.7629 H         1 UNK         0.0600 
    181 H181        4.9734  -11.0670  -44.6093 H         1 UNK         0.0600 
    182 H182        4.0526   -9.5717  -44.5708 H         1 UNK         0.0600 
    183 H183        4.5748  -10.2352  -46.1109 H         1 UNK         0.0600 
    184 H184        2.4484  -12.4934  -46.8914 H         1 UNK         0.3000 
    185 H185        4.6244  -14.3512  -47.6777 H         1 UNK         0.0600 
    186 H186        5.0010  -16.1065  -45.9740 H         1 UNK         0.0600 
    187 H187        3.2693  -16.3811  -45.8299 H         1 UNK         0.0600 
    188 H188        4.1057  -16.7551  -47.3346 H         1 UNK         0.0600 
    189 H189        2.7346  -14.3161  -48.8397 H         1 UNK         0.3000 
    190 H190       -1.3778  -21.2557  -45.6820 H         1 UNK         0.3000 
    191 H191       -3.0336  -21.7050  -47.8214 H         1 UNK         0.0600 
    192 H192       -3.5830  -22.1283  -44.8461 H         1 UNK         0.0600 
    193 H193       -4.8293  -22.0046  -46.0760 H         1 UNK         0.0600 
    194 H194       -3.7847  -20.6331  -45.7605 H         1 UNK         0.0600 
    195 H195       -1.5468  -24.2409  -45.8892 H         1 UNK         0.3000 
    196 H196       -3.2835  -26.3987  -46.6939 H         1 UNK         0.0600 
    197 H197       -1.4522  -27.8130  -45.7582 H         1 UNK         0.0600 
    198 H198       -1.8674  -26.5096  -44.6554 H         1 UNK         0.0600 
    199 H199       -0.4057  -26.4031  -45.6356 H         1 UNK         0.0600 
    200 H200       -0.5224  -24.7869  -48.1935 H         1 UNK         0.3000 
    201 H201       -0.2541  -26.8788  -50.3045 H         1 UNK         0.0600 
    202 H202        1.5208  -24.4846  -49.5822 H         1 UNK         0.0600 
    203 H203        1.8423  -25.6613  -50.8506 H         1 UNK         0.0600 
    204 H204        1.8398  -26.1681  -49.1681 H         1 UNK         0.0600 
    205 H205       -0.9271  -23.4149  -49.7375 H         1 UNK         0.3000 
    206 H206       -1.3195  -22.6889  -52.4771 H         1 UNK         0.0600 
    207 H207       -0.6627  -21.0921  -50.6769 H         1 UNK         0.0600 
    208 H208       -2.1430  -20.5699  -51.4631 H         1 UNK         0.0600 
    209 H209       -2.2175  -21.3227  -49.8818 H         1 UNK         0.0600 
    210 H210       -3.3369  -24.3835  -50.3192 H         1 UNK         0.3000 
    211 H211       -5.3746  -25.2235  -50.3446 H         1 UNK         0.0600 
    212 H212       -5.5979  -24.3060  -53.2557 H         1 UNK         0.0600 
    213 H213       -6.6902  -25.4097  -52.4375 H         1 UNK         0.0600 
    214 H214       -5.0139  -25.8691  -52.6967 H         1 UNK         0.0600 
    215 H215       -5.4861  -23.5041  -48.7638 H         1 UNK         0.3000 
    216 H216       -6.6240  -22.0325  -47.5655 H         1 UNK         0.0600 
    217 H217       -9.0658  -21.7548  -47.9594 H         1 UNK         0.0600 
    218 H218       -8.5875  -23.4344  -48.1010 H         1 UNK         0.0600 
    219 H219       -8.9184  -22.4990  -49.5515 H         1 UNK         0.0600 
    220 H220       -8.6516  -20.4686  -49.7484 H         1 UNK         0.3000 
    221 H221       -7.1556  -17.9838  -49.6473 H         1 UNK         0.0600 
    222 H222       -9.8476  -18.6893  -50.9256 H         1 UNK         0.0600 
    223 H223       -9.6128  -18.0604  -49.2946 H         1 UNK         0.0600 
    224 H224       -9.2151  -17.0644  -50.6834 H         1 UNK         0.0600 
    225 H225       -5.5032  -19.5751  -50.9117 H         1 UNK         0.3000 
    226 H226       -4.0825  -19.7277  -52.6068 H         1 UNK         0.0600 
    227 H227       -4.2377  -17.1839  -52.3925 H         1 UNK         0.0600 
    228 H228       -3.6890  -17.7521  -53.9649 H         1 UNK         0.0600 
    229 H229       -5.3405  -17.1879  -53.7605 H         1 UNK         0.0600 
    230 H230       -6.5633  -21.2738  -53.0029 H         1 UNK         0.3000 
    231 H231       -7.5217  -20.9469  -55.6647 H         1 UNK         0.0600 
    232 H232       -8.8024  -22.0794  -53.8465 H         1 UNK         0.0600 
    233 H233       -7.6724  -23.4304  -53.8884 H         1 UNK         0.0600 
    234 H234       -8.6752  -23.0805  -55.2852 H         1 UNK         0.0600 
    235 H235       -4.6116  -22.5091  -54.5142 H         1 UNK         0.3000 
    236 H236       -4.2335  -24.0154  -57.0489 H         1 UNK         0.0600 
    237 H237       -3.7987  -25.1352  -54.8408 H         1 UNK         0.0600 
    238 H238       -2.3713  -25.0643  -55.8574 H         1 UNK         0.0600 
    239 H239       -2.5316  -23.9532  -54.5089 H         1 UNK         0.0600 
    240 H240       -3.5380  -20.8310  -55.9581 H         1 UNK         0.3000 
    241 H241       -1.3934  -20.5263  -57.9178 H         1 UNK         0.0600 
    242 H242       -4.0763  -18.9351  -56.4525 H         1 UNK         0.3800 
    243 H243       -3.6068  -17.3842  -57.0908 H         1 UNK         0.3800 
    244 H244        0.3002  -19.6611  -56.2863 H         1 UNK         0.0800 
    245 H245       -0.0272  -21.3544  -56.1480 H         1 UNK         0.0800 
    246 H246       -0.5777  -17.8204  -54.2895 H         1 UNK         0.0800 
    247 H247        0.9731  -18.6271  -54.1931 H         1 UNK         0.0800 
@<TRIPOS>BOND
     1    1    2 1    
     2    1  127 1    
     3    1  128 1    
     4    1  129 1    
     5    2    3 2    
     6    2    4 am   BACKBONE|DICT|INTERRES
     7    4    5 1    
     8    4  130 1    
     9    5    6 1    
    10    5   65 1    
    11    5  131 1    
    12    6    7 1    
    13    6  132 1    
    14    6  133 1    
    15    7    8 1    
    16    8    9 1    
    17    8  134 1    
    18    8  135 1    
    19    9   10 ar   
    20    9   14 ar   
    21   10   11 ar   
    22   10  136 1    
    23   11   12 ar   
    24   11  126 1    
    25   12   13 ar   
    26   12  137 1    
    27   13   14 ar   
    28   13   15 1    
    29   14  138 1    
    30   15   16 1    
    31   15  139 1    
    32   15  140 1    
    33   16   17 1    
    34   17   18 1    
    35   17  141 1    
    36   17  142 1    
    37   18   19 1    
    38   18   67 1    
    39   18  143 1    
    40   19   20 am   BACKBONE|DICT|INTERRES
    41   19  144 1    
    42   20   21 2    
    43   20   22 1    
    44   22   23 1    
    45   22   24 1    
    46   22  145 1    
    47   23  146 1    
    48   23  147 1    
    49   23  148 1    
    50   24   25 am   BACKBONE|DICT|INTERRES
    51   24  149 1    
    52   25   26 2    
    53   25   27 1    
    54   27   28 1    
    55   27   29 1    
    56   27  150 1    
    57   28  151 1    
    58   28  152 1    
    59   28  153 1    
    60   29   30 am   BACKBONE|DICT|INTERRES
    61   29  154 1    
    62   30   31 2    
    63   30   32 1    
    64   32   33 1    
    65   32   34 1    
    66   32  155 1    
    67   33  156 1    
    68   33  157 1    
    69   33  158 1    
    70   34   35 am   BACKBONE|DICT|INTERRES
    71   34  159 1    
    72   35   36 2    
    73   35   37 1    
    74   37   38 1    
    75   37   39 1    
    76   37  160 1    
    77   38  161 1    
    78   38  162 1    
    79   38  163 1    
    80   39   40 am   BACKBONE|DICT|INTERRES
    81   39  164 1    
    82   40   41 2    
    83   40   42 1    
    84   42   43 1    
    85   42   44 1    
    86   42  165 1    
    87   43  166 1    
    88   43  167 1    
    89   43  168 1    
    90   44   45 am   BACKBONE|DICT|INTERRES
    91   44  169 1    
    92   45   46 2    
    93   45   47 1    
    94   47   48 1    
    95   47   49 1    
    96   47  170 1    
    97   48  171 1    
    98   48  172 1    
    99   48  173 1    
   100   49   50 am   BACKBONE|DICT|INTERRES
   101   49  174 1    
   102   50   51 2    
   103   50   52 1    
   104   52   53 1    
   105   52   54 1    
   106   52  175 1    
   107   53  176 1    
   108   53  177 1    
   109   53  178 1    
   110   54   55 am   BACKBONE|DICT|INTERRES
   111   54  179 1    
   112   55   56 2    
   113   55   57 1    
   114   57   58 1    
   115   57   59 1    
   116   57  180 1    
   117   58  181 1    
   118   58  182 1    
   119   58  183 1    
   120   59   60 am   BACKBONE|DICT|INTERRES
   121   59  184 1    
   122   60   61 2    
   123   60   62 1    
   124   62   63 1    
   125   62   64 1    
   126   62  185 1    
   127   63  186 1    
   128   63  187 1    
   129   63  188 1    
   130   64   65 am   BACKBONE|DICT|INTERRES
   131   64  189 1    
   132   65   66 2    
   133   67   68 2    
   134   67   69 am   BACKBONE|DICT|INTERRES
   135   69   70 1    
   136   69  190 1    
   137   70   71 1    
   138   70   72 1    
   139   70  191 1    
   140   71  192 1    
   141   71  193 1    
   142   71  194 1    
   143   72   73 2    
   144   72   74 am   BACKBONE|DICT|INTERRES
   145   74   75 1    
   146   74  195 1    
   147   75   76 1    
   148   75   77 1    
   149   75  196 1    
   150   76  197 1    
   151   76  198 1    
   152   76  199 1    
   153   77   78 2    
   154   77   79 am   BACKBONE|DICT|INTERRES
   155   79   80 1    
   156   79  200 1    
   157   80   81 1    
   158   80   82 1    
   159   80  201 1    
   160   81  202 1    
   161   81  203 1    
   162   81  204 1    
   163   82   83 2    
   164   82   84 am   BACKBONE|DICT|INTERRES
   165   84   85 1    
   166   84  205 1    
   167   85   86 1    
   168   85   87 1    
   169   85  206 1    
   170   86  207 1    
   171   86  208 1    
   172   86  209 1    
   173   87   88 2    
   174   87   89 am   BACKBONE|DICT|INTERRES
   175   89   90 1    
   176   89  210 1    
   177   90   91 1    
   178   90   92 1    
   179   90  211 1    
   180   91  212 1    
   181   91  213 1    
   182   91  214 1    
   183   92   93 2    
   184   92   94 am   BACKBONE|DICT|INTERRES
   185   94   95 1    
   186   94  215 1    
   187   95   96 1    
   188   95   97 1    
   189   95  216 1    
   190   96  217 1    
   191   96  218 1    
   192   96  219 1    
   193   97   98 2    
   194   97   99 am   BACKBONE|DICT|INTERRES
   195   99  100 1    
   196   99  220 1    
   197  100  101 1    
   198  100  102 1    
   199  100  221 1    
   200  101  222 1    
   201  101  223 1    
   202  101  224 1    
   203  102  103 2    
   204  102  104 am   BACKBONE|DICT|INTERRES
   205  104  105 1    
   206  104  225 1    
   207  105  106 1    
   208  105  107 1    
   209  105  226 1    
   210  106  227 1    
   211  106  228 1    
   212  106  229 1    
   213  107  108 2    
   214  107  109 am   BACKBONE|DICT|INTERRES
   215  109  110 1    
   216  109  230 1    
   217  110  111 1    
   218  110  112 1    
   219  110  231 1    
   220  111  232 1    
   221  111  233 1    
   222  111  234 1    
   223  112  113 2    
   224  112  114 am   BACKBONE|DICT|INTERRES
   225  114  115 1    
   226  114  235 1    
   227  115  116 1    
   228  115  117 1    
   229  115  236 1    
   230  116  237 1    
   231  116  238 1    
   232  116  239 1    
   233  117  118 2    
   234  117  119 am   BACKBONE|DICT|INTERRES
   235  119  120 1    
   236  119  240 1    
   237  120  121 1    
   238  120  124 1    
   239  120  241 1    
   240  121  122 am   BACKBONE|DICT|INTERRES
   241  121  123 2    
   242  122  242 1    
   243  122  243 1    
   244  124  125 1    
   245  124  244 1    
   246  124  245 1    
   247  125  126 1    
   248  126  246 1    
   249  126  247 1    
@<TRIPOS>SUBSTRUCTURE
     1 UNK         1 GROUP             0       ****    0 ROOT    
