@<TRIPOS>MOLECULE
3R540
247   249    1
SMALL
USER_CHARGES


@<TRIPOS>ATOM
      1 CA          5.9284  -10.8354  -50.8492 C.3       0 UNK        -0.1800 
      2 C           5.2633  -12.1225  -50.3841 C.2       0 UNK         0.5000 
      3 O           4.3884  -12.6442  -51.0753 O.2       0 UNK        -0.5000 
      4 N           5.6613  -12.6273  -49.2080 N.am      1 UNK        -0.5000 
      5 CA          5.1884  -13.8519  -48.5430 C.3       1 UNK         0.1400 
      6 C6          5.3359  -15.1249  -49.4156 C.3       23 UNK        -0.0398 
      7 S7          5.5834  -16.6351  -48.4241 S.3       23 UNK        -0.2404 
      8 C8          5.6310  -17.8952  -49.7359 C.3       23 UNK        -0.0205 
      9 C9          4.3069  -18.6334  -49.8671 C.ar      23 UNK        -0.0193 
     10 C10         3.2100  -18.0268  -50.4863 C.ar      23 UNK        -0.1150 
     11 C11         2.0035  -18.7170  -50.6347 C.ar      23 UNK        -0.0193 
     12 C12         1.8982  -20.0273  -50.1579 C.ar      23 UNK        -0.1150 
     13 C13         2.9953  -20.6529  -49.5548 C.ar      23 UNK        -0.0193 
     14 C14         4.1919  -19.9473  -49.4050 C.ar      23 UNK        -0.1150 
     15 C15         2.9129  -22.1120  -49.1283 C.3       23 UNK        -0.0205 
     16 S16         3.1048  -22.3626  -47.3318 S.3       23 UNK        -0.2404 
     17 C17         1.6567  -21.4862  -46.6552 C.3       23 UNK        -0.0398 
     18 CA          0.4186  -22.3975  -46.4635 C.3       11 UNK         0.1400 
     19 N          -0.5159  -21.8567  -45.4734 N.am      11 UNK        -0.5000 
     20 C          -1.5926  -22.5032  -45.0014 C.2       10 UNK         0.5000 
     21 O          -1.8592  -23.6745  -45.2681 O.2       10 UNK        -0.5000 
     22 CA         -2.5553  -21.6952  -44.1122 C.3       10 UNK         0.1400 
     23 CB         -2.0979  -21.7319  -42.6466 C.3       10 UNK        -0.1800 
     24 N          -2.6926  -20.3050  -44.5485 N.am      10 UNK        -0.5000 
     25 C          -3.2469  -19.9207  -45.7070 C.2       9 UNK         0.5000 
     26 O          -3.7753  -20.6898  -46.5104 O.2       9 UNK        -0.5000 
     27 CA         -3.1479  -18.4284  -46.0634 C.3       9 UNK         0.1400 
     28 CB         -4.2561  -17.6147  -45.3813 C.3       9 UNK        -0.1800 
     29 N          -1.8426  -17.8521  -45.7544 N.am      9 UNK        -0.5000 
     30 C          -0.6970  -18.2259  -46.3398 C.2       8 UNK         0.5000 
     31 O          -0.6324  -19.0801  -47.2217 O.2       8 UNK        -0.5000 
     32 CA          0.5938  -17.5826  -45.8096 C.3       8 UNK         0.1400 
     33 CB          0.8370  -16.2186  -46.4667 C.3       8 UNK        -0.1800 
     34 N           0.5660  -17.4363  -44.3540 N.am      8 UNK        -0.5000 
     35 C           0.6419  -18.4643  -43.4971 C.2       7 UNK         0.5000 
     36 O           0.7906  -19.6347  -43.8477 O.2       7 UNK        -0.5000 
     37 CA          0.4720  -18.1352  -42.0033 C.3       7 UNK         0.1400 
     38 CB          1.7927  -17.6463  -41.3939 C.3       7 UNK        -0.1800 
     39 N          -0.5743  -17.1396  -41.7686 N.am      7 UNK        -0.5000 
     40 C          -1.8808  -17.3760  -41.9548 C.2       6 UNK         0.5000 
     41 O          -2.3312  -18.4604  -42.3221 O.2       6 UNK        -0.5000 
     42 CA         -2.8462  -16.1962  -41.7394 C.3       6 UNK         0.1400 
     43 CB         -3.2843  -16.1219  -40.2694 C.3       6 UNK        -0.1800 
     44 N          -2.3016  -14.8998  -42.1461 N.am      6 UNK        -0.5000 
     45 C          -1.8542  -14.5918  -43.3710 C.2       5 UNK         0.5000 
     46 O          -1.8186  -15.3929  -44.3051 O.2       5 UNK        -0.5000 
     47 CA         -1.3465  -13.1571  -43.5996 C.3       5 UNK         0.1400 
     48 CB         -1.7784  -12.1527  -42.5078 C.3       5 UNK        -0.1800 
     49 N           0.1039  -13.1051  -43.7877 N.am      5 UNK        -0.5000 
     50 C           1.0610  -13.5095  -42.9359 C.2       4 UNK         0.5000 
     51 O           0.8302  -14.1278  -41.8952 O.2       4 UNK        -0.5000 
     52 CA          2.5252  -13.1566  -43.2875 C.3       4 UNK         0.1400 
     53 CB          3.3643  -14.4238  -43.5109 C.3       4 UNK        -0.1800 
     54 N           2.6511  -12.2845  -44.4591 N.am      4 UNK        -0.5000 
     55 C           2.3591  -10.9734  -44.4721 C.2       3 UNK         0.5000 
     56 O           2.0565  -10.3382  -43.4616 O.2       3 UNK        -0.5000 
     57 CA          2.3662  -10.2488  -45.8367 C.3       3 UNK         0.1400 
     58 CB          3.6449   -9.4116  -45.9931 C.3       3 UNK        -0.1800 
     59 N           2.2480  -11.1414  -46.9916 N.am      3 UNK        -0.5000 
     60 C           1.2262  -11.9694  -47.2533 C.2       2 UNK         0.5000 
     61 O           0.1957  -12.0121  -46.5811 O.2       2 UNK        -0.5000 
     62 CA          1.4168  -12.9608  -48.4202 C.3       2 UNK         0.1400 
     63 CB          0.6743  -12.4746  -49.6730 C.3       2 UNK        -0.1800 
     64 N           2.8189  -13.2181  -48.7689 N.am      2 UNK        -0.5000 
     65 C           3.7669  -13.7090  -47.9577 C.2       1 UNK         0.5000 
     66 O           3.5694  -13.9794  -46.7733 O.2       1 UNK        -0.5000 
     67 C          -0.2972  -22.6673  -47.8014 C.2       11 UNK         0.5000 
     68 O          -0.2056  -23.7750  -48.3322 O.2       11 UNK        -0.5000 
     69 N          -1.0292  -21.6633  -48.3045 N.am      12 UNK        -0.5000 
     70 CA         -1.8095  -21.7373  -49.5382 C.3       12 UNK         0.1400 
     71 CB         -2.4260  -20.3673  -49.8466 C.3       12 UNK        -0.1800 
     72 C          -2.8829  -22.8393  -49.5056 C.2       12 UNK         0.5000 
     73 O          -2.9931  -23.5880  -50.4745 O.2       12 UNK        -0.5000 
     74 N          -3.5768  -22.9699  -48.3656 N.am      13 UNK        -0.5000 
     75 CA         -4.5691  -24.0136  -48.0882 C.3       13 UNK         0.1400 
     76 CB         -5.2602  -23.6984  -46.7510 C.3       13 UNK        -0.1800 
     77 C          -4.0030  -25.4491  -48.0470 C.2       13 UNK         0.5000 
     78 O          -4.7867  -26.3997  -48.0773 O.2       13 UNK        -0.5000 
     79 N          -2.6759  -25.5908  -47.9413 N.am      14 UNK        -0.5000 
     80 CA         -1.9779  -26.8701  -47.9538 C.3       14 UNK         0.1400 
     81 CB         -0.9299  -26.8863  -46.8284 C.3       14 UNK        -0.1800 
     82 C          -1.3212  -27.1275  -49.3188 C.2       14 UNK         0.5000 
     83 O          -1.5069  -28.2073  -49.8820 O.2       14 UNK        -0.5000 
     84 N          -0.5354  -26.1581  -49.8066 N.am      15 UNK        -0.5000 
     85 CA          0.3892  -26.3523  -50.9227 C.3       15 UNK         0.1400 
     86 CB          1.7289  -25.6918  -50.5622 C.3       15 UNK        -0.1800 
     87 C          -0.1123  -25.8013  -52.2671 C.2       15 UNK         0.5000 
     88 O           0.2654  -26.3527  -53.3023 O.2       15 UNK        -0.5000 
     89 N          -0.9008  -24.7175  -52.2568 N.am      16 UNK        -0.5000 
     90 CA         -1.2920  -24.0070  -53.4788 C.3       16 UNK         0.1400 
     91 CB         -1.3544  -22.4927  -53.2162 C.3       16 UNK        -0.1800 
     92 C          -2.6240  -24.5195  -54.0454 C.2       16 UNK         0.5000 
     93 O          -2.7331  -24.7071  -55.2582 O.2       16 UNK        -0.5000 
     94 N          -3.6088  -24.7370  -53.1690 N.am      17 UNK        -0.5000 
     95 CA         -4.9608  -25.1734  -53.5045 C.3       17 UNK         0.1400 
     96 CB         -5.7613  -23.9868  -54.0825 C.3       17 UNK        -0.1800 
     97 C          -5.6366  -25.7357  -52.2457 C.2       17 UNK         0.5000 
     98 O          -5.0458  -25.7118  -51.1667 O.2       17 UNK        -0.5000 
     99 N          -6.8775  -26.2167  -52.3936 N.am      18 UNK        -0.5000 
    100 CA        -7.7400  -26.5799  -51.2650 C.3       18 UNK         0.1400 
    101 CB        -8.8914  -27.4618  -51.7723 C.3       18 UNK        -0.1800 
    102 C         -8.2894  -25.3376  -50.5327 C.2       18 UNK         0.5000 
    103 O         -8.5453  -25.4007  -49.3298 O.2       18 UNK        -0.5000 
    104 N         -8.4605  -24.2344  -51.2738 N.am      19 UNK        -0.5000 
    105 CA        -8.8593  -22.9294  -50.7555 C.3       19 UNK         0.1400 
    106 CB        -9.4627  -22.1041  -51.9026 C.3       19 UNK        -0.1800 
    107 C         -7.6564  -22.1941  -50.1406 C.2       19 UNK         0.5000 
    108 O         -6.5417  -22.3009  -50.6557 O.2       19 UNK        -0.5000 
    109 N         -7.9159  -21.4410  -49.0675 N.am      20 UNK        -0.5000 
    110 CA        -6.9354  -20.5920  -48.3944 C.3       20 UNK         0.1400 
    111 CB        -7.4192  -20.3424  -46.9552 C.3       20 UNK        -0.1800 
    112 C         -6.7150  -19.2588  -49.1344 C.2       20 UNK         0.5000 
    113 O         -7.5179  -18.8857  -49.9936 O.2       20 UNK        -0.5000 
    114 N         -5.6466  -18.5615  -48.7242 N.am      21 UNK        -0.5000 
    115 CA        -5.1256  -17.2812  -49.2226 C.3       21 UNK         0.1400 
    116 CB        -6.2116  -16.1898  -49.2964 C.3       21 UNK        -0.1800 
    117 C         -4.3671  -17.4234  -50.5549 C.2       21 UNK         0.5000 
    118 O         -4.7428  -18.2225  -51.4138 O.2       21 UNK        -0.5000 
    119 N         -3.2993  -16.6293  -50.6959 N.am      22 UNK        -0.5000 
    120 CA        -2.4271  -16.5978  -51.8830 C.3       22 UNK         0.1400 
    121 C         -3.0467  -15.8940  -53.1282 C.2       22 UNK         0.5000 
    122 N         -4.1708  -15.1967  -53.0152 N.am      22 UNK        -0.7600 
    123 O         -2.4968  -15.9874  -54.2219 O.2       22 UNK        -0.5000 
    124 C124       -1.0370  -15.9933  -51.5543 C.3       23 UNK        -0.0398 
    125 S125       -0.1085  -16.9413  -50.2989 S.3       23 UNK        -0.2404 
    126 C126        0.8441  -18.0622  -51.3707 C.3       23 UNK        -0.0205 
    127 H127        6.6755  -10.4839  -50.1373 H         1 UNK         0.0600 
    128 H128        5.1815  -10.0514  -50.9736 H         1 UNK         0.0600 
    129 H129        6.4208  -10.9940  -51.8085 H         1 UNK         0.0600 
    130 H130        6.3703  -12.1239  -48.6924 H         1 UNK         0.3000 
    131 H131        5.8587  -13.9593  -47.6883 H         1 UNK         0.0600 
    132 H132        4.4833  -15.2484  -50.0839 H         1 UNK         0.0800 
    133 H133        6.2092  -15.0269  -50.0621 H         1 UNK         0.0800 
    134 H134        6.4326  -18.5986  -49.5055 H         1 UNK         0.0800 
    135 H135        5.8976  -17.4434  -50.6924 H         1 UNK         0.0800 
    136 H136        3.2951  -17.0205  -50.8688 H         1 UNK         0.1150 
    137 H137        0.9721  -20.5688  -50.2862 H         1 UNK         0.1150 
    138 H138        5.0407  -20.4331  -48.9441 H         1 UNK         0.1150 
    139 H139        1.9753  -22.5530  -49.4618 H         1 UNK         0.0800 
    140 H140        3.6997  -22.6686  -49.6391 H         1 UNK         0.0800 
    141 H141        1.4326  -20.6088  -47.2614 H         1 UNK         0.0800 
    142 H142        1.9733  -21.0965  -45.6876 H         1 UNK         0.0800 
    143 H143        0.7601  -23.3592  -46.0741 H         1 UNK         0.0600 
    144 H144       -0.3417  -20.9107  -45.1559 H         1 UNK         0.3000 
    145 H145       -3.5388  -22.1652  -44.1744 H         1 UNK         0.0600 
    146 H146       -2.8192  -21.2359  -41.9971 H         1 UNK         0.0600 
    147 H147       -1.1342  -21.2393  -42.5132 H         1 UNK         0.0600 
    148 H148       -1.9951  -22.7590  -42.2942 H         1 UNK         0.0600 
    149 H149       -2.3424  -19.5950  -43.9119 H         1 UNK         0.3000 
    150 H150       -3.2736  -18.3508  -47.1421 H         1 UNK         0.0600 
    151 H151       -5.2437  -17.9765  -45.6675 H         1 UNK         0.0600 
    152 H152       -4.2024  -16.5621  -45.6600 H         1 UNK         0.0600 
    153 H153       -4.1878  -17.6775  -44.2957 H         1 UNK         0.0600 
    154 H154       -1.8191  -17.0936  -45.0769 H         1 UNK         0.3000 
    155 H155        1.4270  -18.2370  -46.0750 H         1 UNK         0.0600 
    156 H156        0.0457  -15.5041  -46.2385 H         1 UNK         0.0600 
    157 H157        0.8917  -16.3176  -47.5507 H         1 UNK         0.0600 
    158 H158        1.7818  -15.7911  -46.1388 H         1 UNK         0.0600 
    159 H159        0.3638  -16.5158  -43.9920 H         1 UNK         0.3000 
    160 H160        0.1865  -19.0574  -41.4923 H         1 UNK         0.0600 
    161 H161        2.1080  -16.7005  -41.8318 H         1 UNK         0.0600 
    162 H162        2.5922  -18.3698  -41.5583 H         1 UNK         0.0600 
    163 H163        1.7000  -17.5017  -40.3174 H         1 UNK         0.0600 
    164 H164       -0.2774  -16.2086  -41.5039 H         1 UNK         0.3000 
    165 H165       -3.7329  -16.3818  -42.3476 H         1 UNK         0.0600 
    166 H166       -4.0430  -15.3532  -40.1216 H         1 UNK         0.0600 
    167 H167       -3.7154  -17.0690  -39.9420 H         1 UNK         0.0600 
    168 H168       -2.4448  -15.8976  -39.6101 H         1 UNK         0.0600 
    169 H169       -2.2618  -14.1855  -41.4338 H         1 UNK         0.3000 
    170 H170       -1.7888  -12.8278  -44.5410 H         1 UNK         0.0600 
    171 H171       -2.8623  -12.1443  -42.3857 H         1 UNK         0.0600 
    172 H172       -1.3331  -12.3758  -41.5376 H         1 UNK         0.0600 
    173 H173       -1.4802  -11.1393  -42.7773 H         1 UNK         0.0600 
    174 H174        0.3949  -12.6646  -44.6536 H         1 UNK         0.3000 
    175 H175        2.9431  -12.6292  -42.4276 H         1 UNK         0.0600 
    176 H176        2.9231  -15.0757  -44.2638 H         1 UNK         0.0600 
    177 H177        4.3763  -14.1779  -43.8333 H         1 UNK         0.0600 
    178 H178        3.4540  -14.9963  -42.5883 H         1 UNK         0.0600 
    179 H179        2.9095  -12.7425  -45.3279 H         1 UNK         0.3000 
    180 H180        1.5077   -9.5745  -45.8504 H         1 UNK         0.0600 
    181 H181        3.6255   -8.8282  -46.9139 H         1 UNK         0.0600 
    182 H182        4.5365  -10.0398  -46.0109 H         1 UNK         0.0600 
    183 H183        3.7556   -8.7077  -45.1672 H         1 UNK         0.0600 
    184 H184        3.0510  -11.1902  -47.6006 H         1 UNK         0.3000 
    185 H185        0.9759  -13.9094  -48.1127 H         1 UNK         0.0600 
    186 H186       -0.3817  -12.3025  -49.4608 H         1 UNK         0.0600 
    187 H187        1.0923  -11.5404  -50.0500 H         1 UNK         0.0600 
    188 H188        0.7276  -13.2134  -50.4730 H         1 UNK         0.0600 
    189 H189        3.1007  -12.9967  -49.7203 H         1 UNK         0.3000 
    190 H190       -1.0188  -20.7633  -47.8276 H         1 UNK         0.3000 
    191 H191       -1.1112  -21.9811  -50.3400 H         1 UNK         0.0600 
    192 H192       -1.6577  -19.6005  -49.9440 H         1 UNK         0.0600 
    193 H193       -3.1141  -20.0516  -49.0639 H         1 UNK         0.0600 
    194 H194       -2.9835  -20.3924  -50.7837 H         1 UNK         0.0600 
    195 H195       -3.4273  -22.2869  -47.6293 H         1 UNK         0.3000 
    196 H196       -5.3162  -23.9818  -48.8831 H         1 UNK         0.0600 
    197 H197       -5.6840  -22.6975  -46.7392 H         1 UNK         0.0600 
    198 H198       -4.5636  -23.7711  -45.9155 H         1 UNK         0.0600 
    199 H199       -6.0763  -24.3962  -46.5598 H         1 UNK         0.0600 
    200 H200       -2.0987  -24.7601  -47.9117 H         1 UNK         0.3000 
    201 H201       -2.6750  -27.6884  -47.7621 H         1 UNK         0.0600 
    202 H202       -1.4014  -26.7596  -45.8537 H         1 UNK         0.0600 
    203 H203       -0.1918  -26.0920  -46.9432 H         1 UNK         0.0600 
    204 H204       -0.3918  -27.8347  -46.8098 H         1 UNK         0.0600 
    205 H205       -0.4329  -25.2930  -49.2791 H         1 UNK         0.3000 
    206 H206        0.5829  -27.4182  -51.0622 H         1 UNK         0.0600 
    207 H207        1.6204  -24.6149  -50.4402 H         1 UNK         0.0600 
    208 H208        2.1329  -26.0954  -49.6336 H         1 UNK         0.0600 
    209 H209        2.4727  -25.8606  -51.3419 H         1 UNK         0.0600 
    210 H210       -1.2764  -24.3720  -51.3820 H         1 UNK         0.3000 
    211 H211       -0.5290  -24.1587  -54.2457 H         1 UNK         0.0600 
    212 H212       -2.1756  -22.2240  -52.5530 H         1 UNK         0.0600 
    213 H213       -1.5075  -21.9484  -54.1487 H         1 UNK         0.0600 
    214 H214       -0.4265  -22.1266  -52.7766 H         1 UNK         0.0600 
    215 H215       -3.4518  -24.5768  -52.1752 H         1 UNK         0.3000 
    216 H216       -4.9054  -25.9764  -54.2421 H         1 UNK         0.0600 
    217 H217       -6.7669  -24.2868  -54.3775 H         1 UNK         0.0600 
    218 H218       -5.2824  -23.5755  -54.9710 H         1 UNK         0.0600 
    219 H219       -5.8574  -23.1803  -53.3539 H         1 UNK         0.0600 
    220 H220       -7.2936  -26.2466  -53.3131 H         1 UNK         0.3000 
    221 H221       -7.1572  -27.1605  -50.5462 H         1 UNK         0.0600 
    222 H222       -9.5107  -26.9379  -52.5014 H         1 UNK         0.0600 
    223 H223       -8.5145  -28.3706  -52.2417 H         1 UNK         0.0600 
    224 H224       -9.5397  -27.7667  -50.9498 H         1 UNK         0.0600 
    225 H225       -8.1780  -24.2616  -52.2409 H         1 UNK         0.3000 
    226 H226       -9.6249  -23.0703  -49.9893 H         1 UNK         0.0600 
    227 H227      -10.3331  -22.6007  -52.3317 H         1 UNK         0.0600 
    228 H228       -9.7880  -21.1247  -51.5492 H         1 UNK         0.0600 
    229 H229       -8.7402  -21.9393  -52.7032 H         1 UNK         0.0600 
    230 H230       -8.8676  -21.3661  -48.7398 H         1 UNK         0.3000 
    231 H231       -5.9790  -21.1172  -48.3619 H         1 UNK         0.0600 
    232 H232       -6.6637  -19.8180  -46.3703 H         1 UNK         0.0600 
    233 H233       -7.6289  -21.2787  -46.4380 H         1 UNK         0.0600 
    234 H234       -8.3283  -19.7400  -46.9351 H         1 UNK         0.0600 
    235 H235       -5.0703  -19.0066  -48.0255 H         1 UNK         0.3000 
    236 H236       -4.4059  -16.9485  -48.4751 H         1 UNK         0.0600 
    237 H237       -6.9207  -16.3694  -50.1047 H         1 UNK         0.0600 
    238 H238       -6.7717  -16.1247  -48.3635 H         1 UNK         0.0600 
    239 H239       -5.7648  -15.2112  -49.4749 H         1 UNK         0.0600 
    240 H240       -3.0460  -15.9976  -49.9507 H         1 UNK         0.3000 
    241 H241       -2.2625  -17.6328  -52.1896 H         1 UNK         0.0600 
    242 H242       -4.5614  -14.7510  -53.8307 H         1 UNK         0.3800 
    243 H243       -4.6387  -15.1150  -52.1276 H         1 UNK         0.3800 
    244 H244       -1.1519  -14.9722  -51.1874 H         1 UNK         0.0800 
    245 H245       -0.4238  -15.9131  -52.4535 H         1 UNK         0.0800 
    246 H246        1.2396  -17.5108  -52.2248 H         1 UNK         0.0800 
    247 H247        0.1741  -18.8200  -51.7796 H         1 UNK         0.0800 
@<TRIPOS>BOND
     1    1    2 1    
     2    1  127 1    
     3    1  128 1    
     4    1  129 1    
     5    2    3 2    
     6    2    4 am   BACKBONE|DICT|INTERRES
     7    4    5 1    
     8    4  130 1    
     9    5    6 1    
    10    5   65 1    
    11    5  131 1    
    12    6    7 1    
    13    6  132 1    
    14    6  133 1    
    15    7    8 1    
    16    8    9 1    
    17    8  134 1    
    18    8  135 1    
    19    9   10 ar   
    20    9   14 ar   
    21   10   11 ar   
    22   10  136 1    
    23   11   12 ar   
    24   11  126 1    
    25   12   13 ar   
    26   12  137 1    
    27   13   14 ar   
    28   13   15 1    
    29   14  138 1    
    30   15   16 1    
    31   15  139 1    
    32   15  140 1    
    33   16   17 1    
    34   17   18 1    
    35   17  141 1    
    36   17  142 1    
    37   18   19 1    
    38   18   67 1    
    39   18  143 1    
    40   19   20 am   BACKBONE|DICT|INTERRES
    41   19  144 1    
    42   20   21 2    
    43   20   22 1    
    44   22   23 1    
    45   22   24 1    
    46   22  145 1    
    47   23  146 1    
    48   23  147 1    
    49   23  148 1    
    50   24   25 am   BACKBONE|DICT|INTERRES
    51   24  149 1    
    52   25   26 2    
    53   25   27 1    
    54   27   28 1    
    55   27   29 1    
    56   27  150 1    
    57   28  151 1    
    58   28  152 1    
    59   28  153 1    
    60   29   30 am   BACKBONE|DICT|INTERRES
    61   29  154 1    
    62   30   31 2    
    63   30   32 1    
    64   32   33 1    
    65   32   34 1    
    66   32  155 1    
    67   33  156 1    
    68   33  157 1    
    69   33  158 1    
    70   34   35 am   BACKBONE|DICT|INTERRES
    71   34  159 1    
    72   35   36 2    
    73   35   37 1    
    74   37   38 1    
    75   37   39 1    
    76   37  160 1    
    77   38  161 1    
    78   38  162 1    
    79   38  163 1    
    80   39   40 am   BACKBONE|DICT|INTERRES
    81   39  164 1    
    82   40   41 2    
    83   40   42 1    
    84   42   43 1    
    85   42   44 1    
    86   42  165 1    
    87   43  166 1    
    88   43  167 1    
    89   43  168 1    
    90   44   45 am   BACKBONE|DICT|INTERRES
    91   44  169 1    
    92   45   46 2    
    93   45   47 1    
    94   47   48 1    
    95   47   49 1    
    96   47  170 1    
    97   48  171 1    
    98   48  172 1    
    99   48  173 1    
   100   49   50 am   BACKBONE|DICT|INTERRES
   101   49  174 1    
   102   50   51 2    
   103   50   52 1    
   104   52   53 1    
   105   52   54 1    
   106   52  175 1    
   107   53  176 1    
   108   53  177 1    
   109   53  178 1    
   110   54   55 am   BACKBONE|DICT|INTERRES
   111   54  179 1    
   112   55   56 2    
   113   55   57 1    
   114   57   58 1    
   115   57   59 1    
   116   57  180 1    
   117   58  181 1    
   118   58  182 1    
   119   58  183 1    
   120   59   60 am   BACKBONE|DICT|INTERRES
   121   59  184 1    
   122   60   61 2    
   123   60   62 1    
   124   62   63 1    
   125   62   64 1    
   126   62  185 1    
   127   63  186 1    
   128   63  187 1    
   129   63  188 1    
   130   64   65 am   BACKBONE|DICT|INTERRES
   131   64  189 1    
   132   65   66 2    
   133   67   68 2    
   134   67   69 am   BACKBONE|DICT|INTERRES
   135   69   70 1    
   136   69  190 1    
   137   70   71 1    
   138   70   72 1    
   139   70  191 1    
   140   71  192 1    
   141   71  193 1    
   142   71  194 1    
   143   72   73 2    
   144   72   74 am   BACKBONE|DICT|INTERRES
   145   74   75 1    
   146   74  195 1    
   147   75   76 1    
   148   75   77 1    
   149   75  196 1    
   150   76  197 1    
   151   76  198 1    
   152   76  199 1    
   153   77   78 2    
   154   77   79 am   BACKBONE|DICT|INTERRES
   155   79   80 1    
   156   79  200 1    
   157   80   81 1    
   158   80   82 1    
   159   80  201 1    
   160   81  202 1    
   161   81  203 1    
   162   81  204 1    
   163   82   83 2    
   164   82   84 am   BACKBONE|DICT|INTERRES
   165   84   85 1    
   166   84  205 1    
   167   85   86 1    
   168   85   87 1    
   169   85  206 1    
   170   86  207 1    
   171   86  208 1    
   172   86  209 1    
   173   87   88 2    
   174   87   89 am   BACKBONE|DICT|INTERRES
   175   89   90 1    
   176   89  210 1    
   177   90   91 1    
   178   90   92 1    
   179   90  211 1    
   180   91  212 1    
   181   91  213 1    
   182   91  214 1    
   183   92   93 2    
   184   92   94 am   BACKBONE|DICT|INTERRES
   185   94   95 1    
   186   94  215 1    
   187   95   96 1    
   188   95   97 1    
   189   95  216 1    
   190   96  217 1    
   191   96  218 1    
   192   96  219 1    
   193   97   98 2    
   194   97   99 am   BACKBONE|DICT|INTERRES
   195   99  100 1    
   196   99  220 1    
   197  100  101 1    
   198  100  102 1    
   199  100  221 1    
   200  101  222 1    
   201  101  223 1    
   202  101  224 1    
   203  102  103 2    
   204  102  104 am   BACKBONE|DICT|INTERRES
   205  104  105 1    
   206  104  225 1    
   207  105  106 1    
   208  105  107 1    
   209  105  226 1    
   210  106  227 1    
   211  106  228 1    
   212  106  229 1    
   213  107  108 2    
   214  107  109 am   BACKBONE|DICT|INTERRES
   215  109  110 1    
   216  109  230 1    
   217  110  111 1    
   218  110  112 1    
   219  110  231 1    
   220  111  232 1    
   221  111  233 1    
   222  111  234 1    
   223  112  113 2    
   224  112  114 am   BACKBONE|DICT|INTERRES
   225  114  115 1    
   226  114  235 1    
   227  115  116 1    
   228  115  117 1    
   229  115  236 1    
   230  116  237 1    
   231  116  238 1    
   232  116  239 1    
   233  117  118 2    
   234  117  119 am   BACKBONE|DICT|INTERRES
   235  119  120 1    
   236  119  240 1    
   237  120  121 1    
   238  120  124 1    
   239  120  241 1    
   240  121  122 am   BACKBONE|DICT|INTERRES
   241  121  123 2    
   242  122  242 1    
   243  122  243 1    
   244  124  125 1    
   245  124  244 1    
   246  124  245 1    
   247  125  126 1    
   248  126  246 1    
   249  126  247 1    
@<TRIPOS>SUBSTRUCTURE
     1 UNK         1 GROUP             0       ****    0 ROOT    
