@<TRIPOS>MOLECULE
3R540
247   249    1
SMALL
USER_CHARGES


@<TRIPOS>ATOM
      1 CA          5.6574  -17.6957  -46.4515 C.3       0 UNK        -0.1800 
      2 C           4.6653  -16.8703  -45.6446 C.2       0 UNK         0.5000 
      3 O           4.6049  -17.0090  -44.4239 O.2       0 UNK        -0.5000 
      4 N           3.8817  -16.0257  -46.3268 N.am      1 UNK        -0.5000 
      5 CA          2.8965  -15.1144  -45.7374 C.3       1 UNK         0.1400 
      6 C6          2.0354  -14.4250  -46.8269 C.3       23 UNK        -0.0398 
      7 S7          0.8945  -15.5659  -47.6823 S.3       23 UNK        -0.2404 
      8 C8          1.8465  -16.0400  -49.1605 C.3       23 UNK        -0.0205 
      9 C9          0.9737  -16.7203  -50.2082 C.ar      23 UNK        -0.0193 
     10 C10         0.8296  -16.1534  -51.4803 C.ar      23 UNK        -0.1150 
     11 C11         0.0521  -16.7857  -52.4556 C.ar      23 UNK        -0.0193 
     12 C12        -0.5837  -17.9910  -52.1508 C.ar      23 UNK        -0.1150 
     13 C13        -0.4653  -18.5582  -50.8818 C.ar      23 UNK        -0.0193 
     14 C14         0.3214  -17.9238  -49.9151 C.ar      23 UNK        -0.1150 
     15 C15        -1.2234  -19.8355  -50.5643 C.3       23 UNK        -0.0205 
     16 S16        -0.3523  -21.3174  -51.1654 S.3       23 UNK        -0.2404 
     17 C17         0.8655  -21.5895  -49.8331 C.3       23 UNK        -0.0398 
     18 CA          0.5243  -22.7499  -48.8617 C.3       11 UNK         0.1400 
     19 N           1.5635  -22.8801  -47.8404 N.am      11 UNK        -0.5000 
     20 C           1.6323  -23.8295  -46.8956 C.2       10 UNK         0.5000 
     21 O           0.8832  -24.8029  -46.8421 O.2       10 UNK        -0.5000 
     22 CA          2.6856  -23.6102  -45.7907 C.3       10 UNK         0.1400 
     23 CB          4.0053  -24.3054  -46.1557 C.3       10 UNK        -0.1800 
     24 N           2.9392  -22.1875  -45.5340 N.am      10 UNK        -0.5000 
     25 C           2.0261  -21.3323  -45.0531 C.2       9 UNK         0.5000 
     26 O           0.8897  -21.6671  -44.7099 O.2       9 UNK        -0.5000 
     27 CA          2.4146  -19.8453  -45.0738 C.3       9 UNK         0.1400 
     28 CB          1.8482  -19.1795  -46.3392 C.3       9 UNK        -0.1800 
     29 N           1.9252  -19.1330  -43.8975 N.am      9 UNK        -0.5000 
     30 C           2.4460  -19.2639  -42.6680 C.2       8 UNK         0.5000 
     31 O           3.3928  -20.0085  -42.4075 O.2       8 UNK        -0.5000 
     32 CA          1.8268  -18.4208  -41.5326 C.3       8 UNK         0.1400 
     33 CB          2.6832  -17.1725  -41.2694 C.3       8 UNK        -0.1800 
     34 N           0.4539  -17.9974  -41.8027 N.am      8 UNK        -0.5000 
     35 C          -0.6034  -18.8194  -41.8656 C.2       7 UNK         0.5000 
     36 O          -0.5514  -20.0149  -41.5765 O.2       7 UNK        -0.5000 
     37 CA         -1.9447  -18.2189  -42.3391 C.3       7 UNK         0.1400 
     38 CB         -2.9159  -18.0801  -41.1565 C.3       7 UNK        -0.1800 
     39 N          -1.8411  -16.9192  -43.0101 N.am      7 UNK        -0.5000 
     40 C          -1.1351  -16.6414  -44.1165 C.2       6 UNK         0.5000 
     41 O          -0.4539  -17.4673  -44.7208 O.2       6 UNK        -0.5000 
     42 CA         -1.1356  -15.1731  -44.5790 C.3       6 UNK         0.1400 
     43 CB         -2.2303  -14.9335  -45.6277 C.3       6 UNK        -0.1800 
     44 N          -1.2956  -14.2178  -43.4810 N.am      6 UNK        -0.5000 
     45 C          -0.4335  -14.0613  -42.4685 C.2       5 UNK         0.5000 
     46 O           0.6233  -14.6903  -42.3722 O.2       5 UNK        -0.5000 
     47 CA         -0.8350  -13.0172  -41.4118 C.3       5 UNK         0.1400 
     48 CB         -0.0442  -13.1445  -40.0992 C.3       5 UNK        -0.1800 
     49 N          -0.6780  -11.6690  -41.9535 N.am      5 UNK        -0.5000 
     50 C          -1.5934  -11.0419  -42.7069 C.2       4 UNK         0.5000 
     51 O          -2.6912  -11.5302  -42.9805 O.2       4 UNK        -0.5000 
     52 CA         -1.2301   -9.6509  -43.2641 C.3       4 UNK         0.1400 
     53 CB         -1.7829   -8.5462  -42.3510 C.3       4 UNK        -0.1800 
     54 N           0.2087   -9.4489  -43.4376 N.am      4 UNK        -0.5000 
     55 C           0.9659  -10.0763  -44.3469 C.2       3 UNK         0.5000 
     56 O           0.5213  -10.8725  -45.1756 O.2       3 UNK        -0.5000 
     57 CA          2.4835   -9.8027  -44.3141 C.3       3 UNK         0.1400 
     58 CB          2.8969   -8.5792  -43.4644 C.3       3 UNK        -0.1800 
     59 N           3.2097  -11.0018  -43.8907 N.am      3 UNK        -0.5000 
     60 C           3.0667  -11.6692  -42.7367 C.2       2 UNK         0.5000 
     61 O           2.3370  -11.3008  -41.8142 O.2       2 UNK        -0.5000 
     62 CA          3.8308  -13.0019  -42.6464 C.3       2 UNK         0.1400 
     63 CB          3.8230  -13.6219  -41.2385 C.3       2 UNK        -0.1800 
     64 N           3.2610  -13.9600  -43.5923 N.am      2 UNK        -0.5000 
     65 C           3.6163  -14.0552  -44.8788 C.2       1 UNK         0.5000 
     66 O           4.4699  -13.3336  -45.4017 O.2       1 UNK        -0.5000 
     67 C          -0.8666  -22.5869  -48.2112 C.2       11 UNK         0.5000 
     68 O          -1.7850  -23.3382  -48.5384 O.2       11 UNK        -0.5000 
     69 N          -0.9914  -21.6295  -47.2803 N.am      12 UNK        -0.5000 
     70 CA         -2.2337  -21.3283  -46.5669 C.3       12 UNK         0.1400 
     71 CB         -2.0774  -20.0249  -45.7762 C.3       12 UNK        -0.1800 
     72 C          -2.6836  -22.4813  -45.6551 C.2       12 UNK         0.5000 
     73 O          -3.8748  -22.7908  -45.6189 O.2       12 UNK        -0.5000 
     74 N          -1.7174  -23.1420  -45.0010 N.am      13 UNK        -0.5000 
     75 CA         -1.9229  -24.3578  -44.2081 C.3       13 UNK         0.1400 
     76 CB         -0.6150  -24.7195  -43.4896 C.3       13 UNK        -0.1800 
     77 C          -2.4386  -25.5537  -45.0382 C.2       13 UNK         0.5000 
     78 O          -3.1543  -26.3991  -44.5015 O.2       13 UNK        -0.5000 
     79 N          -2.1117  -25.5769  -46.3373 N.am      14 UNK        -0.5000 
     80 CA         -2.5935  -26.5359  -47.3324 C.3       14 UNK         0.1400 
     81 CB         -1.4610  -26.8146  -48.3376 C.3       14 UNK        -0.1800 
     82 C          -3.8836  -26.0559  -48.0355 C.2       14 UNK         0.5000 
     83 O          -4.1351  -26.4499  -49.1755 O.2       14 UNK        -0.5000 
     84 N          -4.6738  -25.2047  -47.3621 N.am      15 UNK        -0.5000 
     85 CA         -5.9399  -24.6164  -47.8152 C.3       15 UNK         0.1400 
     86 CB         -7.0244  -25.7029  -47.9742 C.3       15 UNK        -0.1800 
     87 C          -5.7622  -23.7518  -49.0783 C.2       15 UNK         0.5000 
     88 O          -6.5086  -23.9012  -50.0468 O.2       15 UNK        -0.5000 
     89 N          -4.7354  -22.8911  -49.0495 N.am      16 UNK        -0.5000 
     90 CA         -4.2590  -22.0467  -50.1507 C.3       16 UNK         0.1400 
     91 CB         -5.2929  -20.9587  -50.5077 C.3       16 UNK        -0.1800 
     92 C          -3.8135  -22.8885  -51.3628 C.2       16 UNK         0.5000 
     93 O          -4.2059  -22.5981  -52.4931 O.2       16 UNK        -0.5000 
     94 N          -3.0377  -23.9447  -51.0758 N.am      17 UNK        -0.5000 
     95 CA         -2.5711  -24.9922  -51.9901 C.3       17 UNK         0.1400 
     96 CB         -1.4751  -24.4453  -52.9258 C.3       17 UNK        -0.1800 
     97 C          -3.7348  -25.6729  -52.7411 C.2       17 UNK         0.5000 
     98 O          -3.7134  -25.7676  -53.9692 O.2       17 UNK        -0.5000 
     99 N          -4.7430  -26.1045  -51.9692 N.am      18 UNK        -0.5000 
    100 CA        -6.0240  -26.6636  -52.4103 C.3       18 UNK         0.1400 
    101 CB        -5.8222  -28.0490  -53.0589 C.3       18 UNK        -0.1800 
    102 C         -6.8176  -25.6799  -53.2979 C.2       18 UNK         0.5000 
    103 O         -7.2540  -26.0407  -54.3930 O.2       18 UNK        -0.5000 
    104 N         -6.9816  -24.4498  -52.7904 N.am      19 UNK        -0.5000 
    105 CA        -7.6867  -23.3166  -53.3947 C.3       19 UNK         0.1400 
    106 CB        -9.2045  -23.5895  -53.4451 C.3       19 UNK        -0.1800 
    107 C         -7.1012  -22.8814  -54.7554 C.2       19 UNK         0.5000 
    108 O         -7.8483  -22.6608  -55.7110 O.2       19 UNK        -0.5000 
    109 N         -5.7691  -22.7503  -54.8172 N.am      20 UNK        -0.5000 
    110 CA        -5.0398  -22.2488  -55.9841 C.3       20 UNK         0.1400 
    111 CB        -3.5516  -22.6035  -55.8499 C.3       20 UNK        -0.1800 
    112 C         -5.2078  -20.7298  -56.1726 C.2       20 UNK         0.5000 
    113 O         -5.1673  -20.2547  -57.3084 O.2       20 UNK        -0.5000 
    114 N         -5.3855  -20.0016  -55.0571 N.am      21 UNK        -0.5000 
    115 CA        -5.6783  -18.5632  -54.9663 C.3       21 UNK         0.1400 
    116 CB        -7.1321  -18.2990  -55.4094 C.3       21 UNK        -0.1800 
    117 C         -4.6576  -17.6645  -55.7023 C.2       21 UNK         0.5000 
    118 O         -5.0365  -16.6548  -56.2987 O.2       21 UNK        -0.5000 
    119 N         -3.3824  -18.0723  -55.6596 N.am      22 UNK        -0.5000 
    120 CA        -2.2393  -17.4634  -56.3658 C.3       22 UNK         0.1400 
    121 C         -2.2527  -17.6570  -57.9147 C.2       22 UNK         0.5000 
    122 N         -3.1104  -18.4972  -58.4827 N.am      22 UNK        -0.7600 
    123 O         -1.4446  -17.0589  -58.6203 O.2       22 UNK        -0.5000 
    124 C124       -1.9528  -15.9841  -55.9637 C.3       23 UNK        -0.0398 
    125 S125       -1.8394  -15.7218  -54.1609 S.3       23 UNK        -0.2404 
    126 C126       -0.1070  -16.1867  -53.8442 C.3       23 UNK        -0.0205 
    127 H127        5.5611  -17.5134  -47.5222 H         1 UNK         0.0600 
    128 H128        5.4962  -18.7586  -46.2731 H         1 UNK         0.0600 
    129 H129        6.6769  -17.4504  -46.1544 H         1 UNK         0.0600 
    130 H130        4.0119  -15.9354  -47.3226 H         1 UNK         0.3000 
    131 H131        2.2400  -15.7009  -45.0901 H         1 UNK         0.0600 
    132 H132        1.4161  -13.6445  -46.3797 H         1 UNK         0.0800 
    133 H133        2.6652  -13.9151  -47.5580 H         1 UNK         0.0800 
    134 H134        2.3236  -15.1543  -49.5826 H         1 UNK         0.0800 
    135 H135        2.6472  -16.7217  -48.8723 H         1 UNK         0.0800 
    136 H136        1.3268  -15.2225  -51.7140 H         1 UNK         0.1150 
    137 H137       -1.1889  -18.4802  -52.9014 H         1 UNK         0.1150 
    138 H138        0.4164  -18.3532  -48.9281 H         1 UNK         0.1150 
    139 H139       -1.4162  -19.9097  -49.4939 H         1 UNK         0.0800 
    140 H140       -2.2022  -19.7925  -51.0439 H         1 UNK         0.0800 
    141 H141        1.0124  -20.6602  -49.2830 H         1 UNK         0.0800 
    142 H142        1.8223  -21.7958  -50.3148 H         1 UNK         0.0800 
    143 H143        0.5075  -23.6795  -49.4348 H         1 UNK         0.0600 
    144 H144        2.2509  -22.1432  -47.8055 H         1 UNK         0.3000 
    145 H145        2.3043  -24.0577  -44.8710 H         1 UNK         0.0600 
    146 H146        3.8488  -25.3708  -46.3303 H         1 UNK         0.0600 
    147 H147        4.4468  -23.8858  -47.0604 H         1 UNK         0.0600 
    148 H148        4.7351  -24.2135  -45.3511 H         1 UNK         0.0600 
    149 H149        3.8531  -21.8417  -45.7895 H         1 UNK         0.3000 
    150 H150        3.5026  -19.7595  -45.0933 H         1 UNK         0.0600 
    151 H151        2.0572  -18.1117  -46.3532 H         1 UNK         0.0600 
    152 H152        0.7666  -19.2935  -46.4070 H         1 UNK         0.0600 
    153 H153        2.2862  -19.6075  -47.2411 H         1 UNK         0.0600 
    154 H154        1.1158  -18.5367  -44.0360 H         1 UNK         0.3000 
    155 H155        1.8229  -19.0326  -40.6283 H         1 UNK         0.0600 
    156 H156        2.7428  -16.5366  -42.1532 H         1 UNK         0.0600 
    157 H157        3.7032  -17.4477  -40.9982 H         1 UNK         0.0600 
    158 H158        2.2776  -16.5753  -40.4525 H         1 UNK         0.0600 
    159 H159        0.3256  -17.0252  -42.0506 H         1 UNK         0.3000 
    160 H160       -2.3754  -18.9232  -43.0518 H         1 UNK         0.0600 
    161 H161       -3.0530  -19.0348  -40.6468 H         1 UNK         0.0600 
    162 H162       -3.8998  -17.7489  -41.4892 H         1 UNK         0.0600 
    163 H163       -2.5503  -17.3641  -40.4192 H         1 UNK         0.0600 
    164 H164       -2.3515  -16.1604  -42.5835 H         1 UNK         0.3000 
    165 H165       -0.1678  -14.9777  -45.0382 H         1 UNK         0.0600 
    166 H166       -2.1738  -13.9220  -46.0306 H         1 UNK         0.0600 
    167 H167       -2.1230  -15.6223  -46.4671 H         1 UNK         0.0600 
    168 H168       -3.2276  -15.0757  -45.2100 H         1 UNK         0.0600 
    169 H169       -2.1094  -13.6153  -43.5107 H         1 UNK         0.3000 
    170 H170       -1.8845  -13.1925  -41.1657 H         1 UNK         0.0600 
    171 H171       -0.4598  -12.4932  -39.3304 H         1 UNK         0.0600 
    172 H172       -0.0805  -14.1648  -39.7152 H         1 UNK         0.0600 
    173 H173        1.0024  -12.8761  -40.2239 H         1 UNK         0.0600 
    174 H174        0.2361  -11.2457  -41.8330 H         1 UNK         0.3000 
    175 H175       -1.7064   -9.5551  -44.2421 H         1 UNK         0.0600 
    176 H176       -1.3287   -8.5786  -41.3598 H         1 UNK         0.0600 
    177 H177       -1.6010   -7.5574  -42.7726 H         1 UNK         0.0600 
    178 H178       -2.8611   -8.6494  -42.2216 H         1 UNK         0.0600 
    179 H179        0.6626   -8.8333  -42.7784 H         1 UNK         0.3000 
    180 H180        2.7813   -9.6041  -45.3446 H         1 UNK         0.0600 
    181 H181        3.9685   -8.3972  -43.5466 H         1 UNK         0.0600 
    182 H182        2.6684   -8.7063  -42.4059 H         1 UNK         0.0600 
    183 H183        2.3929   -7.6750  -43.8080 H         1 UNK         0.0600 
    184 H184        3.7882  -11.4356  -44.6010 H         1 UNK         0.3000 
    185 H185        4.8727  -12.7982  -42.9031 H         1 UNK         0.0600 
    186 H186        2.8311  -13.9657  -40.9507 H         1 UNK         0.0600 
    187 H187        4.4928  -14.4806  -41.1895 H         1 UNK         0.0600 
    188 H188        4.1586  -12.9047  -40.4887 H         1 UNK         0.0600 
    189 H189        2.4912  -14.5170  -43.2359 H         1 UNK         0.3000 
    190 H190       -0.1774  -21.1050  -47.0004 H         1 UNK         0.3000 
    191 H191       -3.0164  -21.1701  -47.3109 H         1 UNK         0.0600 
    192 H192       -1.3033  -20.1056  -45.0125 H         1 UNK         0.0600 
    193 H193       -3.0088  -19.7600  -45.2750 H         1 UNK         0.0600 
    194 H194       -1.8170  -19.1942  -46.4325 H         1 UNK         0.0600 
    195 H195       -0.7694  -22.7807  -45.0473 H         1 UNK         0.3000 
    196 H196       -2.6769  -24.1330  -43.4509 H         1 UNK         0.0600 
    197 H197       -0.7605  -25.5679  -42.8199 H         1 UNK         0.0600 
    198 H198       -0.2500  -23.8868  -42.8876 H         1 UNK         0.0600 
    199 H199        0.1681  -24.9921  -44.1964 H         1 UNK         0.0600 
    200 H200       -1.5102  -24.8446  -46.6931 H         1 UNK         0.3000 
    201 H201       -2.8363  -27.4783  -46.8380 H         1 UNK         0.0600 
    202 H202       -0.5627  -27.1647  -47.8288 H         1 UNK         0.0600 
    203 H203       -1.1944  -25.9222  -48.9037 H         1 UNK         0.0600 
    204 H204       -1.7471  -27.5862  -49.0533 H         1 UNK         0.0600 
    205 H205       -4.3550  -24.8889  -46.4554 H         1 UNK         0.3000 
    206 H206       -6.2653  -23.9391  -47.0244 H         1 UNK         0.0600 
    207 H207       -7.9937  -25.2555  -48.1972 H         1 UNK         0.0600 
    208 H208       -6.7928  -26.3963  -48.7832 H         1 UNK         0.0600 
    209 H209       -7.1382  -26.2826  -47.0583 H         1 UNK         0.0600 
    210 H210       -4.1403  -22.9158  -48.2328 H         1 UNK         0.3000 
    211 H211       -3.3678  -21.5400  -49.7850 H         1 UNK         0.0600 
    212 H212       -6.2098  -21.3841  -50.9151 H         1 UNK         0.0600 
    213 H213       -4.8930  -20.2707  -51.2535 H         1 UNK         0.0600 
    214 H214       -5.5589  -20.3676  -49.6316 H         1 UNK         0.0600 
    215 H215       -2.7523  -24.0489  -50.1073 H         1 UNK         0.3000 
    216 H216       -2.1170  -25.7657  -51.3693 H         1 UNK         0.0600 
    217 H217       -1.1038  -25.2227  -53.5942 H         1 UNK         0.0600 
    218 H218       -0.6224  -24.0787  -52.3552 H         1 UNK         0.0600 
    219 H219       -1.8413  -23.6264  -53.5441 H         1 UNK         0.0600 
    220 H220       -4.6309  -26.0201  -50.9612 H         1 UNK         0.3000 
    221 H221       -6.6185  -26.8082  -51.5069 H         1 UNK         0.0600 
    222 H222       -5.2610  -27.9847  -53.9915 H         1 UNK         0.0600 
    223 H223       -5.2854  -28.7217  -52.3901 H         1 UNK         0.0600 
    224 H224       -6.7814  -28.5152  -53.2867 H         1 UNK         0.0600 
    225 H225       -6.6085  -24.2691  -51.8602 H         1 UNK         0.3000 
    226 H226       -7.5316  -22.4742  -52.7196 H         1 UNK         0.0600 
    227 H227       -9.5892  -23.8532  -52.4599 H         1 UNK         0.0600 
    228 H228       -9.7498  -22.7060  -53.7790 H         1 UNK         0.0600 
    229 H229       -9.4482  -24.4027  -54.1294 H         1 UNK         0.0600 
    230 H230       -5.2169  -22.9173  -53.9772 H         1 UNK         0.3000 
    231 H231       -5.4299  -22.7439  -56.8758 H         1 UNK         0.0600 
    232 H232       -3.0999  -22.1211  -54.9826 H         1 UNK         0.0600 
    233 H233       -3.4101  -23.6793  -55.7475 H         1 UNK         0.0600 
    234 H234       -2.9930  -22.2843  -56.7307 H         1 UNK         0.0600 
    235 H235       -5.3618  -20.5000  -54.1783 H         1 UNK         0.3000 
    236 H236       -5.6026  -18.3003  -53.9103 H         1 UNK         0.0600 
    237 H237       -7.2714  -18.5012  -56.4719 H         1 UNK         0.0600 
    238 H238       -7.8325  -18.9243  -54.8556 H         1 UNK         0.0600 
    239 H239       -7.4159  -17.2611  -55.2318 H         1 UNK         0.0600 
    240 H240       -3.1797  -18.9238  -55.1575 H         1 UNK         0.3000 
    241 H241       -1.3785  -18.0475  -56.0399 H         1 UNK         0.0600 
    242 H242       -3.0915  -18.6136  -59.4834 H         1 UNK         0.3800 
    243 H243       -3.7964  -19.0103  -57.9374 H         1 UNK         0.3800 
    244 H244       -1.0238  -15.6347  -56.4174 H         1 UNK         0.0800 
    245 H245       -2.7344  -15.3289  -56.3502 H         1 UNK         0.0800 
    246 H246        0.2283  -16.9212  -54.5773 H         1 UNK         0.0800 
    247 H247        0.5284  -15.3089  -53.9711 H         1 UNK         0.0800 
@<TRIPOS>BOND
     1    1    2 1    
     2    1  127 1    
     3    1  128 1    
     4    1  129 1    
     5    2    3 2    
     6    2    4 am   BACKBONE|DICT|INTERRES
     7    4    5 1    
     8    4  130 1    
     9    5    6 1    
    10    5   65 1    
    11    5  131 1    
    12    6    7 1    
    13    6  132 1    
    14    6  133 1    
    15    7    8 1    
    16    8    9 1    
    17    8  134 1    
    18    8  135 1    
    19    9   10 ar   
    20    9   14 ar   
    21   10   11 ar   
    22   10  136 1    
    23   11   12 ar   
    24   11  126 1    
    25   12   13 ar   
    26   12  137 1    
    27   13   14 ar   
    28   13   15 1    
    29   14  138 1    
    30   15   16 1    
    31   15  139 1    
    32   15  140 1    
    33   16   17 1    
    34   17   18 1    
    35   17  141 1    
    36   17  142 1    
    37   18   19 1    
    38   18   67 1    
    39   18  143 1    
    40   19   20 am   BACKBONE|DICT|INTERRES
    41   19  144 1    
    42   20   21 2    
    43   20   22 1    
    44   22   23 1    
    45   22   24 1    
    46   22  145 1    
    47   23  146 1    
    48   23  147 1    
    49   23  148 1    
    50   24   25 am   BACKBONE|DICT|INTERRES
    51   24  149 1    
    52   25   26 2    
    53   25   27 1    
    54   27   28 1    
    55   27   29 1    
    56   27  150 1    
    57   28  151 1    
    58   28  152 1    
    59   28  153 1    
    60   29   30 am   BACKBONE|DICT|INTERRES
    61   29  154 1    
    62   30   31 2    
    63   30   32 1    
    64   32   33 1    
    65   32   34 1    
    66   32  155 1    
    67   33  156 1    
    68   33  157 1    
    69   33  158 1    
    70   34   35 am   BACKBONE|DICT|INTERRES
    71   34  159 1    
    72   35   36 2    
    73   35   37 1    
    74   37   38 1    
    75   37   39 1    
    76   37  160 1    
    77   38  161 1    
    78   38  162 1    
    79   38  163 1    
    80   39   40 am   BACKBONE|DICT|INTERRES
    81   39  164 1    
    82   40   41 2    
    83   40   42 1    
    84   42   43 1    
    85   42   44 1    
    86   42  165 1    
    87   43  166 1    
    88   43  167 1    
    89   43  168 1    
    90   44   45 am   BACKBONE|DICT|INTERRES
    91   44  169 1    
    92   45   46 2    
    93   45   47 1    
    94   47   48 1    
    95   47   49 1    
    96   47  170 1    
    97   48  171 1    
    98   48  172 1    
    99   48  173 1    
   100   49   50 am   BACKBONE|DICT|INTERRES
   101   49  174 1    
   102   50   51 2    
   103   50   52 1    
   104   52   53 1    
   105   52   54 1    
   106   52  175 1    
   107   53  176 1    
   108   53  177 1    
   109   53  178 1    
   110   54   55 am   BACKBONE|DICT|INTERRES
   111   54  179 1    
   112   55   56 2    
   113   55   57 1    
   114   57   58 1    
   115   57   59 1    
   116   57  180 1    
   117   58  181 1    
   118   58  182 1    
   119   58  183 1    
   120   59   60 am   BACKBONE|DICT|INTERRES
   121   59  184 1    
   122   60   61 2    
   123   60   62 1    
   124   62   63 1    
   125   62   64 1    
   126   62  185 1    
   127   63  186 1    
   128   63  187 1    
   129   63  188 1    
   130   64   65 am   BACKBONE|DICT|INTERRES
   131   64  189 1    
   132   65   66 2    
   133   67   68 2    
   134   67   69 am   BACKBONE|DICT|INTERRES
   135   69   70 1    
   136   69  190 1    
   137   70   71 1    
   138   70   72 1    
   139   70  191 1    
   140   71  192 1    
   141   71  193 1    
   142   71  194 1    
   143   72   73 2    
   144   72   74 am   BACKBONE|DICT|INTERRES
   145   74   75 1    
   146   74  195 1    
   147   75   76 1    
   148   75   77 1    
   149   75  196 1    
   150   76  197 1    
   151   76  198 1    
   152   76  199 1    
   153   77   78 2    
   154   77   79 am   BACKBONE|DICT|INTERRES
   155   79   80 1    
   156   79  200 1    
   157   80   81 1    
   158   80   82 1    
   159   80  201 1    
   160   81  202 1    
   161   81  203 1    
   162   81  204 1    
   163   82   83 2    
   164   82   84 am   BACKBONE|DICT|INTERRES
   165   84   85 1    
   166   84  205 1    
   167   85   86 1    
   168   85   87 1    
   169   85  206 1    
   170   86  207 1    
   171   86  208 1    
   172   86  209 1    
   173   87   88 2    
   174   87   89 am   BACKBONE|DICT|INTERRES
   175   89   90 1    
   176   89  210 1    
   177   90   91 1    
   178   90   92 1    
   179   90  211 1    
   180   91  212 1    
   181   91  213 1    
   182   91  214 1    
   183   92   93 2    
   184   92   94 am   BACKBONE|DICT|INTERRES
   185   94   95 1    
   186   94  215 1    
   187   95   96 1    
   188   95   97 1    
   189   95  216 1    
   190   96  217 1    
   191   96  218 1    
   192   96  219 1    
   193   97   98 2    
   194   97   99 am   BACKBONE|DICT|INTERRES
   195   99  100 1    
   196   99  220 1    
   197  100  101 1    
   198  100  102 1    
   199  100  221 1    
   200  101  222 1    
   201  101  223 1    
   202  101  224 1    
   203  102  103 2    
   204  102  104 am   BACKBONE|DICT|INTERRES
   205  104  105 1    
   206  104  225 1    
   207  105  106 1    
   208  105  107 1    
   209  105  226 1    
   210  106  227 1    
   211  106  228 1    
   212  106  229 1    
   213  107  108 2    
   214  107  109 am   BACKBONE|DICT|INTERRES
   215  109  110 1    
   216  109  230 1    
   217  110  111 1    
   218  110  112 1    
   219  110  231 1    
   220  111  232 1    
   221  111  233 1    
   222  111  234 1    
   223  112  113 2    
   224  112  114 am   BACKBONE|DICT|INTERRES
   225  114  115 1    
   226  114  235 1    
   227  115  116 1    
   228  115  117 1    
   229  115  236 1    
   230  116  237 1    
   231  116  238 1    
   232  116  239 1    
   233  117  118 2    
   234  117  119 am   BACKBONE|DICT|INTERRES
   235  119  120 1    
   236  119  240 1    
   237  120  121 1    
   238  120  124 1    
   239  120  241 1    
   240  121  122 am   BACKBONE|DICT|INTERRES
   241  121  123 2    
   242  122  242 1    
   243  122  243 1    
   244  124  125 1    
   245  124  244 1    
   246  124  245 1    
   247  125  126 1    
   248  126  246 1    
   249  126  247 1    
@<TRIPOS>SUBSTRUCTURE
     1 UNK         1 GROUP             0       ****    0 ROOT    
