@<TRIPOS>MOLECULE
3R540
247   249    1
SMALL
USER_CHARGES


@<TRIPOS>ATOM
      1 CA         -4.3805  -11.3323  -47.6198 C.3       0 UNK        -0.1800 
      2 C          -3.2963  -11.9368  -48.5007 C.2       0 UNK         0.5000 
      3 O          -3.1913  -11.5813  -49.6745 O.2       0 UNK        -0.5000 
      4 N          -2.4906  -12.8470  -47.9391 N.am      1 UNK        -0.5000 
      5 CA         -1.4064  -13.5510  -48.6370 C.3       1 UNK         0.1400 
      6 C6         -0.9421  -14.8094  -47.8634 C.3       23 UNK        -0.0398 
      7 S7         -2.2544  -16.0535  -47.5935 S.3       23 UNK        -0.2404 
      8 C8         -2.5880  -16.7057  -49.2660 C.3       23 UNK        -0.0205 
      9 C9         -1.3294  -16.9320  -50.0909 C.ar      23 UNK        -0.0193 
     10 C10        -1.0927  -16.1637  -51.2328 C.ar      23 UNK        -0.1150 
     11 C11         0.0740  -16.3386  -51.9804 C.ar      23 UNK        -0.0193 
     12 C12         1.0072  -17.2985  -51.5773 C.ar      23 UNK        -0.1150 
     13 C13         0.7829  -18.0818  -50.4389 C.ar      23 UNK        -0.0193 
     14 C14        -0.3914  -17.8904  -49.7017 C.ar      23 UNK        -0.1150 
     15 C15         1.8400  -19.0901  -49.9966 C.3       23 UNK        -0.0205 
     16 S16         1.1813  -20.7665  -49.7097 S.3       23 UNK        -0.2404 
     17 C17         1.0048  -20.7594  -47.8948 C.3       23 UNK        -0.0398 
     18 CA          0.3165  -22.0201  -47.3254 C.3       11 UNK         0.1400 
     19 N           0.4775  -22.0884  -45.8730 N.am      11 UNK        -0.5000 
     20 C           0.1493  -23.1354  -45.1065 C.2       10 UNK         0.5000 
     21 O          -0.3407  -24.1763  -45.5441 O.2       10 UNK        -0.5000 
     22 CA          0.3645  -22.9711  -43.5919 C.3       10 UNK         0.1400 
     23 CB          1.8509  -23.1107  -43.2313 C.3       10 UNK        -0.1800 
     24 N          -0.1480  -21.6937  -43.0941 N.am      10 UNK        -0.5000 
     25 C          -1.4457  -21.3551  -43.0960 C.2       9 UNK         0.5000 
     26 O          -2.3461  -22.1025  -43.4743 O.2       9 UNK        -0.5000 
     27 CA         -1.8023  -19.9354  -42.6256 C.3       9 UNK         0.1400 
     28 CB         -1.8362  -19.8676  -41.0916 C.3       9 UNK        -0.1800 
     29 N          -0.8983  -18.9109  -43.1482 N.am      9 UNK        -0.5000 
     30 C          -0.7351  -18.6301  -44.4500 C.2       8 UNK         0.5000 
     31 O          -1.3251  -19.2112  -45.3602 O.2       8 UNK        -0.5000 
     32 CA          0.3097  -17.5568  -44.7961 C.3       8 UNK         0.1400 
     33 CB         -0.1924  -16.1562  -44.4112 C.3       8 UNK        -0.1800 
     34 N           1.5921  -17.8023  -44.1420 N.am      8 UNK        -0.5000 
     35 C           2.3400  -18.9060  -44.2708 C.2       7 UNK         0.5000 
     36 O           2.0570  -19.8516  -45.0050 O.2       7 UNK        -0.5000 
     37 CA          3.5905  -18.9856  -43.3820 C.3       7 UNK         0.1400 
     38 CB          4.7323  -18.1340  -43.9591 C.3       7 UNK        -0.1800 
     39 N           3.3062  -18.5667  -42.0098 N.am      7 UNK        -0.5000 
     40 C           2.5310  -19.2471  -41.1538 C.2       6 UNK         0.5000 
     41 O           1.9849  -20.3174  -41.4230 O.2       6 UNK        -0.5000 
     42 CA          2.3041  -18.6026  -39.7744 C.3       6 UNK         0.1400 
     43 CB          3.4985  -18.8689  -38.8459 C.3       6 UNK        -0.1800 
     44 N           2.0641  -17.1609  -39.8585 N.am      6 UNK        -0.5000 
     45 C           0.9706  -16.6150  -40.4073 C.2       5 UNK         0.5000 
     46 O           0.0510  -17.2693  -40.8974 O.2       5 UNK        -0.5000 
     47 CA          0.9094  -15.0773  -40.4522 C.3       5 UNK         0.1400 
     48 CB          0.4443  -14.5165  -39.0997 C.3       5 UNK        -0.1800 
     49 N           2.1602  -14.4197  -40.8477 N.am      5 UNK        -0.5000 
     50 C           2.8426  -14.6711  -41.9725 C.2       4 UNK         0.5000 
     51 O           2.6004  -15.6118  -42.7297 O.2       4 UNK        -0.5000 
     52 CA          3.9994  -13.7150  -42.3156 C.3       4 UNK         0.1400 
     53 CB          5.3329  -14.2962  -41.8220 C.3       4 UNK        -0.1800 
     54 N           4.0856  -13.4789  -43.7600 N.am      4 UNK        -0.5000 
     55 C           3.1186  -12.9196  -44.5002 C.2       3 UNK         0.5000 
     56 O           2.0867  -12.4319  -44.0271 O.2       3 UNK        -0.5000 
     57 CA          3.3341  -12.9209  -46.0221 C.3       3 UNK         0.1400 
     58 CB          3.2802  -14.3509  -46.5934 C.3       3 UNK        -0.1800 
     59 N           2.2827  -12.1232  -46.6431 N.am      3 UNK        -0.5000 
     60 C           2.4043  -11.3455  -47.7235 C.2       2 UNK         0.5000 
     61 O           3.4552  -11.2021  -48.3515 O.2       2 UNK        -0.5000 
     62 CA          1.1095  -10.6305  -48.1702 C.3       2 UNK         0.1400 
     63 CB          1.2494   -9.8894  -49.5169 C.3       2 UNK        -0.1800 
     64 N          -0.0414  -11.5447  -48.1823 N.am      2 UNK        -0.5000 
     65 C          -0.1838  -12.6528  -48.9295 C.2       1 UNK         0.5000 
     66 O           0.6129  -13.0007  -49.8013 O.2       1 UNK        -0.5000 
     67 C          -1.1644  -22.1368  -47.7454 C.2       11 UNK         0.5000 
     68 O          -1.4822  -22.9569  -48.6057 O.2       11 UNK        -0.5000 
     69 N          -2.0500  -21.3755  -47.0869 N.am      12 UNK        -0.5000 
     70 CA         -3.4954  -21.3949  -47.3253 C.3       12 UNK         0.1400 
     71 CB         -4.1291  -20.1464  -46.6943 C.3       12 UNK        -0.1800 
     72 C          -4.2033  -22.6747  -46.8339 C.2       12 UNK         0.5000 
     73 O          -5.3502  -22.9036  -47.2200 O.2       12 UNK        -0.5000 
     74 N          -3.5349  -23.4797  -45.9973 N.am      13 UNK        -0.5000 
     75 CA         -3.9909  -24.8088  -45.5957 C.3       13 UNK         0.1400 
     76 CB         -3.4925  -25.1296  -44.1783 C.3       13 UNK        -0.1800 
     77 C          -3.5224  -25.8772  -46.5974 C.2       13 UNK         0.5000 
     78 O          -4.3157  -26.7432  -46.9666 O.2       13 UNK        -0.5000 
     79 N          -2.2518  -25.7960  -47.0224 N.am      14 UNK        -0.5000 
     80 CA         -1.6321  -26.6923  -48.0014 C.3       14 UNK         0.1400 
     81 CB         -0.1211  -26.4180  -48.0632 C.3       14 UNK        -0.1800 
     82 C          -2.2754  -26.5681  -49.3937 C.2       14 UNK         0.5000 
     83 O          -2.6969  -27.5727  -49.9684 O.2       14 UNK        -0.5000 
     84 N          -2.3875  -25.3281  -49.8800 N.am      15 UNK        -0.5000 
     85 CA         -3.1977  -24.9458  -51.0282 C.3       15 UNK         0.1400 
     86 CB         -2.4450  -23.8743  -51.8323 C.3       15 UNK        -0.1800 
     87 C          -4.5290  -24.4385  -50.4594 C.2       15 UNK         0.5000 
     88 O          -4.6853  -23.2353  -50.2518 O.2       15 UNK        -0.5000 
     89 N          -5.4075  -25.3943  -50.1240 N.am      16 UNK        -0.5000 
     90 CA         -6.6347  -25.2370  -49.3390 C.3       16 UNK         0.1400 
     91 CB         -7.4316  -26.5491  -49.3944 C.3       16 UNK        -0.1800 
     92 C          -7.5194  -24.0502  -49.7634 C.2       16 UNK         0.5000 
     93 O          -7.8706  -23.9377  -50.9386 O.2       16 UNK        -0.5000 
     94 N          -7.8409  -23.1850  -48.7920 N.am      17 UNK        -0.5000 
     95 CA         -8.6028  -21.9367  -48.9278 C.3       17 UNK         0.1400 
     96 CB        -10.0551  -22.2193  -49.3669 C.3       17 UNK        -0.1800 
     97 C          -7.8982  -20.8887  -49.8179 C.2       17 UNK         0.5000 
     98 O          -8.5633  -20.0395  -50.4127 O.2       17 UNK        -0.5000 
     99 N          -6.5623  -20.9808  -49.8922 N.am      18 UNK        -0.5000 
    100 CA        -5.6432  -20.1878  -50.7125 C.3       18 UNK         0.1400 
    101 CB        -5.6930  -18.6937  -50.3323 C.3       18 UNK        -0.1800 
    102 C         -5.7899  -20.4238  -52.2331 C.2       18 UNK         0.5000 
    103 O         -5.2929  -19.6132  -53.0179 O.2       18 UNK        -0.5000 
    104 N         -6.4501  -21.5210  -52.6357 N.am      19 UNK        -0.5000 
    105 CA        -6.7206  -21.8838  -54.0273 C.3       19 UNK         0.1400 
    106 CB        -7.6785  -23.0848  -54.0645 C.3       19 UNK        -0.1800 
    107 C         -5.4246  -22.1735  -54.8068 C.2       19 UNK         0.5000 
    108 O         -4.8313  -23.2391  -54.6321 O.2       19 UNK        -0.5000 
    109 N         -5.0068  -21.1980  -55.6269 N.am      20 UNK        -0.5000 
    110 CA        -3.7775  -21.1730  -56.4297 C.3       20 UNK         0.1400 
    111 CB        -3.8086  -22.2649  -57.5198 C.3       20 UNK        -0.1800 
    112 C         -2.4850  -21.2082  -55.5837 C.2       20 UNK         0.5000 
    113 O         -1.4458  -21.6600  -56.0698 O.2       20 UNK        -0.5000 
    114 N         -2.5599  -20.7077  -54.3403 N.am      21 UNK        -0.5000 
    115 CA        -1.4700  -20.7133  -53.3581 C.3       21 UNK         0.1400 
    116 CB        -1.9977  -20.1689  -52.0252 C.3       21 UNK        -0.1800 
    117 C         -0.2109  -19.9459  -53.7998 C.2       21 UNK         0.5000 
    118 O          0.8967  -20.3240  -53.4176 O.2       21 UNK        -0.5000 
    119 N         -0.4015  -18.9126  -54.6279 N.am      22 UNK        -0.5000 
    120 CA         0.6776  -18.1248  -55.2394 C.3       22 UNK         0.1400 
    121 C          1.4592  -18.8640  -56.3682 C.2       22 UNK         0.5000 
    122 N          1.0321  -20.0340  -56.8323 N.am      22 UNK        -0.7600 
    123 O          2.4803  -18.3643  -56.8325 O.2       22 UNK        -0.5000 
    124 C124        0.1854  -16.7397  -55.7352 C.3       23 UNK        -0.0398 
    125 S125       -0.8390  -15.8039  -54.5460 S.3       23 UNK        -0.2404 
    126 C126        0.3313  -15.4548  -53.1936 C.3       23 UNK        -0.0205 
    127 H127       -4.2516  -10.2520  -47.5540 H         1 UNK         0.0600 
    128 H128       -4.3563  -11.7402  -46.6090 H         1 UNK         0.0600 
    129 H129       -5.3641  -11.5343  -48.0441 H         1 UNK         0.0600 
    130 H130       -2.6439  -13.1204  -46.9788 H         1 UNK         0.3000 
    131 H131       -1.7922  -13.8716  -49.6060 H         1 UNK         0.0600 
    132 H132       -0.1035  -15.2932  -48.3671 H         1 UNK         0.0800 
    133 H133       -0.5586  -14.5194  -46.8844 H         1 UNK         0.0800 
    134 H134       -3.2677  -16.0233  -49.7785 H         1 UNK         0.0800 
    135 H135       -3.1204  -17.6520  -49.1682 H         1 UNK         0.0800 
    136 H136       -1.8110  -15.4166  -51.5397 H         1 UNK         0.1150 
    137 H137        1.9174  -17.4288  -52.1449 H         1 UNK         0.1150 
    138 H138       -0.5833  -18.4723  -48.8144 H         1 UNK         0.1150 
    139 H139        2.6177  -19.1724  -50.7574 H         1 UNK         0.0800 
    140 H140        2.3348  -18.7189  -49.0982 H         1 UNK         0.0800 
    141 H141        0.4934  -19.8585  -47.5578 H         1 UNK         0.0800 
    142 H142        2.0160  -20.6920  -47.4919 H         1 UNK         0.0800 
    143 H143        0.8341  -22.8906  -47.7343 H         1 UNK         0.0600 
    144 H144        0.8931  -21.2711  -45.4319 H         1 UNK         0.3000 
    145 H145       -0.1823  -23.7722  -43.0902 H         1 UNK         0.0600 
    146 H146        1.9967  -23.0875  -42.1513 H         1 UNK         0.0600 
    147 H147        2.2543  -24.0570  -43.5940 H         1 UNK         0.0600 
    148 H148        2.4494  -22.3089  -43.6652 H         1 UNK         0.0600 
    149 H149        0.5348  -21.0367  -42.7316 H         1 UNK         0.3000 
    150 H150       -2.8040  -19.7089  -42.9967 H         1 UNK         0.0600 
    151 H151       -2.5014  -20.6276  -40.6801 H         1 UNK         0.0600 
    152 H152       -2.1995  -18.8988  -40.7487 H         1 UNK         0.0600 
    153 H153       -0.8469  -20.0262  -40.6604 H         1 UNK         0.0600 
    154 H154       -0.3841  -18.3707  -42.4582 H         1 UNK         0.3000 
    155 H155        0.4717  -17.5810  -45.8758 H         1 UNK         0.0600 
    156 H156       -0.2964  -16.0483  -43.3320 H         1 UNK         0.0600 
    157 H157       -1.1684  -15.9517  -44.8503 H         1 UNK         0.0600 
    158 H158        0.4938  -15.3823  -44.7547 H         1 UNK         0.0600 
    159 H159        1.9308  -17.0624  -43.5285 H         1 UNK         0.3000 
    160 H160        3.9199  -20.0266  -43.3590 H         1 UNK         0.0600 
    161 H161        5.6363  -18.2269  -43.3572 H         1 UNK         0.0600 
    162 H162        4.4687  -17.0770  -44.0068 H         1 UNK         0.0600 
    163 H163        4.9815  -18.4541  -44.9715 H         1 UNK         0.0600 
    164 H164        3.6505  -17.6593  -41.7328 H         1 UNK         0.3000 
    165 H165        1.4205  -19.0687  -39.3328 H         1 UNK         0.0600 
    166 H166        3.3098  -18.4875  -37.8422 H         1 UNK         0.0600 
    167 H167        3.6905  -19.9389  -38.7551 H         1 UNK         0.0600 
    168 H168        4.4116  -18.4017  -39.2168 H         1 UNK         0.0600 
    169 H169        2.7784  -16.5501  -39.4905 H         1 UNK         0.3000 
    170 H170        0.1605  -14.8091  -41.2000 H         1 UNK         0.0600 
    171 H171       -0.4940  -14.9770  -38.7871 H         1 UNK         0.0600 
    172 H172        1.1778  -14.6993  -38.3135 H         1 UNK         0.0600 
    173 H173        0.2726  -13.4414  -39.1559 H         1 UNK         0.0600 
    174 H174        2.4474  -13.6393  -40.2749 H         1 UNK         0.3000 
    175 H175        3.8264  -12.7555  -41.8240 H         1 UNK         0.0600 
    176 H176        5.5565  -15.2521  -42.2978 H         1 UNK         0.0600 
    177 H177        6.1602  -13.6169  -42.0283 H         1 UNK         0.0600 
    178 H178        5.3123  -14.4631  -40.7443 H         1 UNK         0.0600 
    179 H179        4.8877  -13.8747  -44.2271 H         1 UNK         0.3000 
    180 H180        4.3108  -12.4773  -46.2257 H         1 UNK         0.0600 
    181 H181        2.3267  -14.8343  -46.3773 H         1 UNK         0.0600 
    182 H182        4.0674  -14.9777  -46.1732 H         1 UNK         0.0600 
    183 H183        3.4128  -14.3475  -47.6755 H         1 UNK         0.0600 
    184 H184        1.4117  -12.1210  -46.1287 H         1 UNK         0.3000 
    185 H185        0.8981   -9.8798  -47.4073 H         1 UNK         0.0600 
    186 H186        2.0190   -9.1190  -49.4581 H         1 UNK         0.0600 
    187 H187        1.5258  -10.5630  -50.3283 H         1 UNK         0.0600 
    188 H188        0.3174   -9.3965  -49.7935 H         1 UNK         0.0600 
    189 H189       -0.7642  -11.3483  -47.5045 H         1 UNK         0.3000 
    190 H190       -1.7195  -20.7127  -46.3877 H         1 UNK         0.3000 
    191 H191       -3.6528  -21.3420  -48.4039 H         1 UNK         0.0600 
    192 H192       -4.0038  -20.1401  -45.6107 H         1 UNK         0.0600 
    193 H193       -5.1985  -20.0999  -46.9045 H         1 UNK         0.0600 
    194 H194       -3.6809  -19.2340  -47.0888 H         1 UNK         0.0600 
    195 H195       -2.6200  -23.1938  -45.6757 H         1 UNK         0.3000 
    196 H196       -5.0826  -24.8283  -45.5720 H         1 UNK         0.0600 
    197 H197       -3.8179  -26.1226  -43.8659 H         1 UNK         0.0600 
    198 H198       -3.8870  -24.4165  -43.4544 H         1 UNK         0.0600 
    199 H199       -2.4050  -25.1045  -44.1118 H         1 UNK         0.0600 
    200 H200       -1.6491  -25.0798  -46.6272 H         1 UNK         0.3000 
    201 H201       -1.7774  -27.7179  -47.6562 H         1 UNK         0.0600 
    202 H202        0.3492  -26.5914  -47.0951 H         1 UNK         0.0600 
    203 H203        0.0914  -25.3891  -48.3559 H         1 UNK         0.0600 
    204 H204        0.3668  -27.0741  -48.7850 H         1 UNK         0.0600 
    205 H205       -2.0426  -24.5485  -49.3211 H         1 UNK         0.3000 
    206 H206       -3.3907  -25.7970  -51.6845 H         1 UNK         0.0600 
    207 H207       -3.0617  -23.4879  -52.6436 H         1 UNK         0.0600 
    208 H208       -2.1570  -23.0307  -51.2057 H         1 UNK         0.0600 
    209 H209       -1.5370  -24.2825  -52.2757 H         1 UNK         0.0600 
    210 H210       -5.1465  -26.3493  -50.3225 H         1 UNK         0.3000 
    211 H211       -6.3229  -25.0867  -48.3045 H         1 UNK         0.0600 
    212 H212       -7.7186  -26.8009  -50.4162 H         1 UNK         0.0600 
    213 H213       -8.3461  -26.4767  -48.8042 H         1 UNK         0.0600 
    214 H214       -6.8518  -27.3801  -48.9918 H         1 UNK         0.0600 
    215 H215       -7.4006  -23.3191  -47.8886 H         1 UNK         0.3000 
    216 H216       -8.6420  -21.5000  -47.9291 H         1 UNK         0.0600 
    217 H217      -10.6638  -21.3163  -49.3080 H         1 UNK         0.0600 
    218 H218      -10.5231  -22.9662  -48.7258 H         1 UNK         0.0600 
    219 H219      -10.1064  -22.5789  -50.3950 H         1 UNK         0.0600 
    220 H220       -6.1259  -21.7680  -49.4238 H         1 UNK         0.3000 
    221 H221       -4.6503  -20.5462  -50.4489 H         1 UNK         0.0600 
    222 H222       -6.6379  -18.2319  -50.6184 H         1 UNK         0.0600 
    223 H223       -5.5605  -18.5546  -49.2594 H         1 UNK         0.0600 
    224 H224       -4.8989  -18.1382  -50.8322 H         1 UNK         0.0600 
    225 H225       -6.7858  -22.1669  -51.9316 H         1 UNK         0.3000 
    226 H226       -7.2318  -21.0409  -54.4971 H         1 UNK         0.0600 
    227 H227       -7.9246  -23.3558  -55.0918 H         1 UNK         0.0600 
    228 H228       -7.2418  -23.9640  -53.5890 H         1 UNK         0.0600 
    229 H229       -8.6145  -22.8593  -53.5529 H         1 UNK         0.0600 
    230 H230       -5.5491  -20.3450  -55.6505 H         1 UNK         0.3000 
    231 H231       -3.7709  -20.2077  -56.9376 H         1 UNK         0.0600 
    232 H232       -4.7272  -22.2135  -58.1042 H         1 UNK         0.0600 
    233 H233       -3.7369  -23.2660  -57.0937 H         1 UNK         0.0600 
    234 H234       -2.9770  -22.1474  -58.2156 H         1 UNK         0.0600 
    235 H235       -3.4502  -20.3413  -54.0243 H         1 UNK         0.3000 
    236 H236       -1.1689  -21.7513  -53.2091 H         1 UNK         0.0600 
    237 H237       -2.7995  -20.7969  -51.6457 H         1 UNK         0.0600 
    238 H238       -1.2155  -20.1621  -51.2680 H         1 UNK         0.0600 
    239 H239       -2.3745  -19.1498  -52.1216 H         1 UNK         0.0600 
    240 H240       -1.3441  -18.6620  -54.8850 H         1 UNK         0.3000 
    241 H241        1.4153  -17.9391  -54.4579 H         1 UNK         0.0600 
    242 H242        0.2024  -20.4798  -56.4571 H         1 UNK         0.3800 
    243 H243        1.5549  -20.4952  -57.5598 H         1 UNK         0.3800 
    244 H244        1.0345  -16.1144  -56.0168 H         1 UNK         0.0800 
    245 H245       -0.4095  -16.8605  -56.6421 H         1 UNK         0.0800 
    246 H246        1.3592  -15.5570  -53.5442 H         1 UNK         0.0800 
    247 H247        0.2177  -14.4117  -52.8943 H         1 UNK         0.0800 
@<TRIPOS>BOND
     1    1    2 1    
     2    1  127 1    
     3    1  128 1    
     4    1  129 1    
     5    2    3 2    
     6    2    4 am   BACKBONE|DICT|INTERRES
     7    4    5 1    
     8    4  130 1    
     9    5    6 1    
    10    5   65 1    
    11    5  131 1    
    12    6    7 1    
    13    6  132 1    
    14    6  133 1    
    15    7    8 1    
    16    8    9 1    
    17    8  134 1    
    18    8  135 1    
    19    9   10 ar   
    20    9   14 ar   
    21   10   11 ar   
    22   10  136 1    
    23   11   12 ar   
    24   11  126 1    
    25   12   13 ar   
    26   12  137 1    
    27   13   14 ar   
    28   13   15 1    
    29   14  138 1    
    30   15   16 1    
    31   15  139 1    
    32   15  140 1    
    33   16   17 1    
    34   17   18 1    
    35   17  141 1    
    36   17  142 1    
    37   18   19 1    
    38   18   67 1    
    39   18  143 1    
    40   19   20 am   BACKBONE|DICT|INTERRES
    41   19  144 1    
    42   20   21 2    
    43   20   22 1    
    44   22   23 1    
    45   22   24 1    
    46   22  145 1    
    47   23  146 1    
    48   23  147 1    
    49   23  148 1    
    50   24   25 am   BACKBONE|DICT|INTERRES
    51   24  149 1    
    52   25   26 2    
    53   25   27 1    
    54   27   28 1    
    55   27   29 1    
    56   27  150 1    
    57   28  151 1    
    58   28  152 1    
    59   28  153 1    
    60   29   30 am   BACKBONE|DICT|INTERRES
    61   29  154 1    
    62   30   31 2    
    63   30   32 1    
    64   32   33 1    
    65   32   34 1    
    66   32  155 1    
    67   33  156 1    
    68   33  157 1    
    69   33  158 1    
    70   34   35 am   BACKBONE|DICT|INTERRES
    71   34  159 1    
    72   35   36 2    
    73   35   37 1    
    74   37   38 1    
    75   37   39 1    
    76   37  160 1    
    77   38  161 1    
    78   38  162 1    
    79   38  163 1    
    80   39   40 am   BACKBONE|DICT|INTERRES
    81   39  164 1    
    82   40   41 2    
    83   40   42 1    
    84   42   43 1    
    85   42   44 1    
    86   42  165 1    
    87   43  166 1    
    88   43  167 1    
    89   43  168 1    
    90   44   45 am   BACKBONE|DICT|INTERRES
    91   44  169 1    
    92   45   46 2    
    93   45   47 1    
    94   47   48 1    
    95   47   49 1    
    96   47  170 1    
    97   48  171 1    
    98   48  172 1    
    99   48  173 1    
   100   49   50 am   BACKBONE|DICT|INTERRES
   101   49  174 1    
   102   50   51 2    
   103   50   52 1    
   104   52   53 1    
   105   52   54 1    
   106   52  175 1    
   107   53  176 1    
   108   53  177 1    
   109   53  178 1    
   110   54   55 am   BACKBONE|DICT|INTERRES
   111   54  179 1    
   112   55   56 2    
   113   55   57 1    
   114   57   58 1    
   115   57   59 1    
   116   57  180 1    
   117   58  181 1    
   118   58  182 1    
   119   58  183 1    
   120   59   60 am   BACKBONE|DICT|INTERRES
   121   59  184 1    
   122   60   61 2    
   123   60   62 1    
   124   62   63 1    
   125   62   64 1    
   126   62  185 1    
   127   63  186 1    
   128   63  187 1    
   129   63  188 1    
   130   64   65 am   BACKBONE|DICT|INTERRES
   131   64  189 1    
   132   65   66 2    
   133   67   68 2    
   134   67   69 am   BACKBONE|DICT|INTERRES
   135   69   70 1    
   136   69  190 1    
   137   70   71 1    
   138   70   72 1    
   139   70  191 1    
   140   71  192 1    
   141   71  193 1    
   142   71  194 1    
   143   72   73 2    
   144   72   74 am   BACKBONE|DICT|INTERRES
   145   74   75 1    
   146   74  195 1    
   147   75   76 1    
   148   75   77 1    
   149   75  196 1    
   150   76  197 1    
   151   76  198 1    
   152   76  199 1    
   153   77   78 2    
   154   77   79 am   BACKBONE|DICT|INTERRES
   155   79   80 1    
   156   79  200 1    
   157   80   81 1    
   158   80   82 1    
   159   80  201 1    
   160   81  202 1    
   161   81  203 1    
   162   81  204 1    
   163   82   83 2    
   164   82   84 am   BACKBONE|DICT|INTERRES
   165   84   85 1    
   166   84  205 1    
   167   85   86 1    
   168   85   87 1    
   169   85  206 1    
   170   86  207 1    
   171   86  208 1    
   172   86  209 1    
   173   87   88 2    
   174   87   89 am   BACKBONE|DICT|INTERRES
   175   89   90 1    
   176   89  210 1    
   177   90   91 1    
   178   90   92 1    
   179   90  211 1    
   180   91  212 1    
   181   91  213 1    
   182   91  214 1    
   183   92   93 2    
   184   92   94 am   BACKBONE|DICT|INTERRES
   185   94   95 1    
   186   94  215 1    
   187   95   96 1    
   188   95   97 1    
   189   95  216 1    
   190   96  217 1    
   191   96  218 1    
   192   96  219 1    
   193   97   98 2    
   194   97   99 am   BACKBONE|DICT|INTERRES
   195   99  100 1    
   196   99  220 1    
   197  100  101 1    
   198  100  102 1    
   199  100  221 1    
   200  101  222 1    
   201  101  223 1    
   202  101  224 1    
   203  102  103 2    
   204  102  104 am   BACKBONE|DICT|INTERRES
   205  104  105 1    
   206  104  225 1    
   207  105  106 1    
   208  105  107 1    
   209  105  226 1    
   210  106  227 1    
   211  106  228 1    
   212  106  229 1    
   213  107  108 2    
   214  107  109 am   BACKBONE|DICT|INTERRES
   215  109  110 1    
   216  109  230 1    
   217  110  111 1    
   218  110  112 1    
   219  110  231 1    
   220  111  232 1    
   221  111  233 1    
   222  111  234 1    
   223  112  113 2    
   224  112  114 am   BACKBONE|DICT|INTERRES
   225  114  115 1    
   226  114  235 1    
   227  115  116 1    
   228  115  117 1    
   229  115  236 1    
   230  116  237 1    
   231  116  238 1    
   232  116  239 1    
   233  117  118 2    
   234  117  119 am   BACKBONE|DICT|INTERRES
   235  119  120 1    
   236  119  240 1    
   237  120  121 1    
   238  120  124 1    
   239  120  241 1    
   240  121  122 am   BACKBONE|DICT|INTERRES
   241  121  123 2    
   242  122  242 1    
   243  122  243 1    
   244  124  125 1    
   245  124  244 1    
   246  124  245 1    
   247  125  126 1    
   248  126  246 1    
   249  126  247 1    
@<TRIPOS>SUBSTRUCTURE
     1 UNK         1 GROUP             0       ****    0 ROOT    
