@<TRIPOS>MOLECULE
3R540
247   249    1
SMALL
USER_CHARGES


@<TRIPOS>ATOM
      1 CA         -2.7505  -13.4903  -44.7161 C.3       0 UNK        -0.1800 
      2 C          -2.6121  -12.5205  -45.8796 C.2       0 UNK         0.5000 
      3 O          -3.6169  -12.1129  -46.4618 O.2       0 UNK        -0.5000 
      4 N          -1.3719  -12.1455  -46.2043 N.am      1 UNK        -0.5000 
      5 CA         -1.0239  -11.1636  -47.2330 C.3       1 UNK         0.1400 
      6 C6         -0.2033  -11.7781  -48.3940 C.3       23 UNK        -0.0398 
      7 S7         -1.1772  -12.9561  -49.3883 S.3       23 UNK        -0.2404 
      8 C8         -0.5583  -14.5409  -48.7503 C.3       23 UNK        -0.0205 
      9 C9         -1.1778  -15.7100  -49.4949 C.ar      23 UNK        -0.0193 
     10 C10        -0.5693  -16.2030  -50.6526 C.ar      23 UNK        -0.1150 
     11 C11        -1.1230  -17.2872  -51.3376 C.ar      23 UNK        -0.0193 
     12 C12        -2.2952  -17.8739  -50.8566 C.ar      23 UNK        -0.1150 
     13 C13        -2.9172  -17.3910  -49.7007 C.ar      23 UNK        -0.0193 
     14 C14        -2.3531  -16.3040  -49.0262 C.ar      23 UNK        -0.1150 
     15 C15        -4.1919  -18.0411  -49.1705 C.3       23 UNK        -0.0205 
     16 S16        -4.0913  -19.8609  -49.0711 S.3       23 UNK        -0.2404 
     17 C17        -2.6495  -20.0643  -47.9759 C.3       23 UNK        -0.0398 
     18 CA         -2.1523  -21.5287  -47.9212 C.3       11 UNK         0.1400 
     19 N          -0.6878  -21.5999  -47.8620 N.am      11 UNK        -0.5000 
     20 C           0.0418  -22.7206  -47.8985 C.2       10 UNK         0.5000 
     21 O          -0.4415  -23.8516  -47.8948 O.2       10 UNK        -0.5000 
     22 CA          1.5619  -22.5489  -47.9619 C.3       10 UNK         0.1400 
     23 CB          1.9914  -22.0024  -49.3376 C.3       10 UNK        -0.1800 
     24 N           2.0697  -21.6935  -46.8854 N.am      10 UNK        -0.5000 
     25 C           3.3260  -21.7717  -46.4212 C.2       9 UNK         0.5000 
     26 O           4.1469  -22.5934  -46.8328 O.2       9 UNK        -0.5000 
     27 CA          3.7783  -20.7714  -45.3375 C.3       9 UNK         0.1400 
     28 CB          4.6324  -19.6606  -45.9695 C.3       9 UNK        -0.1800 
     29 N           2.7006  -20.1496  -44.5706 N.am      9 UNK        -0.5000 
     30 C           1.8862  -20.7779  -43.7128 C.2       8 UNK         0.5000 
     31 O           1.9249  -21.9876  -43.4888 O.2       8 UNK        -0.5000 
     32 CA          0.8393  -19.9021  -42.9942 C.3       8 UNK         0.1400 
     33 CB          1.3853  -19.4147  -41.6453 C.3       8 UNK        -0.1800 
     34 N           0.3915  -18.7527  -43.7874 N.am      8 UNK        -0.5000 
     35 C          -0.2369  -18.8487  -44.9676 C.2       7 UNK         0.5000 
     36 O          -0.5110  -19.9236  -45.4994 O.2       7 UNK        -0.5000 
     37 CA         -0.5856  -17.5393  -45.6924 C.3       7 UNK         0.1400 
     38 CB         -1.9378  -16.9955  -45.2137 C.3       7 UNK        -0.1800 
     39 N           0.4544  -16.5287  -45.5026 N.am      7 UNK        -0.5000 
     40 C           1.5750  -16.4647  -46.2367 C.2       6 UNK         0.5000 
     41 O           1.8028  -17.1941  -47.2010 O.2       6 UNK        -0.5000 
     42 CA          2.6352  -15.4327  -45.8056 C.3       6 UNK         0.1400 
     43 CB          2.3822  -14.0748  -46.4748 C.3       6 UNK        -0.1800 
     44 N           2.6869  -15.2418  -44.3575 N.am      6 UNK        -0.5000 
     45 C           3.0949  -16.1709  -43.4816 C.2       5 UNK         0.5000 
     46 O           3.4860  -17.2914  -43.8055 O.2       5 UNK        -0.5000 
     47 CA          3.0110  -15.7990  -41.9891 C.3       5 UNK         0.1400 
     48 CB          4.3316  -15.1695  -41.5218 C.3       5 UNK        -0.1800 
     49 N           1.9094  -14.8894  -41.6690 N.am      5 UNK        -0.5000 
     50 C           0.6079  -15.1125  -41.9069 C.2       4 UNK         0.5000 
     51 O           0.1736  -16.1351  -42.4384 O.2       4 UNK        -0.5000 
     52 CA         -0.3592  -13.9734  -41.5341 C.3       4 UNK         0.1400 
     53 CB         -0.9137  -14.1818  -40.1177 C.3       4 UNK        -0.1800 
     54 N           0.2683  -12.6504  -41.6212 N.am      4 UNK        -0.5000 
     55 C           0.6556  -12.0712  -42.7648 C.2       3 UNK         0.5000 
     56 O           0.4759  -12.5669  -43.8819 O.2       3 UNK        -0.5000 
     57 CA          1.4230  -10.7472  -42.6356 C.3       3 UNK         0.1400 
     58 CB          2.9258  -10.9874  -42.8475 C.3       3 UNK        -0.1800 
     59 N           0.9434   -9.8212  -43.6522 N.am      3 UNK        -0.5000 
     60 C          -0.0229   -8.9146  -43.4769 C.2       2 UNK         0.5000 
     61 O          -0.5083   -8.6341  -42.3804 O.2       2 UNK        -0.5000 
     62 CA         -0.5852   -8.2492  -44.7483 C.3       2 UNK         0.1400 
     63 CB          0.3818   -7.1976  -45.3268 C.3       2 UNK        -0.1800 
     64 N          -1.0128   -9.2342  -45.7524 N.am      2 UNK        -0.5000 
     65 C          -0.2585  -10.0583  -46.4945 C.2       1 UNK         0.5000 
     66 O           0.9735  -10.0363  -46.5171 O.2       1 UNK        -0.5000 
     67 C          -2.8520  -22.3178  -46.7988 C.2       11 UNK         0.5000 
     68 O          -3.8233  -23.0246  -47.0677 O.2       11 UNK        -0.5000 
     69 N          -2.3233  -22.2155  -45.5728 N.am      12 UNK        -0.5000 
     70 CA         -2.8183  -22.9412  -44.4021 C.3       12 UNK         0.1400 
     71 CB         -2.1320  -22.4039  -43.1398 C.3       12 UNK        -0.1800 
     72 C          -2.6246  -24.4649  -44.5154 C.2       12 UNK         0.5000 
     73 O          -3.5198  -25.2195  -44.1352 O.2       12 UNK        -0.5000 
     74 N          -1.4765  -24.8870  -45.0638 N.am      13 UNK        -0.5000 
     75 CA         -1.1378  -26.2919  -45.3024 C.3       13 UNK         0.1400 
     76 CB          0.3695  -26.4143  -45.5744 C.3       13 UNK        -0.1800 
     77 C          -1.9561  -26.9009  -46.4557 C.2       13 UNK         0.5000 
     78 O          -2.3597  -28.0611  -46.3739 O.2       13 UNK        -0.5000 
     79 N          -2.2125  -26.0924  -47.4919 N.am      14 UNK        -0.5000 
     80 CA         -3.0358  -26.4337  -48.6527 C.3       14 UNK         0.1400 
     81 CB         -2.6767  -25.4750  -49.7959 C.3       14 UNK        -0.1800 
     82 C          -4.5536  -26.3950  -48.3723 C.2       14 UNK         0.5000 
     83 O          -5.3286  -26.7952  -49.2407 O.2       14 UNK        -0.5000 
     84 N          -4.9473  -25.9131  -47.1842 N.am      15 UNK        -0.5000 
     85 CA         -6.3171  -25.7500  -46.6911 C.3       15 UNK         0.1400 
     86 CB         -7.0332  -27.1118  -46.5665 C.3       15 UNK        -0.1800 
     87 C          -7.1143  -24.7047  -47.4980 C.2       15 UNK         0.5000 
     88 O          -8.2343  -24.9748  -47.9356 O.2       15 UNK        -0.5000 
     89 N          -6.5107  -23.5179  -47.6553 N.am      16 UNK        -0.5000 
     90 CA         -7.0531  -22.3153  -48.2942 C.3       16 UNK         0.1400 
     91 CB         -8.2903  -21.7895  -47.5359 C.3       16 UNK        -0.1800 
     92 C          -7.2894  -22.4897  -49.8077 C.2       16 UNK         0.5000 
     93 O          -8.3200  -22.0632  -50.3316 O.2       16 UNK        -0.5000 
     94 N          -6.3142  -23.1061  -50.4900 N.am      17 UNK        -0.5000 
     95 CA         -6.3414  -23.3625  -51.9346 C.3       17 UNK         0.1400 
     96 CB         -5.3717  -24.5095  -52.2574 C.3       17 UNK        -0.1800 
     97 C          -6.0364  -22.1214  -52.8033 C.2       17 UNK         0.5000 
     98 O          -6.1450  -22.2094  -54.0272 O.2       17 UNK        -0.5000 
     99 N          -5.6601  -20.9974  -52.1737 N.am      18 UNK        -0.5000 
    100 CA        -5.3254  -19.7102  -52.7897 C.3       18 UNK         0.1400 
    101 CB        -6.5718  -19.0705  -53.4416 C.3       18 UNK        -0.1800 
    102 C         -4.1078  -19.8400  -53.7260 C.2       18 UNK         0.5000 
    103 O         -3.0733  -20.3437  -53.2883 O.2       18 UNK        -0.5000 
    104 N         -4.2323  -19.4149  -54.9905 N.am      19 UNK        -0.5000 
    105 CA        -3.1697  -19.4615  -56.0009 C.3       19 UNK         0.1400 
    106 CB        -3.6925  -18.8537  -57.3106 C.3       19 UNK        -0.1800 
    107 C         -2.5962  -20.8712  -56.2512 C.2       19 UNK         0.5000 
    108 O         -1.4095  -20.9957  -56.5548 O.2       19 UNK        -0.5000 
    109 N         -3.4259  -21.9082  -56.0683 N.am      20 UNK        -0.5000 
    110 CA        -3.0264  -23.3119  -56.1679 C.3       20 UNK         0.1400 
    111 CB        -4.2811  -24.1870  -56.3045 C.3       20 UNK        -0.1800 
    112 C         -2.1399  -23.7898  -54.9986 C.2       20 UNK         0.5000 
    113 O         -1.4791  -24.8191  -55.1429 O.2       20 UNK        -0.5000 
    114 N         -2.1168  -23.0511  -53.8773 N.am      21 UNK        -0.5000 
    115 CA        -1.2026  -23.3016  -52.7628 C.3       21 UNK         0.1400 
    116 CB        -1.7032  -22.5935  -51.4933 C.3       21 UNK        -0.1800 
    117 C          0.2197  -22.8262  -53.0989 C.2       21 UNK         0.5000 
    118 O          1.1807  -23.5600  -52.8650 O.2       21 UNK        -0.5000 
    119 N          0.3176  -21.6009  -53.6293 N.am      22 UNK        -0.5000 
    120 CA         1.5902  -20.9448  -53.9628 C.3       22 UNK         0.1400 
    121 C          2.1708  -21.3707  -55.3392 C.2       22 UNK         0.5000 
    122 N          1.3538  -21.7198  -56.3251 N.am      22 UNK        -0.7600 
    123 O          3.3861  -21.3914  -55.5135 O.2       22 UNK        -0.5000 
    124 C124        1.4926  -19.4029  -53.8625 C.3       23 UNK        -0.0398 
    125 S125        0.9898  -18.8449  -52.1969 S.3       23 UNK        -0.2404 
    126 C126       -0.4586  -17.8212  -52.5965 C.3       23 UNK        -0.0205 
    127 H127       -3.0111  -12.9498  -43.8064 H         1 UNK         0.0600 
    128 H128       -1.8212  -14.0322  -44.5412 H         1 UNK         0.0600 
    129 H129       -3.5353  -14.2188  -44.9190 H         1 UNK         0.0600 
    130 H130       -0.6026  -12.4395  -45.6091 H         1 UNK         0.3000 
    131 H131       -1.9189  -10.7058  -47.6598 H         1 UNK         0.0600 
    132 H132        0.7021  -12.2608  -48.0261 H         1 UNK         0.0800 
    133 H133        0.1331  -10.9903  -49.0701 H         1 UNK         0.0800 
    134 H134        0.5259  -14.5778  -48.8568 H         1 UNK         0.0800 
    135 H135       -0.7714  -14.6171  -47.6830 H         1 UNK         0.0800 
    136 H136        0.3396  -15.7467  -51.0190 H         1 UNK         0.1150 
    137 H137       -2.7150  -18.7224  -51.3726 H         1 UNK         0.1150 
    138 H138       -2.8269  -15.9171  -48.1354 H         1 UNK         0.1150 
    139 H139       -4.4360  -17.6555  -48.1794 H         1 UNK         0.0800 
    140 H140       -5.0233  -17.7664  -49.8204 H         1 UNK         0.0800 
    141 H141       -2.8854  -19.6688  -46.9863 H         1 UNK         0.0800 
    142 H142       -1.8545  -19.4263  -48.3621 H         1 UNK         0.0800 
    143 H143       -2.4281  -22.0201  -48.8545 H         1 UNK         0.0600 
    144 H144       -0.2092  -20.7126  -47.8282 H         1 UNK         0.3000 
    145 H145        1.9848  -23.5496  -47.8471 H         1 UNK         0.0600 
    146 H146        1.5820  -22.6099  -50.1458 H         1 UNK         0.0600 
    147 H147        1.6501  -20.9780  -49.4925 H         1 UNK         0.0600 
    148 H148        3.0757  -22.0115  -49.4474 H         1 UNK         0.0600 
    149 H149        1.4254  -21.0394  -46.4606 H         1 UNK         0.3000 
    150 H150        4.4065  -21.3234  -44.6354 H         1 UNK         0.0600 
    151 H151        5.4527  -20.0775  -46.5553 H         1 UNK         0.0600 
    152 H152        5.0758  -19.0212  -45.2062 H         1 UNK         0.0600 
    153 H153        4.0406  -19.0294  -46.6340 H         1 UNK         0.0600 
    154 H154        2.6342  -19.1407  -44.6312 H         1 UNK         0.3000 
    155 H155       -0.0355  -20.5195  -42.7954 H         1 UNK         0.0600 
    156 H156        2.3324  -18.8909  -41.7662 H         1 UNK         0.0600 
    157 H157        0.6848  -18.7441  -41.1471 H         1 UNK         0.0600 
    158 H158        1.5652  -20.2561  -40.9750 H         1 UNK         0.0600 
    159 H159        0.5256  -17.8330  -43.3798 H         1 UNK         0.3000 
    160 H160       -0.6781  -17.7642  -46.7572 H         1 UNK         0.0600 
    161 H161       -1.9089  -16.6964  -44.1654 H         1 UNK         0.0600 
    162 H162       -2.7223  -17.7457  -45.3200 H         1 UNK         0.0600 
    163 H163       -2.2374  -16.1315  -45.8045 H         1 UNK         0.0600 
    164 H164        0.3702  -15.9372  -44.6868 H         1 UNK         0.3000 
    165 H165        3.6107  -15.7996  -46.1321 H         1 UNK         0.0600 
    166 H166        3.1226  -13.3361  -46.1673 H         1 UNK         0.0600 
    167 H167        2.4443  -14.1592  -47.5598 H         1 UNK         0.0600 
    168 H168        1.3962  -13.6831  -46.2241 H         1 UNK         0.0600 
    169 H169        2.3511  -14.3568  -44.0048 H         1 UNK         0.3000 
    170 H170        2.8530  -16.7161  -41.4217 H         1 UNK         0.0600 
    171 H171        5.1734  -15.8335  -41.7234 H         1 UNK         0.0600 
    172 H172        4.5296  -14.2246  -42.0296 H         1 UNK         0.0600 
    173 H173        4.3207  -14.9789  -40.4485 H         1 UNK         0.0600 
    174 H174        2.1635  -14.0183  -41.2284 H         1 UNK         0.3000 
    175 H175       -1.1953  -14.0060  -42.2338 H         1 UNK         0.0600 
    176 H176       -0.1251  -14.1445  -39.3652 H         1 UNK         0.0600 
    177 H177       -1.6534  -13.4208  -39.8681 H         1 UNK         0.0600 
    178 H178       -1.4054  -15.1518  -40.0304 H         1 UNK         0.0600 
    179 H179        0.4427  -12.1770  -40.7460 H         1 UNK         0.3000 
    180 H180        1.2722  -10.3284  -41.6384 H         1 UNK         0.0600 
    181 H181        3.1322  -11.4169  -43.8291 H         1 UNK         0.0600 
    182 H182        3.3233  -11.6728  -42.0980 H         1 UNK         0.0600 
    183 H183        3.4871  -10.0564  -42.7666 H         1 UNK         0.0600 
    184 H184        1.2219  -10.0209  -44.6088 H         1 UNK         0.3000 
    185 H185       -1.4930   -7.7214  -44.4515 H         1 UNK         0.0600 
    186 H186        0.5722   -6.4088  -44.5982 H         1 UNK         0.0600 
    187 H187        1.3475   -7.6252  -45.5964 H         1 UNK         0.0600 
    188 H188       -0.0361   -6.7250  -46.2156 H         1 UNK         0.0600 
    189 H189       -2.0119   -9.3864  -45.7808 H         1 UNK         0.3000 
    190 H190       -1.5455  -21.5754  -45.4388 H         1 UNK         0.3000 
    191 H191       -3.8895  -22.7471  -44.3158 H         1 UNK         0.0600 
    192 H192       -1.0568  -22.5844  -43.1636 H         1 UNK         0.0600 
    193 H193       -2.5255  -22.8889  -42.2457 H         1 UNK         0.0600 
    194 H194       -2.2977  -21.3323  -43.0279 H         1 UNK         0.0600 
    195 H195       -0.8181  -24.1984  -45.3976 H         1 UNK         0.3000 
    196 H196       -1.3656  -26.8579  -44.3965 H         1 UNK         0.0600 
    197 H197        0.6552  -27.4570  -45.7184 H         1 UNK         0.0600 
    198 H198        0.9536  -26.0301  -44.7379 H         1 UNK         0.0600 
    199 H199        0.6666  -25.8673  -46.4696 H         1 UNK         0.0600 
    200 H200       -1.7732  -25.1757  -47.5067 H         1 UNK         0.3000 
    201 H201       -2.7859  -27.4490  -48.9671 H         1 UNK         0.0600 
    202 H202       -1.6046  -25.4765  -49.9937 H         1 UNK         0.0600 
    203 H203       -2.9748  -24.4531  -49.5609 H         1 UNK         0.0600 
    204 H204       -3.1745  -25.7670  -50.7203 H         1 UNK         0.0600 
    205 H205       -4.2227  -25.5771  -46.5647 H         1 UNK         0.3000 
    206 H206       -6.2237  -25.3436  -45.6828 H         1 UNK         0.0600 
    207 H207       -7.9991  -26.9985  -46.0731 H         1 UNK         0.0600 
    208 H208       -7.2173  -27.5686  -47.5391 H         1 UNK         0.0600 
    209 H209       -6.4459  -27.8120  -45.9724 H         1 UNK         0.0600 
    210 H210       -5.5556  -23.4216  -47.3112 H         1 UNK         0.3000 
    211 H211       -6.2779  -21.5564  -48.1963 H         1 UNK         0.0600 
    212 H212       -9.1420  -22.4641  -47.6266 H         1 UNK         0.0600 
    213 H213       -8.6012  -20.8190  -47.9243 H         1 UNK         0.0600 
    214 H214       -8.0761  -21.6591  -46.4752 H         1 UNK         0.0600 
    215 H215       -5.5110  -23.4446  -49.9813 H         1 UNK         0.3000 
    216 H216       -7.3467  -23.6964  -52.1998 H         1 UNK         0.0600 
    217 H217       -4.3332  -24.2125  -52.1237 H         1 UNK         0.0600 
    218 H218       -5.4856  -24.8363  -53.2906 H         1 UNK         0.0600 
    219 H219       -5.5613  -25.3782  -51.6271 H         1 UNK         0.0600 
    220 H220       -5.5509  -21.0395  -51.1711 H         1 UNK         0.3000 
    221 H221       -5.0124  -19.0539  -51.9783 H         1 UNK         0.0600 
    222 H222       -6.9433  -19.6509  -54.2867 H         1 UNK         0.0600 
    223 H223       -7.3846  -18.9870  -52.7199 H         1 UNK         0.0600 
    224 H224       -6.3578  -18.0616  -53.7962 H         1 UNK         0.0600 
    225 H225       -5.1193  -19.0332  -55.2851 H         1 UNK         0.3000 
    226 H226       -2.3484  -18.8393  -55.6395 H         1 UNK         0.0600 
    227 H227       -4.0084  -17.8201  -57.1682 H         1 UNK         0.0600 
    228 H228       -2.9168  -18.8519  -58.0777 H         1 UNK         0.0600 
    229 H229       -4.5415  -19.4147  -57.7032 H         1 UNK         0.0600 
    230 H230       -4.3759  -21.7265  -55.7724 H         1 UNK         0.3000 
    231 H231       -2.4388  -23.4304  -57.0807 H         1 UNK         0.0600 
    232 H232       -4.0157  -25.2398  -56.4094 H         1 UNK         0.0600 
    233 H233       -4.8609  -23.9096  -57.1849 H         1 UNK         0.0600 
    234 H234       -4.9306  -24.0982  -55.4355 H         1 UNK         0.0600 
    235 H235       -2.6557  -22.1923  -53.8316 H         1 UNK         0.3000 
    236 H236       -1.1772  -24.3753  -52.5644 H         1 UNK         0.0600 
    237 H237       -2.7583  -22.7844  -51.3075 H         1 UNK         0.0600 
    238 H238       -1.1447  -22.9467  -50.6275 H         1 UNK         0.0600 
    239 H239       -1.5696  -21.5121  -51.5384 H         1 UNK         0.0600 
    240 H240       -0.5253  -21.0682  -53.7866 H         1 UNK         0.3000 
    241 H241        2.3262  -21.2570  -53.2185 H         1 UNK         0.0600 
    242 H242        0.3466  -21.6120  -56.2398 H         1 UNK         0.3800 
    243 H243        1.7447  -22.0002  -57.2101 H         1 UNK         0.3800 
    244 H244        2.4588  -18.9454  -54.0829 H         1 UNK         0.0800 
    245 H245        0.7972  -19.0192  -54.6111 H         1 UNK         0.0800 
    246 H246       -1.1683  -18.4100  -53.1792 H         1 UNK         0.0800 
    247 H247       -0.1515  -16.9878  -53.2300 H         1 UNK         0.0800 
@<TRIPOS>BOND
     1    1    2 1    
     2    1  127 1    
     3    1  128 1    
     4    1  129 1    
     5    2    3 2    
     6    2    4 am   BACKBONE|DICT|INTERRES
     7    4    5 1    
     8    4  130 1    
     9    5    6 1    
    10    5   65 1    
    11    5  131 1    
    12    6    7 1    
    13    6  132 1    
    14    6  133 1    
    15    7    8 1    
    16    8    9 1    
    17    8  134 1    
    18    8  135 1    
    19    9   10 ar   
    20    9   14 ar   
    21   10   11 ar   
    22   10  136 1    
    23   11   12 ar   
    24   11  126 1    
    25   12   13 ar   
    26   12  137 1    
    27   13   14 ar   
    28   13   15 1    
    29   14  138 1    
    30   15   16 1    
    31   15  139 1    
    32   15  140 1    
    33   16   17 1    
    34   17   18 1    
    35   17  141 1    
    36   17  142 1    
    37   18   19 1    
    38   18   67 1    
    39   18  143 1    
    40   19   20 am   BACKBONE|DICT|INTERRES
    41   19  144 1    
    42   20   21 2    
    43   20   22 1    
    44   22   23 1    
    45   22   24 1    
    46   22  145 1    
    47   23  146 1    
    48   23  147 1    
    49   23  148 1    
    50   24   25 am   BACKBONE|DICT|INTERRES
    51   24  149 1    
    52   25   26 2    
    53   25   27 1    
    54   27   28 1    
    55   27   29 1    
    56   27  150 1    
    57   28  151 1    
    58   28  152 1    
    59   28  153 1    
    60   29   30 am   BACKBONE|DICT|INTERRES
    61   29  154 1    
    62   30   31 2    
    63   30   32 1    
    64   32   33 1    
    65   32   34 1    
    66   32  155 1    
    67   33  156 1    
    68   33  157 1    
    69   33  158 1    
    70   34   35 am   BACKBONE|DICT|INTERRES
    71   34  159 1    
    72   35   36 2    
    73   35   37 1    
    74   37   38 1    
    75   37   39 1    
    76   37  160 1    
    77   38  161 1    
    78   38  162 1    
    79   38  163 1    
    80   39   40 am   BACKBONE|DICT|INTERRES
    81   39  164 1    
    82   40   41 2    
    83   40   42 1    
    84   42   43 1    
    85   42   44 1    
    86   42  165 1    
    87   43  166 1    
    88   43  167 1    
    89   43  168 1    
    90   44   45 am   BACKBONE|DICT|INTERRES
    91   44  169 1    
    92   45   46 2    
    93   45   47 1    
    94   47   48 1    
    95   47   49 1    
    96   47  170 1    
    97   48  171 1    
    98   48  172 1    
    99   48  173 1    
   100   49   50 am   BACKBONE|DICT|INTERRES
   101   49  174 1    
   102   50   51 2    
   103   50   52 1    
   104   52   53 1    
   105   52   54 1    
   106   52  175 1    
   107   53  176 1    
   108   53  177 1    
   109   53  178 1    
   110   54   55 am   BACKBONE|DICT|INTERRES
   111   54  179 1    
   112   55   56 2    
   113   55   57 1    
   114   57   58 1    
   115   57   59 1    
   116   57  180 1    
   117   58  181 1    
   118   58  182 1    
   119   58  183 1    
   120   59   60 am   BACKBONE|DICT|INTERRES
   121   59  184 1    
   122   60   61 2    
   123   60   62 1    
   124   62   63 1    
   125   62   64 1    
   126   62  185 1    
   127   63  186 1    
   128   63  187 1    
   129   63  188 1    
   130   64   65 am   BACKBONE|DICT|INTERRES
   131   64  189 1    
   132   65   66 2    
   133   67   68 2    
   134   67   69 am   BACKBONE|DICT|INTERRES
   135   69   70 1    
   136   69  190 1    
   137   70   71 1    
   138   70   72 1    
   139   70  191 1    
   140   71  192 1    
   141   71  193 1    
   142   71  194 1    
   143   72   73 2    
   144   72   74 am   BACKBONE|DICT|INTERRES
   145   74   75 1    
   146   74  195 1    
   147   75   76 1    
   148   75   77 1    
   149   75  196 1    
   150   76  197 1    
   151   76  198 1    
   152   76  199 1    
   153   77   78 2    
   154   77   79 am   BACKBONE|DICT|INTERRES
   155   79   80 1    
   156   79  200 1    
   157   80   81 1    
   158   80   82 1    
   159   80  201 1    
   160   81  202 1    
   161   81  203 1    
   162   81  204 1    
   163   82   83 2    
   164   82   84 am   BACKBONE|DICT|INTERRES
   165   84   85 1    
   166   84  205 1    
   167   85   86 1    
   168   85   87 1    
   169   85  206 1    
   170   86  207 1    
   171   86  208 1    
   172   86  209 1    
   173   87   88 2    
   174   87   89 am   BACKBONE|DICT|INTERRES
   175   89   90 1    
   176   89  210 1    
   177   90   91 1    
   178   90   92 1    
   179   90  211 1    
   180   91  212 1    
   181   91  213 1    
   182   91  214 1    
   183   92   93 2    
   184   92   94 am   BACKBONE|DICT|INTERRES
   185   94   95 1    
   186   94  215 1    
   187   95   96 1    
   188   95   97 1    
   189   95  216 1    
   190   96  217 1    
   191   96  218 1    
   192   96  219 1    
   193   97   98 2    
   194   97   99 am   BACKBONE|DICT|INTERRES
   195   99  100 1    
   196   99  220 1    
   197  100  101 1    
   198  100  102 1    
   199  100  221 1    
   200  101  222 1    
   201  101  223 1    
   202  101  224 1    
   203  102  103 2    
   204  102  104 am   BACKBONE|DICT|INTERRES
   205  104  105 1    
   206  104  225 1    
   207  105  106 1    
   208  105  107 1    
   209  105  226 1    
   210  106  227 1    
   211  106  228 1    
   212  106  229 1    
   213  107  108 2    
   214  107  109 am   BACKBONE|DICT|INTERRES
   215  109  110 1    
   216  109  230 1    
   217  110  111 1    
   218  110  112 1    
   219  110  231 1    
   220  111  232 1    
   221  111  233 1    
   222  111  234 1    
   223  112  113 2    
   224  112  114 am   BACKBONE|DICT|INTERRES
   225  114  115 1    
   226  114  235 1    
   227  115  116 1    
   228  115  117 1    
   229  115  236 1    
   230  116  237 1    
   231  116  238 1    
   232  116  239 1    
   233  117  118 2    
   234  117  119 am   BACKBONE|DICT|INTERRES
   235  119  120 1    
   236  119  240 1    
   237  120  121 1    
   238  120  124 1    
   239  120  241 1    
   240  121  122 am   BACKBONE|DICT|INTERRES
   241  121  123 2    
   242  122  242 1    
   243  122  243 1    
   244  124  125 1    
   245  124  244 1    
   246  124  245 1    
   247  125  126 1    
   248  126  246 1    
   249  126  247 1    
@<TRIPOS>SUBSTRUCTURE
     1 UNK         1 GROUP             0       ****    0 ROOT    
