@<TRIPOS>MOLECULE
3R540
247   249    1
SMALL
USER_CHARGES


@<TRIPOS>ATOM
      1 CA         -5.2081  -16.8274  -45.3883 C.3       0 UNK        -0.1800 
      2 C          -5.3243  -15.3495  -45.0471 C.2       0 UNK         0.5000 
      3 O          -5.8579  -15.0073  -43.9920 O.2       0 UNK        -0.5000 
      4 N          -4.8474  -14.4726  -45.9395 N.am      1 UNK        -0.5000 
      5 CA         -4.9109  -13.0119  -45.7907 C.3       1 UNK         0.1400 
      6 C6         -4.7746  -12.2635  -47.1420 C.3       23 UNK        -0.0398 
      7 S7         -3.3480  -12.8048  -48.1514 S.3       23 UNK        -0.2404 
      8 C8         -4.1742  -13.3231  -49.6872 C.3       23 UNK        -0.0205 
      9 C9         -3.4160  -14.4522  -50.3592 C.ar      23 UNK        -0.0193 
     10 C10        -2.4296  -14.1844  -51.3137 C.ar      23 UNK        -0.1150 
     11 C11        -1.7421  -15.2342  -51.9314 C.ar      23 UNK        -0.0193 
     12 C12        -2.0621  -16.5534  -51.5994 C.ar      23 UNK        -0.1150 
     13 C13        -3.0236  -16.8290  -50.6262 C.ar      23 UNK        -0.0193 
     14 C14        -3.7024  -15.7748  -50.0136 C.ar      23 UNK        -0.1150 
     15 C15        -3.2597  -18.2582  -50.1774 C.3       23 UNK        -0.0205 
     16 S16        -4.9320  -18.8596  -50.5636 S.3       23 UNK        -0.2404 
     17 C17        -5.6741  -18.9944  -48.9007 C.3       23 UNK        -0.0398 
     18 CA         -5.3270  -20.3442  -48.2274 C.3       11 UNK         0.1400 
     19 N          -3.9079  -20.4313  -47.8656 N.am      11 UNK        -0.5000 
     20 C          -3.2694  -21.5503  -47.5101 C.2       10 UNK         0.5000 
     21 O          -3.8137  -22.6502  -47.4462 O.2       10 UNK        -0.5000 
     22 CA         -1.7832  -21.4314  -47.1421 C.3       10 UNK         0.1400 
     23 CB         -0.9323  -21.7131  -48.3879 C.3       10 UNK        -0.1800 
     24 N          -1.3791  -20.1522  -46.5482 N.am      10 UNK        -0.5000 
     25 C          -1.9481  -19.5338  -45.5009 C.2       9 UNK         0.5000 
     26 O          -2.9833  -19.9210  -44.9543 O.2       9 UNK        -0.5000 
     27 CA         -1.2466  -18.2686  -44.9751 C.3       9 UNK         0.1400 
     28 CB         -0.2419  -18.6420  -43.8760 C.3       9 UNK        -0.1800 
     29 N          -0.5526  -17.5197  -46.0218 N.am      9 UNK        -0.5000 
     30 C          -1.1620  -16.8053  -46.9781 C.2       8 UNK         0.5000 
     31 O          -2.3834  -16.6993  -47.0776 O.2       8 UNK        -0.5000 
     32 CA         -0.2533  -16.1107  -48.0067 C.3       8 UNK         0.1400 
     33 CB          0.1993  -14.7356  -47.4915 C.3       8 UNK        -0.1800 
     34 N           0.9178  -16.9247  -48.3353 N.am      8 UNK        -0.5000 
     35 C           0.8819  -18.0118  -49.1203 C.2       7 UNK         0.5000 
     36 O          -0.1275  -18.4126  -49.6936 O.2       7 UNK        -0.5000 
     37 CA          2.1880  -18.8118  -49.2666 C.3       7 UNK         0.1400 
     38 CB          3.0324  -18.2647  -50.4265 C.3       7 UNK        -0.1800 
     39 N           2.9898  -18.8265  -48.0435 N.am      7 UNK        -0.5000 
     40 C           2.6212  -19.4296  -46.9040 C.2       6 UNK         0.5000 
     41 O           1.5699  -20.0518  -46.7654 O.2       6 UNK        -0.5000 
     42 CA          3.5642  -19.2588  -45.7001 C.3       6 UNK         0.1400 
     43 CB          4.6563  -20.3386  -45.7095 C.3       6 UNK        -0.1800 
     44 N           4.1870  -17.9334  -45.6491 N.am      6 UNK        -0.5000 
     45 C           3.5093  -16.7888  -45.4987 C.2       5 UNK         0.5000 
     46 O           2.2811  -16.7247  -45.4020 O.2       5 UNK        -0.5000 
     47 CA          4.3329  -15.4989  -45.5044 C.3       5 UNK         0.1400 
     48 CB          4.3470  -14.8656  -46.9054 C.3       5 UNK        -0.1800 
     49 N           3.7278  -14.5760  -44.5549 N.am      5 UNK        -0.5000 
     50 C           4.3998  -13.7628  -43.7339 C.2       4 UNK         0.5000 
     51 O           5.6243  -13.6298  -43.7564 O.2       4 UNK        -0.5000 
     52 CA          3.5765  -12.9605  -42.7068 C.3       4 UNK         0.1400 
     53 CB          3.3867  -11.5136  -43.1890 C.3       4 UNK        -0.1800 
     54 N           2.2593  -13.5263  -42.4035 N.am      4 UNK        -0.5000 
     55 C           2.0195  -14.6956  -41.7906 C.2       3 UNK         0.5000 
     56 O           2.9075  -15.4758  -41.4460 O.2       3 UNK        -0.5000 
     57 CA          0.5453  -15.0411  -41.4875 C.3       3 UNK         0.1400 
     58 CB          0.3236  -15.1982  -39.9741 C.3       3 UNK        -0.1800 
     59 N          -0.3824  -14.0231  -41.9899 N.am      3 UNK        -0.5000 
     60 C          -0.9475  -14.0360  -43.2019 C.2       2 UNK         0.5000 
     61 O          -0.8106  -14.9443  -44.0218 O.2       2 UNK        -0.5000 
     62 CA         -1.7593  -12.7923  -43.5745 C.3       2 UNK         0.1400 
     63 CB         -0.8451  -11.7177  -44.1935 C.3       2 UNK        -0.1800 
     64 N          -2.8015  -13.1658  -44.5219 N.am      2 UNK        -0.5000 
     65 C          -3.9173  -12.4627  -44.7459 C.2       1 UNK         0.5000 
     66 O          -4.1854  -11.4110  -44.1617 O.2       1 UNK        -0.5000 
     67 C          -6.2619  -20.6556  -47.0383 C.2       11 UNK         0.5000 
     68 O          -7.3768  -21.1243  -47.2689 O.2       11 UNK        -0.5000 
     69 N          -5.7859  -20.4434  -45.8032 N.am      12 UNK        -0.5000 
     70 CA         -6.4569  -20.8757  -44.5782 C.3       12 UNK         0.1400 
     71 CB         -6.4092  -19.7472  -43.5358 C.3       12 UNK        -0.1800 
     72 C          -5.8026  -22.1474  -44.0157 C.2       12 UNK         0.5000 
     73 O          -6.5144  -23.0693  -43.6171 O.2       12 UNK        -0.5000 
     74 N          -4.4627  -22.1713  -43.9796 N.am      13 UNK        -0.5000 
     75 CA         -3.6723  -23.2024  -43.3048 C.3       13 UNK         0.1400 
     76 CB         -2.2347  -22.6894  -43.1255 C.3       13 UNK        -0.1800 
     77 C          -3.6700  -24.5751  -44.0036 C.2       13 UNK         0.5000 
     78 O          -3.5224  -25.5896  -43.3205 O.2       13 UNK        -0.5000 
     79 N          -3.8103  -24.5916  -45.3346 N.am      14 UNK        -0.5000 
     80 CA         -3.7011  -25.7915  -46.1677 C.3       14 UNK         0.1400 
     81 CB         -2.2699  -25.8724  -46.7282 C.3       14 UNK        -0.1800 
     82 C          -4.7489  -25.8211  -47.2951 C.2       14 UNK         0.5000 
     83 O          -4.5901  -26.5915  -48.2429 O.2       14 UNK        -0.5000 
     84 N          -5.7762  -24.9610  -47.2073 N.am      15 UNK        -0.5000 
     85 CA         -6.8454  -24.7592  -48.1962 C.3       15 UNK         0.1400 
     86 CB         -7.8088  -25.9640  -48.1896 C.3       15 UNK        -0.1800 
     87 C          -6.3219  -24.4218  -49.6133 C.2       15 UNK         0.5000 
     88 O          -6.9199  -24.8370  -50.6064 O.2       15 UNK        -0.5000 
     89 N          -5.1891  -23.7033  -49.6664 N.am      16 UNK        -0.5000 
     90 CA         -4.4067  -23.2834  -50.8374 C.3       16 UNK         0.1400 
     91 CB         -5.2768  -22.5006  -51.8431 C.3       16 UNK        -0.1800 
     92 C          -3.6272  -24.4189  -51.5340 C.2       16 UNK         0.5000 
     93 O          -2.8606  -24.1329  -52.4559 O.2       16 UNK        -0.5000 
     94 N          -3.8099  -25.6716  -51.0939 N.am      17 UNK        -0.5000 
     95 CA         -3.2858  -26.8687  -51.7519 C.3       17 UNK         0.1400 
     96 CB         -4.1125  -28.0853  -51.3083 C.3       17 UNK        -0.1800 
     97 C          -1.7892  -27.1168  -51.4977 C.2       17 UNK         0.5000 
     98 O          -1.1464  -27.7705  -52.3204 O.2       17 UNK        -0.5000 
     99 N          -1.2578  -26.6020  -50.3817 N.am      18 UNK        -0.5000 
    100 CA         0.1404  -26.7650  -49.9895 C.3       18 UNK         0.1400 
    101 CB         0.2831  -28.0299  -49.1194 C.3       18 UNK        -0.1800 
    102 C          0.6592  -25.4915  -49.2925 C.2       18 UNK         0.5000 
    103 O          0.8537  -25.5083  -48.0783 O.2       18 UNK        -0.5000 
    104 N          0.8750  -24.3770  -50.0024 N.am      19 UNK        -0.5000 
    105 CA         0.6257  -24.1053  -51.4150 C.3       19 UNK         0.1400 
    106 CB         1.7875  -24.6145  -52.2896 C.3       19 UNK        -0.1800 
    107 C          0.5055  -22.5847  -51.5529 C.2       19 UNK         0.5000 
    108 O          1.3409  -21.8671  -50.9980 O.2       19 UNK        -0.5000 
    109 N         -0.4909  -22.1095  -52.3073 N.am      20 UNK        -0.5000 
    110 CA        -0.6848  -20.6940  -52.6371 C.3       20 UNK         0.1400 
    111 CB        -2.1573  -20.4757  -53.0221 C.3       20 UNK        -0.1800 
    112 C          0.2948  -20.2340  -53.7394 C.2       20 UNK         0.5000 
    113 O         -0.1292  -19.8511  -54.8312 O.2       20 UNK        -0.5000 
    114 N          1.5988  -20.3200  -53.4434 N.am      21 UNK        -0.5000 
    115 CA         2.7145  -20.1385  -54.3787 C.3       21 UNK         0.1400 
    116 CB         4.0296  -20.4467  -53.6475 C.3       21 UNK        -0.1800 
    117 C          2.7830  -18.7568  -55.0590 C.2       21 UNK         0.5000 
    118 O          3.3009  -18.6589  -56.1723 O.2       21 UNK        -0.5000 
    119 N          2.2479  -17.7259  -54.3954 N.am      22 UNK        -0.5000 
    120 CA         2.0568  -16.3762  -54.9487 C.3       22 UNK         0.1400 
    121 C          0.8658  -16.2419  -55.9457 C.2       22 UNK         0.5000 
    122 N          0.0178  -17.2474  -56.1306 N.am      22 UNK        -0.7600 
    123 O          0.7136  -15.2002  -56.5776 O.2       22 UNK        -0.5000 
    124 C124        2.0214  -15.2886  -53.8389 C.3       23 UNK        -0.0398 
    125 S125        0.9425  -15.6781  -52.4176 S.3       23 UNK        -0.2404 
    126 C126       -0.6449  -14.9564  -52.9469 C.3       23 UNK        -0.0205 
    127 H127       -4.7990  -16.9781  -46.3844 H         1 UNK         0.0600 
    128 H128       -4.5630  -17.3348  -44.6714 H         1 UNK         0.0600 
    129 H129       -6.1920  -17.2934  -45.3627 H         1 UNK         0.0600 
    130 H130       -4.3758  -14.8073  -46.7693 H         1 UNK         0.3000 
    131 H131       -5.9045  -12.7728  -45.4047 H         1 UNK         0.0600 
    132 H132       -5.6967  -12.3966  -47.7078 H         1 UNK         0.0800 
    133 H133       -4.6978  -11.1857  -46.9861 H         1 UNK         0.0800 
    134 H134       -4.2609  -12.4670  -50.3580 H         1 UNK         0.0800 
    135 H135       -5.1923  -13.6577  -49.4836 H         1 UNK         0.0800 
    136 H136       -2.1936  -13.1603  -51.5666 H         1 UNK         0.1150 
    137 H137       -1.5192  -17.3653  -52.0623 H         1 UNK         0.1150 
    138 H138       -4.4393  -15.9855  -49.2518 H         1 UNK         0.1150 
    139 H139       -3.0579  -18.3036  -49.1098 H         1 UNK         0.0800 
    140 H140       -2.5386  -18.9303  -50.6405 H         1 UNK         0.0800 
    141 H141       -6.7536  -18.8970  -49.0299 H         1 UNK         0.0800 
    142 H142       -5.3657  -18.1499  -48.2851 H         1 UNK         0.0800 
    143 H143       -5.5206  -21.1268  -48.9609 H         1 UNK         0.0600 
    144 H144       -3.3862  -19.5677  -47.8586 H         1 UNK         0.3000 
    145 H145       -1.5721  -22.2100  -46.4081 H         1 UNK         0.0600 
    146 H146        0.1254  -21.7918  -48.1389 H         1 UNK         0.0600 
    147 H147       -1.2218  -22.6556  -48.8546 H         1 UNK         0.0600 
    148 H148       -1.0428  -20.9288  -49.1376 H         1 UNK         0.0600 
    149 H149       -0.4901  -19.7857  -46.8710 H         1 UNK         0.3000 
    150 H150       -2.0064  -17.6172  -44.5385 H         1 UNK         0.0600 
    151 H151        0.5146  -19.3367  -44.2417 H         1 UNK         0.0600 
    152 H152       -0.7445  -19.1161  -43.0321 H         1 UNK         0.0600 
    153 H153        0.2735  -17.7595  -43.4987 H         1 UNK         0.0600 
    154 H154        0.4587  -17.4827  -45.9615 H         1 UNK         0.3000 
    155 H155       -0.8341  -15.9530  -48.9173 H         1 UNK         0.0600 
    156 H156        0.7865  -14.8172  -46.5764 H         1 UNK         0.0600 
    157 H157       -0.6613  -14.1043  -47.2673 H         1 UNK         0.0600 
    158 H158        0.8008  -14.2136  -48.2356 H         1 UNK         0.0600 
    159 H159        1.7773  -16.6952  -47.8600 H         1 UNK         0.3000 
    160 H160        1.9169  -19.8431  -49.4967 H         1 UNK         0.0600 
    161 H161        3.3287  -17.2286  -50.2576 H         1 UNK         0.0600 
    162 H162        2.4725  -18.2971  -51.3612 H         1 UNK         0.0600 
    163 H163        3.9371  -18.8557  -50.5677 H         1 UNK         0.0600 
    164 H164        3.8711  -18.3359  -48.0670 H         1 UNK         0.3000 
    165 H165        2.9687  -19.3839  -44.7934 H         1 UNK         0.0600 
    166 H166        5.2795  -20.2773  -44.8171 H         1 UNK         0.0600 
    167 H167        5.3062  -20.2487  -46.5809 H         1 UNK         0.0600 
    168 H168        4.2168  -21.3369  -45.7293 H         1 UNK         0.0600 
    169 H169        5.1935  -17.9050  -45.7275 H         1 UNK         0.3000 
    170 H170        5.3552  -15.7368  -45.2023 H         1 UNK         0.0600 
    171 H171        4.7818  -15.5450  -47.6394 H         1 UNK         0.0600 
    172 H172        3.3416  -14.6126  -47.2440 H         1 UNK         0.0600 
    173 H173        4.9415  -13.9519  -46.9164 H         1 UNK         0.0600 
    174 H174        2.7279  -14.6802  -44.4407 H         1 UNK         0.3000 
    175 H175        4.1504  -12.9398  -41.7781 H         1 UNK         0.0600 
    176 H176        2.7948  -11.4695  -44.1042 H         1 UNK         0.0600 
    177 H177        2.8856  -10.9073  -42.4342 H         1 UNK         0.0600 
    178 H178        4.3476  -11.0406  -43.3968 H         1 UNK         0.0600 
    179 H179        1.4645  -12.9574  -42.6492 H         1 UNK         0.3000 
    180 H180        0.3311  -16.0006  -41.9606 H         1 UNK         0.0600 
    181 H181        0.5472  -14.2762  -39.4359 H         1 UNK         0.0600 
    182 H182        0.9613  -15.9817  -39.5626 H         1 UNK         0.0600 
    183 H183       -0.7078  -15.4742  -39.7540 H         1 UNK         0.0600 
    184 H184       -0.5545  -13.2392  -41.3757 H         1 UNK         0.3000 
    185 H185       -2.2247  -12.3993  -42.6678 H         1 UNK         0.0600 
    186 H186       -1.4044  -10.8174  -44.4480 H         1 UNK         0.0600 
    187 H187       -0.0587  -11.4201  -43.4994 H         1 UNK         0.0600 
    188 H188       -0.3637  -12.0787  -45.1037 H         1 UNK         0.0600 
    189 H189       -2.6480  -14.0426  -45.0043 H         1 UNK         0.3000 
    190 H190       -4.8398  -20.0930  -45.6962 H         1 UNK         0.3000 
    191 H191       -7.5074  -21.1029  -44.7717 H         1 UNK         0.0600 
    192 H192       -6.8256  -20.0763  -42.5829 H         1 UNK         0.0600 
    193 H193       -6.9968  -18.8895  -43.8606 H         1 UNK         0.0600 
    194 H194       -5.3894  -19.4082  -43.3493 H         1 UNK         0.0600 
    195 H195       -3.9477  -21.3618  -44.3160 H         1 UNK         0.3000 
    196 H196       -4.0990  -23.3488  -42.3102 H         1 UNK         0.0600 
    197 H197       -1.7459  -22.5143  -44.0833 H         1 UNK         0.0600 
    198 H198       -2.2159  -21.7542  -42.5654 H         1 UNK         0.0600 
    199 H199       -1.6280  -23.4096  -42.5752 H         1 UNK         0.0600 
    200 H200       -3.9061  -23.7166  -45.8409 H         1 UNK         0.3000 
    201 H201       -3.8879  -26.6842  -45.5679 H         1 UNK         0.0600 
    202 H202       -2.0423  -25.0191  -47.3683 H         1 UNK         0.0600 
    203 H203       -2.1300  -26.7774  -47.3187 H         1 UNK         0.0600 
    204 H204       -1.5306  -25.8948  -45.9275 H         1 UNK         0.0600 
    205 H205       -5.8169  -24.3681  -46.3911 H         1 UNK         0.3000 
    206 H206       -7.4074  -23.8845  -47.8665 H         1 UNK         0.0600 
    207 H207       -8.1768  -26.1684  -47.1842 H         1 UNK         0.0600 
    208 H208       -8.6790  -25.7748  -48.8192 H         1 UNK         0.0600 
    209 H209       -7.3261  -26.8688  -48.5605 H         1 UNK         0.0600 
    210 H210       -4.7705  -23.4465  -48.7742 H         1 UNK         0.3000 
    211 H211       -3.6515  -22.5948  -50.4561 H         1 UNK         0.0600 
    212 H212       -4.6691  -22.0649  -52.6354 H         1 UNK         0.0600 
    213 H213       -5.8106  -21.6847  -51.3576 H         1 UNK         0.0600 
    214 H214       -6.0135  -23.1390  -52.3302 H         1 UNK         0.0600 
    215 H215       -4.4128  -25.8270  -50.2945 H         1 UNK         0.3000 
    216 H216       -3.4181  -26.7493  -52.8295 H         1 UNK         0.0600 
    217 H217       -3.9977  -28.2835  -50.2422 H         1 UNK         0.0600 
    218 H218       -3.8020  -28.9840  -51.8427 H         1 UNK         0.0600 
    219 H219       -5.1737  -27.9373  -51.5099 H         1 UNK         0.0600 
    220 H220       -1.8480  -26.0681  -49.7599 H         1 UNK         0.3000 
    221 H221        0.7603  -26.9226  -50.8704 H         1 UNK         0.0600 
    222 H222       -0.0143  -28.9223  -49.6702 H         1 UNK         0.0600 
    223 H223       -0.3276  -27.9765  -48.2185 H         1 UNK         0.0600 
    224 H224        1.3181  -28.1735  -48.8068 H         1 UNK         0.0600 
    225 H225        1.2191  -23.5608  -49.5136 H         1 UNK         0.3000 
    226 H226       -0.3084  -24.5609  -51.7389 H         1 UNK         0.0600 
    227 H227        2.7431  -24.2002  -51.9649 H         1 UNK         0.0600 
    228 H228        1.8776  -25.6984  -52.2792 H         1 UNK         0.0600 
    229 H229        1.6442  -24.3212  -53.3305 H         1 UNK         0.0600 
    230 H230       -1.1485  -22.7599  -52.7221 H         1 UNK         0.3000 
    231 H231       -0.4820  -20.0901  -51.7507 H         1 UNK         0.0600 
    232 H232       -2.4457  -21.0826  -53.8811 H         1 UNK         0.0600 
    233 H233       -2.3494  -19.4320  -53.2742 H         1 UNK         0.0600 
    234 H234       -2.8149  -20.7327  -52.1931 H         1 UNK         0.0600 
    235 H235        1.8348  -20.6811  -52.5244 H         1 UNK         0.3000 
    236 H236        2.5884  -20.8778  -55.1721 H         1 UNK         0.0600 
    237 H237        4.0231  -21.4531  -53.2280 H         1 UNK         0.0600 
    238 H238        4.8794  -20.3848  -54.3286 H         1 UNK         0.0600 
    239 H239        4.2107  -19.7443  -52.8340 H         1 UNK         0.0600 
    240 H240        1.8282  -17.8924  -53.4931 H         1 UNK         0.3000 
    241 H241        2.9379  -16.1556  -55.5543 H         1 UNK         0.0600 
    242 H242       -0.7373  -17.1354  -56.7877 H         1 UNK         0.3800 
    243 H243        0.1115  -18.1270  -55.6307 H         1 UNK         0.3800 
    244 H244        1.7600  -14.3092  -54.2436 H         1 UNK         0.0800 
    245 H245        3.0292  -15.1700  -53.4394 H         1 UNK         0.0800 
    246 H246       -0.5184  -13.8837  -53.1006 H         1 UNK         0.0800 
    247 H247       -0.9462  -15.3796  -53.9049 H         1 UNK         0.0800 
@<TRIPOS>BOND
     1    1    2 1    
     2    1  127 1    
     3    1  128 1    
     4    1  129 1    
     5    2    3 2    
     6    2    4 am   BACKBONE|DICT|INTERRES
     7    4    5 1    
     8    4  130 1    
     9    5    6 1    
    10    5   65 1    
    11    5  131 1    
    12    6    7 1    
    13    6  132 1    
    14    6  133 1    
    15    7    8 1    
    16    8    9 1    
    17    8  134 1    
    18    8  135 1    
    19    9   10 ar   
    20    9   14 ar   
    21   10   11 ar   
    22   10  136 1    
    23   11   12 ar   
    24   11  126 1    
    25   12   13 ar   
    26   12  137 1    
    27   13   14 ar   
    28   13   15 1    
    29   14  138 1    
    30   15   16 1    
    31   15  139 1    
    32   15  140 1    
    33   16   17 1    
    34   17   18 1    
    35   17  141 1    
    36   17  142 1    
    37   18   19 1    
    38   18   67 1    
    39   18  143 1    
    40   19   20 am   BACKBONE|DICT|INTERRES
    41   19  144 1    
    42   20   21 2    
    43   20   22 1    
    44   22   23 1    
    45   22   24 1    
    46   22  145 1    
    47   23  146 1    
    48   23  147 1    
    49   23  148 1    
    50   24   25 am   BACKBONE|DICT|INTERRES
    51   24  149 1    
    52   25   26 2    
    53   25   27 1    
    54   27   28 1    
    55   27   29 1    
    56   27  150 1    
    57   28  151 1    
    58   28  152 1    
    59   28  153 1    
    60   29   30 am   BACKBONE|DICT|INTERRES
    61   29  154 1    
    62   30   31 2    
    63   30   32 1    
    64   32   33 1    
    65   32   34 1    
    66   32  155 1    
    67   33  156 1    
    68   33  157 1    
    69   33  158 1    
    70   34   35 am   BACKBONE|DICT|INTERRES
    71   34  159 1    
    72   35   36 2    
    73   35   37 1    
    74   37   38 1    
    75   37   39 1    
    76   37  160 1    
    77   38  161 1    
    78   38  162 1    
    79   38  163 1    
    80   39   40 am   BACKBONE|DICT|INTERRES
    81   39  164 1    
    82   40   41 2    
    83   40   42 1    
    84   42   43 1    
    85   42   44 1    
    86   42  165 1    
    87   43  166 1    
    88   43  167 1    
    89   43  168 1    
    90   44   45 am   BACKBONE|DICT|INTERRES
    91   44  169 1    
    92   45   46 2    
    93   45   47 1    
    94   47   48 1    
    95   47   49 1    
    96   47  170 1    
    97   48  171 1    
    98   48  172 1    
    99   48  173 1    
   100   49   50 am   BACKBONE|DICT|INTERRES
   101   49  174 1    
   102   50   51 2    
   103   50   52 1    
   104   52   53 1    
   105   52   54 1    
   106   52  175 1    
   107   53  176 1    
   108   53  177 1    
   109   53  178 1    
   110   54   55 am   BACKBONE|DICT|INTERRES
   111   54  179 1    
   112   55   56 2    
   113   55   57 1    
   114   57   58 1    
   115   57   59 1    
   116   57  180 1    
   117   58  181 1    
   118   58  182 1    
   119   58  183 1    
   120   59   60 am   BACKBONE|DICT|INTERRES
   121   59  184 1    
   122   60   61 2    
   123   60   62 1    
   124   62   63 1    
   125   62   64 1    
   126   62  185 1    
   127   63  186 1    
   128   63  187 1    
   129   63  188 1    
   130   64   65 am   BACKBONE|DICT|INTERRES
   131   64  189 1    
   132   65   66 2    
   133   67   68 2    
   134   67   69 am   BACKBONE|DICT|INTERRES
   135   69   70 1    
   136   69  190 1    
   137   70   71 1    
   138   70   72 1    
   139   70  191 1    
   140   71  192 1    
   141   71  193 1    
   142   71  194 1    
   143   72   73 2    
   144   72   74 am   BACKBONE|DICT|INTERRES
   145   74   75 1    
   146   74  195 1    
   147   75   76 1    
   148   75   77 1    
   149   75  196 1    
   150   76  197 1    
   151   76  198 1    
   152   76  199 1    
   153   77   78 2    
   154   77   79 am   BACKBONE|DICT|INTERRES
   155   79   80 1    
   156   79  200 1    
   157   80   81 1    
   158   80   82 1    
   159   80  201 1    
   160   81  202 1    
   161   81  203 1    
   162   81  204 1    
   163   82   83 2    
   164   82   84 am   BACKBONE|DICT|INTERRES
   165   84   85 1    
   166   84  205 1    
   167   85   86 1    
   168   85   87 1    
   169   85  206 1    
   170   86  207 1    
   171   86  208 1    
   172   86  209 1    
   173   87   88 2    
   174   87   89 am   BACKBONE|DICT|INTERRES
   175   89   90 1    
   176   89  210 1    
   177   90   91 1    
   178   90   92 1    
   179   90  211 1    
   180   91  212 1    
   181   91  213 1    
   182   91  214 1    
   183   92   93 2    
   184   92   94 am   BACKBONE|DICT|INTERRES
   185   94   95 1    
   186   94  215 1    
   187   95   96 1    
   188   95   97 1    
   189   95  216 1    
   190   96  217 1    
   191   96  218 1    
   192   96  219 1    
   193   97   98 2    
   194   97   99 am   BACKBONE|DICT|INTERRES
   195   99  100 1    
   196   99  220 1    
   197  100  101 1    
   198  100  102 1    
   199  100  221 1    
   200  101  222 1    
   201  101  223 1    
   202  101  224 1    
   203  102  103 2    
   204  102  104 am   BACKBONE|DICT|INTERRES
   205  104  105 1    
   206  104  225 1    
   207  105  106 1    
   208  105  107 1    
   209  105  226 1    
   210  106  227 1    
   211  106  228 1    
   212  106  229 1    
   213  107  108 2    
   214  107  109 am   BACKBONE|DICT|INTERRES
   215  109  110 1    
   216  109  230 1    
   217  110  111 1    
   218  110  112 1    
   219  110  231 1    
   220  111  232 1    
   221  111  233 1    
   222  111  234 1    
   223  112  113 2    
   224  112  114 am   BACKBONE|DICT|INTERRES
   225  114  115 1    
   226  114  235 1    
   227  115  116 1    
   228  115  117 1    
   229  115  236 1    
   230  116  237 1    
   231  116  238 1    
   232  116  239 1    
   233  117  118 2    
   234  117  119 am   BACKBONE|DICT|INTERRES
   235  119  120 1    
   236  119  240 1    
   237  120  121 1    
   238  120  124 1    
   239  120  241 1    
   240  121  122 am   BACKBONE|DICT|INTERRES
   241  121  123 2    
   242  122  242 1    
   243  122  243 1    
   244  124  125 1    
   245  124  244 1    
   246  124  245 1    
   247  125  126 1    
   248  126  246 1    
   249  126  247 1    
@<TRIPOS>SUBSTRUCTURE
     1 UNK         1 GROUP             0       ****    0 ROOT    
