@<TRIPOS>MOLECULE
3R540
247   249    1
SMALL
USER_CHARGES


@<TRIPOS>ATOM
      1 CA          4.9202  -10.9781  -49.1111 C.3       0 UNK        -0.1800 
      2 C           3.7617  -11.9463  -48.9201 C.2       0 UNK         0.5000 
      3 O           2.6144  -11.5122  -48.8093 O.2       0 UNK        -0.5000 
      4 N           4.0578  -13.2529  -48.8776 N.am      1 UNK        -0.5000 
      5 CA          3.1323  -14.3760  -48.6732 C.3       1 UNK         0.1400 
      6 C6          1.9891  -14.4287  -49.7231 C.3       23 UNK        -0.0398 
      7 S7          1.1908  -16.0617  -49.8117 S.3       23 UNK        -0.2404 
      8 C8          1.9341  -16.7885  -51.3002 C.3       23 UNK        -0.0205 
      9 C9          1.5206  -18.2455  -51.4061 C.ar      23 UNK        -0.0193 
     10 C10         0.3290  -18.5986  -52.0454 C.ar      23 UNK        -0.1150 
     11 C11        -0.0933  -19.9309  -52.0688 C.ar      23 UNK        -0.0193 
     12 C12         0.6824  -20.9099  -51.4416 C.ar      23 UNK        -0.1150 
     13 C13         1.8794  -20.5695  -50.8047 C.ar      23 UNK        -0.0193 
     14 C14         2.3019  -19.2367  -50.8080 C.ar      23 UNK        -0.1150 
     15 C15         2.6990  -21.6445  -50.1017 C.3       23 UNK        -0.0205 
     16 S16         3.1817  -21.2125  -48.3924 S.3       23 UNK        -0.2404 
     17 C17         1.6193  -20.6583  -47.6231 C.3       23 UNK        -0.0398 
     18 CA          0.7871  -21.8205  -47.0282 C.3       11 UNK         0.1400 
     19 N           0.0808  -21.4282  -45.8072 N.am      11 UNK        -0.5000 
     20 C          -0.5750  -22.2723  -44.9984 C.2       10 UNK         0.5000 
     21 O          -0.6152  -23.4913  -45.1663 O.2       10 UNK        -0.5000 
     22 CA         -1.3688  -21.6384  -43.8428 C.3       10 UNK         0.1400 
     23 CB         -0.4501  -21.2906  -42.6618 C.3       10 UNK        -0.1800 
     24 N          -2.0970  -20.4444  -44.2737 N.am      10 UNK        -0.5000 
     25 C          -3.1235  -20.4593  -45.1361 C.2       9 UNK         0.5000 
     26 O          -3.5954  -21.4877  -45.6191 O.2       9 UNK        -0.5000 
     27 CA         -3.6856  -19.0938  -45.5644 C.3       9 UNK         0.1400 
     28 CB         -4.7086  -18.5786  -44.5414 C.3       9 UNK        -0.1800 
     29 N          -2.6310  -18.0972  -45.7495 N.am      9 UNK        -0.5000 
     30 C          -1.7432  -18.1219  -46.7553 C.2       8 UNK         0.5000 
     31 O          -1.7194  -18.9919  -47.6241 O.2       8 UNK        -0.5000 
     32 CA         -0.6748  -17.0142  -46.7676 C.3       8 UNK         0.1400 
     33 CB         -1.2563  -15.7287  -47.3772 C.3       8 UNK        -0.1800 
     34 N          -0.1533  -16.7066  -45.4390 N.am      8 UNK        -0.5000 
     35 C           0.4159  -17.5787  -44.5960 C.2       7 UNK         0.5000 
     36 O           0.6490  -18.7530  -44.8804 O.2       7 UNK        -0.5000 
     37 CA          0.7102  -17.0721  -43.1702 C.3       7 UNK         0.1400 
     38 CB          2.1998  -16.7327  -43.0103 C.3       7 UNK        -0.1800 
     39 N          -0.0894  -15.9087  -42.7717 N.am      7 UNK        -0.5000 
     40 C          -1.4260  -15.8412  -42.7102 C.2       6 UNK         0.5000 
     41 O          -2.1645  -16.7811  -43.0105 O.2       6 UNK        -0.5000 
     42 CA         -2.0200  -14.4867  -42.2632 C.3       6 UNK         0.1400 
     43 CB         -3.5588  -14.5010  -42.2322 C.3       6 UNK        -0.1800 
     44 N          -1.5257  -14.0552  -40.9531 N.am      6 UNK        -0.5000 
     45 C          -0.3008  -13.5856  -40.6884 C.2       5 UNK         0.5000 
     46 O           0.5842  -13.4621  -41.5455 O.2       5 UNK        -0.5000 
     47 CA         -0.0144  -13.2385  -39.2180 C.3       5 UNK         0.1400 
     48 CB          0.1390  -14.5177  -38.3787 C.3       5 UNK        -0.1800 
     49 N           1.2319  -12.4881  -39.1530 N.am      5 UNK        -0.5000 
     50 C           1.4011  -11.2639  -38.6422 C.2       4 UNK         0.5000 
     51 O           0.5393  -10.6569  -38.0050 O.2       4 UNK        -0.5000 
     52 CA          2.7682  -10.5973  -38.9096 C.3       4 UNK         0.1400 
     53 CB          3.6758  -10.7139  -37.6754 C.3       4 UNK        -0.1800 
     54 N           3.4626  -11.1724  -40.0681 N.am      4 UNK        -0.5000 
     55 C           3.0655  -11.0311  -41.3407 C.2       3 UNK         0.5000 
     56 O           2.1409  -10.2903  -41.6821 O.2       3 UNK        -0.5000 
     57 CA          3.7890  -11.8732  -42.4063 C.3       3 UNK         0.1400 
     58 CB          4.6945  -12.9853  -41.8362 C.3       3 UNK        -0.1800 
     59 N           2.7820  -12.4799  -43.2733 N.am      3 UNK        -0.5000 
     60 C           2.8424  -12.5109  -44.6074 C.2       2 UNK         0.5000 
     61 O           3.7788  -12.0379  -45.2583 O.2       2 UNK        -0.5000 
     62 CA          1.6491  -13.1678  -45.3301 C.3       2 UNK         0.1400 
     63 CB          0.3937  -12.2855  -45.2448 C.3       2 UNK        -0.1800 
     64 N           1.9669  -13.3975  -46.7383 N.am      2 UNK        -0.5000 
     65 C           2.6360  -14.4559  -47.2099 C.2       1 UNK         0.5000 
     66 O           2.9084  -15.4456  -46.5292 O.2       1 UNK        -0.5000 
     67 C          -0.1792  -22.4179  -48.0705 C.2       11 UNK         0.5000 
     68 O           0.1062  -23.4797  -48.6210 O.2       11 UNK        -0.5000 
     69 N          -1.3288  -21.7614  -48.2852 N.am      12 UNK        -0.5000 
     70 CA         -2.3881  -22.2262  -49.1788 C.3       12 UNK         0.1400 
     71 CB         -3.4705  -21.1493  -49.3090 C.3       12 UNK        -0.1800 
     72 C          -3.0133  -23.5599  -48.7438 C.2       12 UNK         0.5000 
     73 O          -3.3246  -24.3808  -49.6065 O.2       12 UNK        -0.5000 
     74 N          -3.1773  -23.7645  -47.4308 N.am      13 UNK        -0.5000 
     75 CA         -3.6325  -25.0263  -46.8494 C.3       13 UNK         0.1400 
     76 CB         -3.9679  -24.8268  -45.3642 C.3       13 UNK        -0.1800 
     77 C          -2.6036  -26.1549  -47.0416 C.2       13 UNK         0.5000 
     78 O          -2.9848  -27.2543  -47.4427 O.2       13 UNK        -0.5000 
     79 N          -1.3185  -25.8533  -46.8029 N.am      14 UNK        -0.5000 
     80 CA         -0.1931  -26.7710  -47.0053 C.3       14 UNK         0.1400 
     81 CB          1.0864  -26.1493  -46.4252 C.3       14 UNK        -0.1800 
     82 C           0.0093  -27.1621  -48.4825 C.2       14 UNK         0.5000 
     83 O           0.2950  -28.3244  -48.7719 O.2       14 UNK        -0.5000 
     84 N          -0.1794  -26.1943  -49.3892 N.am      15 UNK        -0.5000 
     85 CA         -0.1458  -26.3741  -50.8426 C.3       15 UNK         0.1400 
     86 CB          0.0081  -24.9945  -51.5043 C.3       15 UNK        -0.1800 
     87 C          -1.3867  -27.0964  -51.4076 C.2       15 UNK         0.5000 
     88 O          -1.3686  -27.4877  -52.5751 O.2       15 UNK        -0.5000 
     89 N          -2.4414  -27.2333  -50.5891 N.am      16 UNK        -0.5000 
     90 CA         -3.7650  -27.7793  -50.9099 C.3       16 UNK         0.1400 
     91 CB         -3.6768  -29.2659  -51.3130 C.3       16 UNK        -0.1800 
     92 C          -4.5513  -26.9208  -51.9255 C.2       16 UNK         0.5000 
     93 O          -5.4448  -27.4302  -52.6041 O.2       16 UNK        -0.5000 
     94 N          -4.2230  -25.6241  -51.9906 N.am      17 UNK        -0.5000 
     95 CA         -4.9454  -24.6105  -52.7551 C.3       17 UNK         0.1400 
     96 CB         -4.0021  -23.4332  -53.0543 C.3       17 UNK        -0.1800 
     97 C          -6.1836  -24.1227  -51.9851 C.2       17 UNK         0.5000 
     98 O          -7.2193  -23.8717  -52.6014 O.2       17 UNK        -0.5000 
     99 N          -6.0415  -23.9987  -50.6548 N.am      18 UNK        -0.5000 
    100 CA        -7.0222  -23.6005  -49.6335 C.3       18 UNK         0.1400 
    101 CB        -8.1766  -24.6158  -49.5521 C.3       18 UNK        -0.1800 
    102 C         -7.5562  -22.1589  -49.7657 C.2       18 UNK         0.5000 
    103 O         -7.5214  -21.4068  -48.7925 O.2       18 UNK        -0.5000 
    104 N         -8.0174  -21.7919  -50.9660 N.am      19 UNK        -0.5000 
    105 CA        -8.5335  -20.4690  -51.3276 C.3       19 UNK         0.1400 
    106 CB        -9.4540  -20.6284  -52.5487 C.3       19 UNK        -0.1800 
    107 C         -7.4216  -19.4409  -51.6230 C.2       19 UNK         0.5000 
    108 O         -7.7262  -18.2643  -51.8193 O.2       19 UNK        -0.5000 
    109 N         -6.1652  -19.9086  -51.6716 N.am      20 UNK        -0.5000 
    110 CA        -4.9379  -19.1601  -51.9637 C.3       20 UNK         0.1400 
    111 CB        -4.6857  -18.0501  -50.9216 C.3       20 UNK        -0.1800 
    112 C         -4.8513  -18.6560  -53.4187 C.2       20 UNK         0.5000 
    113 O         -4.1451  -17.6854  -53.6961 O.2       20 UNK        -0.5000 
    114 N         -5.5248  -19.3575  -54.3395 N.am      21 UNK        -0.5000 
    115 CA        -5.5693  -19.0781  -55.7767 C.3       21 UNK         0.1400 
    116 CB        -6.8591  -19.6953  -56.3481 C.3       21 UNK        -0.1800 
    117 C         -4.2990  -19.5516  -56.5228 C.2       21 UNK         0.5000 
    118 O         -4.4006  -20.2011  -57.5652 O.2       21 UNK        -0.5000 
    119 N         -3.1233  -19.2259  -55.9734 N.am      22 UNK        -0.5000 
    120 CA        -1.8017  -19.5580  -56.5356 C.3       22 UNK         0.1400 
    121 C         -1.2930  -18.5414  -57.6006 C.2       22 UNK         0.5000 
    122 N         -1.9675  -17.4220  -57.8353 N.am      22 UNK        -0.7600 
    123 O         -0.2703  -18.7784  -58.2377 O.2       22 UNK        -0.5000 
    124 C124       -0.7391  -19.7789  -55.4273 C.3       23 UNK        -0.0398 
    125 S125       -1.1656  -21.1643  -54.3163 S.3       23 UNK        -0.2404 
    126 C126       -1.4082  -20.3095  -52.7305 C.3       23 UNK        -0.0205 
    127 H127        4.7592  -10.3710  -50.0020 H         1 UNK         0.0600 
    128 H128        5.8714  -11.4994  -49.2218 H         1 UNK         0.0600 
    129 H129        4.9953  -10.3121  -48.2515 H         1 UNK         0.0600 
    130 H130        5.0294  -13.5223  -48.9491 H         1 UNK         0.3000 
    131 H131        3.7494  -15.2622  -48.8323 H         1 UNK         0.0600 
    132 H132        1.2218  -13.6833  -49.5090 H         1 UNK         0.0800 
    133 H133        2.3776  -14.1791  -50.7113 H         1 UNK         0.0800 
    134 H134        1.6130  -16.2342  -52.1834 H         1 UNK         0.0800 
    135 H135        3.0210  -16.7053  -51.2505 H         1 UNK         0.0800 
    136 H136       -0.2814  -17.8304  -52.4991 H         1 UNK         0.1150 
    137 H137        0.3463  -21.9373  -51.4445 H         1 UNK         0.1150 
    138 H138        3.2192  -18.9641  -50.3053 H         1 UNK         0.1150 
    139 H139        2.1579  -22.5908  -50.0809 H         1 UNK         0.0800 
    140 H140        3.6034  -21.8272  -50.6831 H         1 UNK         0.0800 
    141 H141        1.0354  -20.0369  -48.3042 H         1 UNK         0.0800 
    142 H142        1.9249  -19.9814  -46.8250 H         1 UNK         0.0800 
    143 H143        1.4729  -22.6171  -46.7315 H         1 UNK         0.0600 
    144 H144        0.1031  -20.4411  -45.5649 H         1 UNK         0.3000 
    145 H145       -2.0994  -22.3733  -43.4980 H         1 UNK         0.0600 
    146 H146       -1.0192  -20.8816  -41.8268 H         1 UNK         0.0600 
    147 H147        0.0665  -22.1797  -42.2982 H         1 UNK         0.0600 
    148 H148        0.3113  -20.5612  -42.9378 H         1 UNK         0.0600 
    149 H149       -1.7550  -19.5528  -43.9464 H         1 UNK         0.3000 
    150 H150       -4.1996  -19.2273  -46.5187 H         1 UNK         0.0600 
    151 H151       -5.5313  -19.2853  -44.4250 H         1 UNK         0.0600 
    152 H152       -5.1385  -17.6280  -44.8575 H         1 UNK         0.0600 
    153 H153       -4.2602  -18.4331  -43.5581 H         1 UNK         0.0600 
    154 H154       -2.5405  -17.3943  -45.0254 H         1 UNK         0.3000 
    155 H155        0.1596  -17.3588  -47.3806 H         1 UNK         0.0600 
    156 H156       -2.0832  -15.3366  -46.7838 H         1 UNK         0.0600 
    157 H157       -0.4998  -14.9479  -47.4518 H         1 UNK         0.0600 
    158 H158       -1.6331  -15.9118  -48.3844 H         1 UNK         0.0600 
    159 H159       -0.3055  -15.7684  -45.1054 H         1 UNK         0.3000 
    160 H160        0.4682  -17.8854  -42.4833 H         1 UNK         0.0600 
    161 H161        2.5031  -15.9183  -43.6685 H         1 UNK         0.0600 
    162 H162        2.8235  -17.5948  -43.2504 H         1 UNK         0.0600 
    163 H163        2.4313  -16.4398  -41.9861 H         1 UNK         0.0600 
    164 H164        0.4217  -15.0887  -42.4581 H         1 UNK         0.3000 
    165 H165       -1.7134  -13.7466  -43.0054 H         1 UNK         0.0600 
    166 H166       -3.9575  -13.5196  -41.9751 H         1 UNK         0.0600 
    167 H167       -3.9689  -14.7697  -43.2068 H         1 UNK         0.0600 
    168 H168       -3.9403  -15.2197  -41.5058 H         1 UNK         0.0600 
    169 H169       -2.1752  -14.1586  -40.1867 H         1 UNK         0.3000 
    170 H170       -0.8468  -12.6449  -38.8345 H         1 UNK         0.0600 
    171 H171        0.9337  -15.1590  -38.7626 H         1 UNK         0.0600 
    172 H172        0.3748  -14.2795  -37.3413 H         1 UNK         0.0600 
    173 H173       -0.7819  -15.1018  -38.3742 H         1 UNK         0.0600 
    174 H174        1.9767  -12.8642  -39.7214 H         1 UNK         0.3000 
    175 H175        2.5875   -9.5382  -39.1053 H         1 UNK         0.0600 
    176 H176        4.6216  -10.1943  -37.8302 H         1 UNK         0.0600 
    177 H177        3.8982  -11.7545  -37.4357 H         1 UNK         0.0600 
    178 H178        3.2020  -10.2694  -36.7991 H         1 UNK         0.0600 
    179 H179        4.2403  -11.7850  -39.8685 H         1 UNK         0.3000 
    180 H180        4.4113  -11.1761  -42.9709 H         1 UNK         0.0600 
    181 H181        4.1330  -13.6909  -41.2223 H         1 UNK         0.0600 
    182 H182        5.5021  -12.5731  -41.2302 H         1 UNK         0.0600 
    183 H183        5.1629  -13.5529  -42.6407 H         1 UNK         0.0600 
    184 H184        1.9488  -12.8130  -42.7951 H         1 UNK         0.3000 
    185 H185        1.4348  -14.1209  -44.8444 H         1 UNK         0.0600 
    186 H186        0.0991  -12.1167  -44.2081 H         1 UNK         0.0600 
    187 H187        0.5580  -11.3093  -45.7029 H         1 UNK         0.0600 
    188 H188       -0.4518  -12.7540  -45.7490 H         1 UNK         0.0600 
    189 H189        1.9000  -12.5907  -47.3517 H         1 UNK         0.3000 
    190 H190       -1.4795  -20.8605  -47.8382 H         1 UNK         0.3000 
    191 H191       -1.9416  -22.3835  -50.1616 H         1 UNK         0.0600 
    192 H192       -3.0500  -20.2235  -49.7003 H         1 UNK         0.0600 
    193 H193       -4.2617  -21.4694  -49.9866 H         1 UNK         0.0600 
    194 H194       -3.9347  -20.9251  -48.3485 H         1 UNK         0.0600 
    195 H195       -2.9767  -23.0080  -46.7846 H         1 UNK         0.3000 
    196 H196       -4.5498  -25.3218  -47.3634 H         1 UNK         0.0600 
    197 H197       -4.3270  -25.7545  -44.9171 H         1 UNK         0.0600 
    198 H198       -4.7507  -24.0791  -45.2356 H         1 UNK         0.0600 
    199 H199       -3.0991  -24.5010  -44.7923 H         1 UNK         0.0600 
    200 H200       -1.0915  -24.9312  -46.4419 H         1 UNK         0.3000 
    201 H201       -0.4073  -27.6854  -46.4484 H         1 UNK         0.0600 
    202 H202        0.9738  -25.9365  -45.3620 H         1 UNK         0.0600 
    203 H203        1.3451  -25.2163  -46.9262 H         1 UNK         0.0600 
    204 H204        1.9342  -26.8267  -46.5340 H         1 UNK         0.0600 
    205 H205       -0.3201  -25.2428  -49.0567 H         1 UNK         0.3000 
    206 H206        0.7287  -26.9767  -51.0961 H         1 UNK         0.0600 
    207 H207       -0.8370  -24.3441  -51.2763 H         1 UNK         0.0600 
    208 H208        0.9164  -24.4955  -51.1670 H         1 UNK         0.0600 
    209 H209        0.0710  -25.0813  -52.5897 H         1 UNK         0.0600 
    210 H210       -2.3471  -26.8717  -49.6488 H         1 UNK         0.3000 
    211 H211       -4.3346  -27.7291  -49.9809 H         1 UNK         0.0600 
    212 H212       -3.1965  -29.3974  -52.2827 H         1 UNK         0.0600 
    213 H213       -4.6698  -29.7119  -51.3794 H         1 UNK         0.0600 
    214 H214       -3.1135  -29.8403  -50.5775 H         1 UNK         0.0600 
    215 H215       -3.5283  -25.2854  -51.3333 H         1 UNK         0.3000 
    216 H216       -5.2759  -25.0389  -53.7037 H         1 UNK         0.0600 
    217 H217       -4.5064  -22.6642  -53.6411 H         1 UNK         0.0600 
    218 H218       -3.1355  -23.7612  -53.6288 H         1 UNK         0.0600 
    219 H219       -3.6353  -22.9635  -52.1414 H         1 UNK         0.0600 
    220 H220       -5.1244  -24.2272  -50.2829 H         1 UNK         0.3000 
    221 H221       -6.4855  -23.6445  -48.6841 H         1 UNK         0.0600 
    222 H222       -8.7620  -24.6442  -50.4716 H         1 UNK         0.0600 
    223 H223       -7.8015  -25.6218  -49.3637 H         1 UNK         0.0600 
    224 H224       -8.8590  -24.3656  -48.7389 H         1 UNK         0.0600 
    225 H225       -7.9726  -22.4874  -51.7089 H         1 UNK         0.3000 
    226 H226       -9.1262  -20.0816  -50.4965 H         1 UNK         0.0600 
    227 H227      -10.2752  -21.3130  -52.3359 H         1 UNK         0.0600 
    228 H228       -9.8959  -19.6736  -52.8365 H         1 UNK         0.0600 
    229 H229       -8.9118  -21.0139  -53.4133 H         1 UNK         0.0600 
    230 H230       -6.0494  -20.8951  -51.4958 H         1 UNK         0.3000 
    231 H231       -4.1331  -19.8856  -51.8641 H         1 UNK         0.0600 
    232 H232       -5.3849  -17.2214  -51.0344 H         1 UNK         0.0600 
    233 H233       -3.6790  -17.6424  -51.0218 H         1 UNK         0.0600 
    234 H234       -4.7798  -18.4305  -49.9045 H         1 UNK         0.0600 
    235 H235       -6.0528  -20.1590  -54.0293 H         1 UNK         0.3000 
    236 H236       -5.6321  -17.9970  -55.9170 H         1 UNK         0.0600 
    237 H237       -7.7407  -19.3145  -55.8318 H         1 UNK         0.0600 
    238 H238       -6.9766  -19.4533  -57.4053 H         1 UNK         0.0600 
    239 H239       -6.8600  -20.7822  -56.2561 H         1 UNK         0.0600 
    240 H240       -3.1354  -18.6624  -55.1308 H         1 UNK         0.3000 
    241 H241       -1.8956  -20.5045  -57.0715 H         1 UNK         0.0600 
    242 H242       -2.8088  -17.2117  -57.3230 H         1 UNK         0.3800 
    243 H243       -1.6301  -16.7760  -58.5320 H         1 UNK         0.3800 
    244 H244        0.2315  -20.0135  -55.8676 H         1 UNK         0.0800 
    245 H245       -0.5942  -18.8635  -54.8525 H         1 UNK         0.0800 
    246 H246       -2.0240  -19.4243  -52.8854 H         1 UNK         0.0800 
    247 H247       -1.9678  -20.9653  -52.0648 H         1 UNK         0.0800 
@<TRIPOS>BOND
     1    1    2 1    
     2    1  127 1    
     3    1  128 1    
     4    1  129 1    
     5    2    3 2    
     6    2    4 am   BACKBONE|DICT|INTERRES
     7    4    5 1    
     8    4  130 1    
     9    5    6 1    
    10    5   65 1    
    11    5  131 1    
    12    6    7 1    
    13    6  132 1    
    14    6  133 1    
    15    7    8 1    
    16    8    9 1    
    17    8  134 1    
    18    8  135 1    
    19    9   10 ar   
    20    9   14 ar   
    21   10   11 ar   
    22   10  136 1    
    23   11   12 ar   
    24   11  126 1    
    25   12   13 ar   
    26   12  137 1    
    27   13   14 ar   
    28   13   15 1    
    29   14  138 1    
    30   15   16 1    
    31   15  139 1    
    32   15  140 1    
    33   16   17 1    
    34   17   18 1    
    35   17  141 1    
    36   17  142 1    
    37   18   19 1    
    38   18   67 1    
    39   18  143 1    
    40   19   20 am   BACKBONE|DICT|INTERRES
    41   19  144 1    
    42   20   21 2    
    43   20   22 1    
    44   22   23 1    
    45   22   24 1    
    46   22  145 1    
    47   23  146 1    
    48   23  147 1    
    49   23  148 1    
    50   24   25 am   BACKBONE|DICT|INTERRES
    51   24  149 1    
    52   25   26 2    
    53   25   27 1    
    54   27   28 1    
    55   27   29 1    
    56   27  150 1    
    57   28  151 1    
    58   28  152 1    
    59   28  153 1    
    60   29   30 am   BACKBONE|DICT|INTERRES
    61   29  154 1    
    62   30   31 2    
    63   30   32 1    
    64   32   33 1    
    65   32   34 1    
    66   32  155 1    
    67   33  156 1    
    68   33  157 1    
    69   33  158 1    
    70   34   35 am   BACKBONE|DICT|INTERRES
    71   34  159 1    
    72   35   36 2    
    73   35   37 1    
    74   37   38 1    
    75   37   39 1    
    76   37  160 1    
    77   38  161 1    
    78   38  162 1    
    79   38  163 1    
    80   39   40 am   BACKBONE|DICT|INTERRES
    81   39  164 1    
    82   40   41 2    
    83   40   42 1    
    84   42   43 1    
    85   42   44 1    
    86   42  165 1    
    87   43  166 1    
    88   43  167 1    
    89   43  168 1    
    90   44   45 am   BACKBONE|DICT|INTERRES
    91   44  169 1    
    92   45   46 2    
    93   45   47 1    
    94   47   48 1    
    95   47   49 1    
    96   47  170 1    
    97   48  171 1    
    98   48  172 1    
    99   48  173 1    
   100   49   50 am   BACKBONE|DICT|INTERRES
   101   49  174 1    
   102   50   51 2    
   103   50   52 1    
   104   52   53 1    
   105   52   54 1    
   106   52  175 1    
   107   53  176 1    
   108   53  177 1    
   109   53  178 1    
   110   54   55 am   BACKBONE|DICT|INTERRES
   111   54  179 1    
   112   55   56 2    
   113   55   57 1    
   114   57   58 1    
   115   57   59 1    
   116   57  180 1    
   117   58  181 1    
   118   58  182 1    
   119   58  183 1    
   120   59   60 am   BACKBONE|DICT|INTERRES
   121   59  184 1    
   122   60   61 2    
   123   60   62 1    
   124   62   63 1    
   125   62   64 1    
   126   62  185 1    
   127   63  186 1    
   128   63  187 1    
   129   63  188 1    
   130   64   65 am   BACKBONE|DICT|INTERRES
   131   64  189 1    
   132   65   66 2    
   133   67   68 2    
   134   67   69 am   BACKBONE|DICT|INTERRES
   135   69   70 1    
   136   69  190 1    
   137   70   71 1    
   138   70   72 1    
   139   70  191 1    
   140   71  192 1    
   141   71  193 1    
   142   71  194 1    
   143   72   73 2    
   144   72   74 am   BACKBONE|DICT|INTERRES
   145   74   75 1    
   146   74  195 1    
   147   75   76 1    
   148   75   77 1    
   149   75  196 1    
   150   76  197 1    
   151   76  198 1    
   152   76  199 1    
   153   77   78 2    
   154   77   79 am   BACKBONE|DICT|INTERRES
   155   79   80 1    
   156   79  200 1    
   157   80   81 1    
   158   80   82 1    
   159   80  201 1    
   160   81  202 1    
   161   81  203 1    
   162   81  204 1    
   163   82   83 2    
   164   82   84 am   BACKBONE|DICT|INTERRES
   165   84   85 1    
   166   84  205 1    
   167   85   86 1    
   168   85   87 1    
   169   85  206 1    
   170   86  207 1    
   171   86  208 1    
   172   86  209 1    
   173   87   88 2    
   174   87   89 am   BACKBONE|DICT|INTERRES
   175   89   90 1    
   176   89  210 1    
   177   90   91 1    
   178   90   92 1    
   179   90  211 1    
   180   91  212 1    
   181   91  213 1    
   182   91  214 1    
   183   92   93 2    
   184   92   94 am   BACKBONE|DICT|INTERRES
   185   94   95 1    
   186   94  215 1    
   187   95   96 1    
   188   95   97 1    
   189   95  216 1    
   190   96  217 1    
   191   96  218 1    
   192   96  219 1    
   193   97   98 2    
   194   97   99 am   BACKBONE|DICT|INTERRES
   195   99  100 1    
   196   99  220 1    
   197  100  101 1    
   198  100  102 1    
   199  100  221 1    
   200  101  222 1    
   201  101  223 1    
   202  101  224 1    
   203  102  103 2    
   204  102  104 am   BACKBONE|DICT|INTERRES
   205  104  105 1    
   206  104  225 1    
   207  105  106 1    
   208  105  107 1    
   209  105  226 1    
   210  106  227 1    
   211  106  228 1    
   212  106  229 1    
   213  107  108 2    
   214  107  109 am   BACKBONE|DICT|INTERRES
   215  109  110 1    
   216  109  230 1    
   217  110  111 1    
   218  110  112 1    
   219  110  231 1    
   220  111  232 1    
   221  111  233 1    
   222  111  234 1    
   223  112  113 2    
   224  112  114 am   BACKBONE|DICT|INTERRES
   225  114  115 1    
   226  114  235 1    
   227  115  116 1    
   228  115  117 1    
   229  115  236 1    
   230  116  237 1    
   231  116  238 1    
   232  116  239 1    
   233  117  118 2    
   234  117  119 am   BACKBONE|DICT|INTERRES
   235  119  120 1    
   236  119  240 1    
   237  120  121 1    
   238  120  124 1    
   239  120  241 1    
   240  121  122 am   BACKBONE|DICT|INTERRES
   241  121  123 2    
   242  122  242 1    
   243  122  243 1    
   244  124  125 1    
   245  124  244 1    
   246  124  245 1    
   247  125  126 1    
   248  126  246 1    
   249  126  247 1    
@<TRIPOS>SUBSTRUCTURE
     1 UNK         1 GROUP             0       ****    0 ROOT    
