@<TRIPOS>MOLECULE
3R540
247   249    1
SMALL
USER_CHARGES


@<TRIPOS>ATOM
      1 CA          5.6004  -16.5260  -48.4097 C.3       0 UNK        -0.1800 
      2 C           5.1078  -15.1785  -47.9016 C.2       0 UNK         0.5000 
      3 O           5.6438  -14.1435  -48.2954 O.2       0 UNK        -0.5000 
      4 N           4.0897  -15.1935  -47.0290 N.am      1 UNK        -0.5000 
      5 CA          3.4312  -14.0207  -46.4251 C.3       1 UNK         0.1400 
      6 C6          2.6697  -13.1274  -47.4420 C.3       23 UNK        -0.0398 
      7 S7          1.3834  -14.0645  -48.3369 S.3       23 UNK        -0.2404 
      8 C8          2.1624  -14.2562  -49.9685 C.3       23 UNK        -0.0205 
      9 C9          1.7108  -15.5345  -50.6538 C.ar      23 UNK        -0.0193 
     10 C10         0.8539  -15.4826  -51.7560 C.ar      23 UNK        -0.1150 
     11 C11         0.4764  -16.6559  -52.4146 C.ar      23 UNK        -0.0193 
     12 C12         0.9639  -17.8863  -51.9631 C.ar      23 UNK        -0.1150 
     13 C13         1.8170  -17.9528  -50.8560 C.ar      23 UNK        -0.0193 
     14 C14         2.1829  -16.7720  -50.2049 C.ar      23 UNK        -0.1150 
     15 C15         2.3925  -19.2890  -50.4027 C.3       23 UNK        -0.0205 
     16 S16         1.1074  -20.5122  -49.9928 S.3       23 UNK        -0.2404 
     17 C17         0.5944  -20.0203  -48.3093 C.3       23 UNK        -0.0398 
     18 CA          0.2299  -21.2537  -47.4428 C.3       11 UNK         0.1400 
     19 N           0.2049  -20.9544  -46.0074 N.am      11 UNK        -0.5000 
     20 C           0.0789  -21.8792  -45.0424 C.2       10 UNK         0.5000 
     21 O           0.0535  -23.0904  -45.2579 O.2       10 UNK        -0.5000 
     22 CA         -0.1174  -21.3712  -43.6018 C.3       10 UNK         0.1400 
     23 CB          1.2298  -21.0330  -42.9478 C.3       10 UNK        -0.1800 
     24 N          -1.0187  -20.2189  -43.5355 N.am      10 UNK        -0.5000 
     25 C          -2.3147  -20.2621  -43.8790 C.2       9 UNK         0.5000 
     26 O          -2.8946  -21.2949  -44.2107 O.2       9 UNK        -0.5000 
     27 CA         -3.0830  -18.9293  -43.9089 C.3       9 UNK         0.1400 
     28 CB         -3.6166  -18.5769  -42.5129 C.3       9 UNK        -0.1800 
     29 N          -2.2781  -17.8238  -44.4300 N.am      9 UNK        -0.5000 
     30 C          -1.7993  -17.7501  -45.6811 C.2       8 UNK         0.5000 
     31 O          -2.0344  -18.5889  -46.5511 O.2       8 UNK        -0.5000 
     32 CA         -0.8448  -16.5792  -45.9894 C.3       8 UNK         0.1400 
     33 CB         -1.6281  -15.2806  -46.2282 C.3       8 UNK        -0.1800 
     34 N           0.1346  -16.3810  -44.9181 N.am      8 UNK        -0.5000 
     35 C           1.0682  -17.2833  -44.5840 C.2       7 UNK         0.5000 
     36 O           1.2675  -18.3176  -45.2207 O.2       7 UNK        -0.5000 
     37 CA          1.8752  -17.0244  -43.2990 C.3       7 UNK         0.1400 
     38 CB          3.1675  -16.2478  -43.5761 C.3       7 UNK        -0.1800 
     39 N           1.0896  -16.3254  -42.2833 N.am      7 UNK        -0.5000 
     40 C           0.1649  -16.9196  -41.5185 C.2       6 UNK         0.5000 
     41 O          -0.0935  -18.1217  -41.5719 O.2       6 UNK        -0.5000 
     42 CA         -0.6321  -16.0076  -40.5693 C.3       6 UNK         0.1400 
     43 CB          0.1421  -15.7682  -39.2650 C.3       6 UNK        -0.1800 
     44 N          -0.9710  -14.7228  -41.1853 N.am      6 UNK        -0.5000 
     45 C          -1.8412  -14.5910  -42.1973 C.2       5 UNK         0.5000 
     46 O          -2.4462  -15.5373  -42.6977 O.2       5 UNK        -0.5000 
     47 CA         -2.0526  -13.1814  -42.7791 C.3       5 UNK         0.1400 
     48 CB         -3.2116  -12.4751  -42.0607 C.3       5 UNK        -0.1800 
     49 N          -0.8672  -12.3262  -42.7321 N.am      5 UNK        -0.5000 
     50 C           0.3169  -12.5936  -43.2983 C.2       4 UNK         0.5000 
     51 O           0.5673  -13.6380  -43.9057 O.2       4 UNK        -0.5000 
     52 CA          1.4251  -11.5330  -43.1402 C.3       4 UNK         0.1400 
     53 CB          1.0001  -10.2689  -42.3586 C.3       4 UNK        -0.1800 
     54 N           2.6347  -12.1116  -42.5540 N.am      4 UNK        -0.5000 
     55 C           2.7458  -12.7442  -41.3750 C.2       3 UNK         0.5000 
     56 O           1.8014  -12.9074  -40.6005 O.2       3 UNK        -0.5000 
     57 CA          4.1338  -13.3185  -41.0201 C.3       3 UNK         0.1400 
     58 CB          4.0265  -14.6026  -40.1773 C.3       3 UNK        -0.1800 
     59 N           4.9111  -13.6042  -42.2286 N.am      3 UNK        -0.5000 
     60 C           5.8877  -12.8369  -42.7285 C.2       2 UNK         0.5000 
     61 O           6.3189  -11.8236  -42.1785 O.2       2 UNK        -0.5000 
     62 CA          6.4426  -13.2549  -44.1039 C.3       2 UNK         0.1400 
     63 CB          7.6088  -14.2408  -43.9380 C.3       2 UNK        -0.1800 
     64 N           5.4313  -13.8529  -44.9831 N.am      2 UNK        -0.5000 
     65 C           4.3699  -13.2095  -45.4959 C.2       1 UNK         0.5000 
     66 O           4.1076  -12.0362  -45.2289 O.2       1 UNK        -0.5000 
     67 C          -1.0877  -21.9149  -47.9039 C.2       11 UNK         0.5000 
     68 O          -1.0430  -22.9496  -48.5679 O.2       11 UNK        -0.5000 
     69 N          -2.2321  -21.3458  -47.4985 N.am      12 UNK        -0.5000 
     70 CA         -3.5663  -21.8764  -47.7884 C.3       12 UNK         0.1400 
     71 CB         -4.6335  -20.8753  -47.3234 C.3       12 UNK        -0.1800 
     72 C          -3.8193  -23.2734  -47.1922 C.2       12 UNK         0.5000 
     73 O          -4.4685  -24.0930  -47.8387 O.2       12 UNK        -0.5000 
     74 N          -3.2866  -23.5325  -45.9915 N.am      13 UNK        -0.5000 
     75 CA         -3.3266  -24.8404  -45.3392 C.3       13 UNK         0.1400 
     76 CB         -2.9345  -24.6858  -43.8618 C.3       13 UNK        -0.1800 
     77 C          -2.4295  -25.8814  -46.0368 C.2       13 UNK         0.5000 
     78 O          -2.8240  -27.0432  -46.1449 O.2       13 UNK        -0.5000 
     79 N          -1.2410  -25.4545  -46.4852 N.am      14 UNK        -0.5000 
     80 CA         -0.2588  -26.2990  -47.1647 C.3       14 UNK         0.1400 
     81 CB          1.1100  -25.6009  -47.1472 C.3       14 UNK        -0.1800 
     82 C          -0.6597  -26.6615  -48.6064 C.2       14 UNK         0.5000 
     83 O          -0.4189  -27.7923  -49.0324 O.2       14 UNK        -0.5000 
     84 N          -1.2361  -25.6980  -49.3370 N.am      15 UNK        -0.5000 
     85 CA         -1.6529  -25.8346  -50.7313 C.3       15 UNK         0.1400 
     86 CB         -2.0900  -24.4596  -51.2636 C.3       15 UNK        -0.1800 
     87 C          -2.7882  -26.8575  -50.9120 C.2       15 UNK         0.5000 
     88 O          -3.8183  -26.7524  -50.2443 O.2       15 UNK        -0.5000 
     89 N          -2.6140  -27.7862  -51.8622 N.am      16 UNK        -0.5000 
     90 CA         -3.6178  -28.7890  -52.2400 C.3       16 UNK         0.1400 
     91 CB         -2.9702  -29.8240  -53.1723 C.3       16 UNK        -0.1800 
     92 C          -4.8690  -28.1738  -52.9000 C.2       16 UNK         0.5000 
     93 O          -5.9609  -28.7289  -52.7788 O.2       16 UNK        -0.5000 
     94 N          -4.6874  -27.0179  -53.5531 N.am      17 UNK        -0.5000 
     95 CA         -5.7472  -26.1935  -54.1364 C.3       17 UNK         0.1400 
     96 CB         -5.1487  -25.3922  -55.3055 C.3       17 UNK        -0.1800 
     97 C          -6.4086  -25.2456  -53.1123 C.2       17 UNK         0.5000 
     98 O          -7.2536  -24.4413  -53.5049 O.2       17 UNK        -0.5000 
     99 N          -5.9833  -25.3029  -51.8386 N.am      18 UNK        -0.5000 
    100 CA        -6.4390  -24.4874  -50.7033 C.3       18 UNK         0.1400 
    101 CB        -7.9126  -24.7992  -50.3697 C.3       18 UNK        -0.1800 
    102 C         -6.1828  -22.9720  -50.8721 C.2       18 UNK         0.5000 
    103 O         -6.8330  -22.1627  -50.2092 O.2       18 UNK        -0.5000 
    104 N         -5.2566  -22.6212  -51.7784 N.am      19 UNK        -0.5000 
    105 CA        -4.9510  -21.2740  -52.2669 C.3       19 UNK         0.1400 
    106 CB        -4.2571  -20.4249  -51.1821 C.3       19 UNK        -0.1800 
    107 C         -6.1633  -20.5712  -52.9175 C.2       19 UNK         0.5000 
    108 O         -6.2965  -19.3503  -52.8099 O.2       19 UNK        -0.5000 
    109 N         -7.0127  -21.3405  -53.6179 N.am      20 UNK        -0.5000 
    110 CA        -8.0938  -20.8289  -54.4641 C.3       20 UNK         0.1400 
    111 CB        -8.9071  -22.0054  -55.0239 C.3       20 UNK        -0.1800 
    112 C         -7.5159  -19.9626  -55.5988 C.2       20 UNK         0.5000 
    113 O         -6.7060  -20.4594  -56.3856 O.2       20 UNK        -0.5000 
    114 N         -7.8612  -18.6661  -55.5950 N.am      21 UNK        -0.5000 
    115 CA        -7.2834  -17.5994  -56.4297 C.3       21 UNK         0.1400 
    116 CB        -7.6919  -17.7841  -57.9061 C.3       21 UNK        -0.1800 
    117 C         -5.7527  -17.4417  -56.2502 C.2       21 UNK         0.5000 
    118 O         -5.0639  -16.9879  -57.1653 O.2       21 UNK        -0.5000 
    119 N         -5.2499  -17.8438  -55.0750 N.am      22 UNK        -0.5000 
    120 CA        -3.8310  -17.9984  -54.7264 C.3       22 UNK         0.1400 
    121 C         -3.0911  -19.1414  -55.4908 C.2       22 UNK         0.5000 
    122 N         -3.7855  -20.0753  -56.1324 N.am      22 UNK        -0.7600 
    123 O         -1.8662  -19.2108  -55.4803 O.2       22 UNK        -0.5000 
    124 C124       -3.0586  -16.6454  -54.6915 C.3       23 UNK        -0.0398 
    125 S125       -2.1780  -16.4106  -53.1094 S.3       23 UNK        -0.2404 
    126 C126       -0.4443  -16.5915  -53.6224 C.3       23 UNK        -0.0205 
    127 H127        5.4894  -16.5808  -49.4928 H         1 UNK         0.0600 
    128 H128        5.0457  -17.3549  -47.9690 H         1 UNK         0.0600 
    129 H129        6.6551  -16.6558  -48.1671 H         1 UNK         0.0600 
    130 H130        3.6913  -16.0845  -46.7701 H         1 UNK         0.3000 
    131 H131        2.6664  -14.4281  -45.7649 H         1 UNK         0.0600 
    132 H132        2.1591  -12.3129  -46.9255 H         1 UNK         0.0800 
    133 H133        3.3577  -12.6535  -48.1433 H         1 UNK         0.0800 
    134 H134        1.9282  -13.3820  -50.5777 H         1 UNK         0.0800 
    135 H135        3.2477  -14.2781  -49.8762 H         1 UNK         0.0800 
    136 H136        0.4840  -14.5297  -52.1080 H         1 UNK         0.1150 
    137 H137        0.6834  -18.7956  -52.4763 H         1 UNK         0.1150 
    138 H138        2.8481  -16.8100  -49.3550 H         1 UNK         0.1150 
    139 H139        3.0017  -19.6898  -51.2138 H         1 UNK         0.0800 
    140 H140        3.0656  -19.1647  -49.5530 H         1 UNK         0.0800 
    141 H141       -0.2359  -19.3163  -48.3797 H         1 UNK         0.0800 
    142 H142        1.4146  -19.4743  -47.8414 H         1 UNK         0.0800 
    143 H143        1.0219  -21.9940  -47.5778 H         1 UNK         0.0600 
    144 H144        0.2701  -19.9772  -45.7413 H         1 UNK         0.3000 
    145 H145       -0.5746  -22.1782  -43.0254 H         1 UNK         0.0600 
    146 H146        1.0964  -20.6717  -41.9280 H         1 UNK         0.0600 
    147 H147        1.7732  -20.2732  -43.5073 H         1 UNK         0.0600 
    148 H148        1.8672  -21.9166  -42.8991 H         1 UNK         0.0600 
    149 H149       -0.6286  -19.3462  -43.1998 H         1 UNK         0.3000 
    150 H150       -3.9392  -19.0564  -44.5739 H         1 UNK         0.0600 
    151 H151       -4.2272  -19.3869  -42.1120 H         1 UNK         0.0600 
    152 H152       -4.2417  -17.6845  -42.5447 H         1 UNK         0.0600 
    153 H153       -2.8077  -18.3935  -41.8056 H         1 UNK         0.0600 
    154 H154       -2.0960  -17.0584  -43.7865 H         1 UNK         0.3000 
    155 H155       -0.2967  -16.8179  -46.9037 H         1 UNK         0.0600 
    156 H156       -2.2535  -15.3660  -47.1175 H         1 UNK         0.0600 
    157 H157       -0.9588  -14.4337  -46.3796 H         1 UNK         0.0600 
    158 H158       -2.2837  -15.0443  -45.3913 H         1 UNK         0.0600 
    159 H159        0.0757  -15.5156  -44.3917 H         1 UNK         0.3000 
    160 H160        2.1648  -18.0005  -42.9053 H         1 UNK         0.0600 
    161 H161        2.9711  -15.1832  -43.6848 H         1 UNK         0.0600 
    162 H162        3.6609  -16.6038  -44.4809 H         1 UNK         0.0600 
    163 H163        3.8755  -16.3781  -42.7584 H         1 UNK         0.0600 
    164 H164        1.1852  -15.3211  -42.2317 H         1 UNK         0.3000 
    165 H165       -1.5631  -16.5214  -40.3198 H         1 UNK         0.0600 
    166 H166       -0.4406  -15.1697  -38.5647 H         1 UNK         0.0600 
    167 H167        0.3741  -16.7126  -38.7710 H         1 UNK         0.0600 
    168 H168        1.0852  -15.2518  -39.4428 H         1 UNK         0.0600 
    169 H169       -0.4781  -13.9056  -40.8496 H         1 UNK         0.3000 
    170 H170       -2.3266  -13.2968  -43.8288 H         1 UNK         0.0600 
    171 H171       -2.9829  -12.2939  -41.0097 H         1 UNK         0.0600 
    172 H172       -3.4394  -11.5159  -42.5260 H         1 UNK         0.0600 
    173 H173       -4.1206  -13.0771  -42.1000 H         1 UNK         0.0600 
    174 H174       -0.9655  -11.4555  -42.2306 H         1 UNK         0.3000 
    175 H175        1.6882  -11.2218  -44.1519 H         1 UNK         0.0600 
    176 H176        0.7105  -10.4946  -41.3316 H         1 UNK         0.0600 
    177 H177        1.8175   -9.5488  -42.3163 H         1 UNK         0.0600 
    178 H178        0.1617   -9.7665  -42.8426 H         1 UNK         0.0600 
    179 H179        3.4547  -12.0573  -43.1450 H         1 UNK         0.3000 
    180 H180        4.6429  -12.5654  -40.4156 H         1 UNK         0.0600 
    181 H181        5.0103  -15.0282  -39.9790 H         1 UNK         0.0600 
    182 H182        3.4232  -15.3648  -40.6696 H         1 UNK         0.0600 
    183 H183        3.5650  -14.3970  -39.2107 H         1 UNK         0.0600 
    184 H184        4.6272  -14.4109  -42.7632 H         1 UNK         0.3000 
    185 H185        6.8222  -12.3557  -44.5937 H         1 UNK         0.0600 
    186 H186        8.0628  -14.4798  -44.9000 H         1 UNK         0.0600 
    187 H187        8.3916  -13.8172  -43.3073 H         1 UNK         0.0600 
    188 H188        7.2854  -15.1750  -43.4772 H         1 UNK         0.0600 
    189 H189        5.5884  -14.8089  -45.2661 H         1 UNK         0.3000 
    190 H190       -2.1876  -20.4725  -46.9803 H         1 UNK         0.3000 
    191 H191       -3.6476  -21.9806  -48.8701 H         1 UNK         0.0600 
    192 H192       -4.4786  -19.8945  -47.7732 H         1 UNK         0.0600 
    193 H193       -4.6268  -20.7529  -46.2407 H         1 UNK         0.0600 
    194 H194       -5.6307  -21.2115  -47.6103 H         1 UNK         0.0600 
    195 H195       -2.8409  -22.7759  -45.4810 H         1 UNK         0.3000 
    196 H196       -4.3544  -25.2076  -45.3781 H         1 UNK         0.0600 
    197 H197       -3.6064  -23.9996  -43.3458 H         1 UNK         0.0600 
    198 H198       -1.9192  -24.3043  -43.7517 H         1 UNK         0.0600 
    199 H199       -2.9841  -25.6434  -43.3422 H         1 UNK         0.0600 
    200 H200       -0.9679  -24.4931  -46.3087 H         1 UNK         0.3000 
    201 H201       -0.1659  -27.2312  -46.6035 H         1 UNK         0.0600 
    202 H202        1.4470  -25.4212  -46.1262 H         1 UNK         0.0600 
    203 H203        1.0780  -24.6400  -47.6622 H         1 UNK         0.0600 
    204 H204        1.8685  -26.2126  -47.6373 H         1 UNK         0.0600 
    205 H205       -1.3531  -24.7774  -48.9209 H         1 UNK         0.3000 
    206 H206       -0.7852  -26.1632  -51.3067 H         1 UNK         0.0600 
    207 H207       -2.9046  -24.0426  -50.6695 H         1 UNK         0.0600 
    208 H208       -1.2645  -23.7478  -51.2389 H         1 UNK         0.0600 
    209 H209       -2.4308  -24.5244  -52.2975 H         1 UNK         0.0600 
    210 H210       -1.7393  -27.8154  -52.3666 H         1 UNK         0.3000 
    211 H211       -3.9427  -29.3015  -51.3320 H         1 UNK         0.0600 
    212 H212       -2.6064  -29.3660  -54.0929 H         1 UNK         0.0600 
    213 H213       -3.6851  -30.5992  -53.4516 H         1 UNK         0.0600 
    214 H214       -2.1289  -30.3198  -52.6876 H         1 UNK         0.0600 
    215 H215       -3.7491  -26.6508  -53.6114 H         1 UNK         0.3000 
    216 H216       -6.5315  -26.8417  -54.5326 H         1 UNK         0.0600 
    217 H217       -5.9137  -24.8027  -55.8129 H         1 UNK         0.0600 
    218 H218       -4.7073  -26.0538  -56.0511 H         1 UNK         0.0600 
    219 H219       -4.3741  -24.7026  -54.9678 H         1 UNK         0.0600 
    220 H220       -5.2771  -25.9893  -51.5997 H         1 UNK         0.3000 
    221 H221       -5.8383  -24.8073  -49.8536 H         1 UNK         0.0600 
    222 H222       -8.5888  -24.4400  -51.1461 H         1 UNK         0.0600 
    223 H223       -8.0720  -25.8712  -50.2540 H         1 UNK         0.0600 
    224 H224       -8.2101  -24.3263  -49.4331 H         1 UNK         0.0600 
    225 H225       -4.7924  -23.3741  -52.2637 H         1 UNK         0.3000 
    226 H226       -4.2307  -21.4052  -53.0758 H         1 UNK         0.0600 
    227 H227       -3.3329  -20.8971  -50.8506 H         1 UNK         0.0600 
    228 H228       -3.9852  -19.4393  -51.5600 H         1 UNK         0.0600 
    229 H229       -4.8978  -20.2729  -50.3138 H         1 UNK         0.0600 
    230 H230       -6.8705  -22.3437  -53.6378 H         1 UNK         0.3000 
    231 H231       -8.7538  -20.2203  -53.8425 H         1 UNK         0.0600 
    232 H232       -9.7212  -21.6516  -55.6576 H         1 UNK         0.0600 
    233 H233       -9.3508  -22.5942  -54.2208 H         1 UNK         0.0600 
    234 H234       -8.2880  -22.6737  -55.6242 H         1 UNK         0.0600 
    235 H235       -8.5066  -18.3498  -54.8839 H         1 UNK         0.3000 
    236 H236       -7.7240  -16.6648  -56.0802 H         1 UNK         0.0600 
    237 H237       -7.2274  -18.6660  -58.3481 H         1 UNK         0.0600 
    238 H238       -8.7722  -17.8881  -58.0062 H         1 UNK         0.0600 
    239 H239       -7.3939  -16.9234  -58.5059 H         1 UNK         0.0600 
    240 H240       -5.8909  -18.2086  -54.3772 H         1 UNK         0.3000 
    241 H241       -3.8768  -18.3794  -53.7070 H         1 UNK         0.0600 
    242 H242       -4.7994  -20.0559  -56.1799 H         1 UNK         0.3800 
    243 H243       -3.2857  -20.8048  -56.6149 H         1 UNK         0.3800 
    244 H244       -3.7494  -15.8064  -54.7837 H         1 UNK         0.0800 
    245 H245       -2.3738  -16.5439  -55.5352 H         1 UNK         0.0800 
    246 H246       -0.3300  -17.4914  -54.2274 H         1 UNK         0.0800 
    247 H247       -0.1638  -15.7519  -54.2601 H         1 UNK         0.0800 
@<TRIPOS>BOND
     1    1    2 1    
     2    1  127 1    
     3    1  128 1    
     4    1  129 1    
     5    2    3 2    
     6    2    4 am   BACKBONE|DICT|INTERRES
     7    4    5 1    
     8    4  130 1    
     9    5    6 1    
    10    5   65 1    
    11    5  131 1    
    12    6    7 1    
    13    6  132 1    
    14    6  133 1    
    15    7    8 1    
    16    8    9 1    
    17    8  134 1    
    18    8  135 1    
    19    9   10 ar   
    20    9   14 ar   
    21   10   11 ar   
    22   10  136 1    
    23   11   12 ar   
    24   11  126 1    
    25   12   13 ar   
    26   12  137 1    
    27   13   14 ar   
    28   13   15 1    
    29   14  138 1    
    30   15   16 1    
    31   15  139 1    
    32   15  140 1    
    33   16   17 1    
    34   17   18 1    
    35   17  141 1    
    36   17  142 1    
    37   18   19 1    
    38   18   67 1    
    39   18  143 1    
    40   19   20 am   BACKBONE|DICT|INTERRES
    41   19  144 1    
    42   20   21 2    
    43   20   22 1    
    44   22   23 1    
    45   22   24 1    
    46   22  145 1    
    47   23  146 1    
    48   23  147 1    
    49   23  148 1    
    50   24   25 am   BACKBONE|DICT|INTERRES
    51   24  149 1    
    52   25   26 2    
    53   25   27 1    
    54   27   28 1    
    55   27   29 1    
    56   27  150 1    
    57   28  151 1    
    58   28  152 1    
    59   28  153 1    
    60   29   30 am   BACKBONE|DICT|INTERRES
    61   29  154 1    
    62   30   31 2    
    63   30   32 1    
    64   32   33 1    
    65   32   34 1    
    66   32  155 1    
    67   33  156 1    
    68   33  157 1    
    69   33  158 1    
    70   34   35 am   BACKBONE|DICT|INTERRES
    71   34  159 1    
    72   35   36 2    
    73   35   37 1    
    74   37   38 1    
    75   37   39 1    
    76   37  160 1    
    77   38  161 1    
    78   38  162 1    
    79   38  163 1    
    80   39   40 am   BACKBONE|DICT|INTERRES
    81   39  164 1    
    82   40   41 2    
    83   40   42 1    
    84   42   43 1    
    85   42   44 1    
    86   42  165 1    
    87   43  166 1    
    88   43  167 1    
    89   43  168 1    
    90   44   45 am   BACKBONE|DICT|INTERRES
    91   44  169 1    
    92   45   46 2    
    93   45   47 1    
    94   47   48 1    
    95   47   49 1    
    96   47  170 1    
    97   48  171 1    
    98   48  172 1    
    99   48  173 1    
   100   49   50 am   BACKBONE|DICT|INTERRES
   101   49  174 1    
   102   50   51 2    
   103   50   52 1    
   104   52   53 1    
   105   52   54 1    
   106   52  175 1    
   107   53  176 1    
   108   53  177 1    
   109   53  178 1    
   110   54   55 am   BACKBONE|DICT|INTERRES
   111   54  179 1    
   112   55   56 2    
   113   55   57 1    
   114   57   58 1    
   115   57   59 1    
   116   57  180 1    
   117   58  181 1    
   118   58  182 1    
   119   58  183 1    
   120   59   60 am   BACKBONE|DICT|INTERRES
   121   59  184 1    
   122   60   61 2    
   123   60   62 1    
   124   62   63 1    
   125   62   64 1    
   126   62  185 1    
   127   63  186 1    
   128   63  187 1    
   129   63  188 1    
   130   64   65 am   BACKBONE|DICT|INTERRES
   131   64  189 1    
   132   65   66 2    
   133   67   68 2    
   134   67   69 am   BACKBONE|DICT|INTERRES
   135   69   70 1    
   136   69  190 1    
   137   70   71 1    
   138   70   72 1    
   139   70  191 1    
   140   71  192 1    
   141   71  193 1    
   142   71  194 1    
   143   72   73 2    
   144   72   74 am   BACKBONE|DICT|INTERRES
   145   74   75 1    
   146   74  195 1    
   147   75   76 1    
   148   75   77 1    
   149   75  196 1    
   150   76  197 1    
   151   76  198 1    
   152   76  199 1    
   153   77   78 2    
   154   77   79 am   BACKBONE|DICT|INTERRES
   155   79   80 1    
   156   79  200 1    
   157   80   81 1    
   158   80   82 1    
   159   80  201 1    
   160   81  202 1    
   161   81  203 1    
   162   81  204 1    
   163   82   83 2    
   164   82   84 am   BACKBONE|DICT|INTERRES
   165   84   85 1    
   166   84  205 1    
   167   85   86 1    
   168   85   87 1    
   169   85  206 1    
   170   86  207 1    
   171   86  208 1    
   172   86  209 1    
   173   87   88 2    
   174   87   89 am   BACKBONE|DICT|INTERRES
   175   89   90 1    
   176   89  210 1    
   177   90   91 1    
   178   90   92 1    
   179   90  211 1    
   180   91  212 1    
   181   91  213 1    
   182   91  214 1    
   183   92   93 2    
   184   92   94 am   BACKBONE|DICT|INTERRES
   185   94   95 1    
   186   94  215 1    
   187   95   96 1    
   188   95   97 1    
   189   95  216 1    
   190   96  217 1    
   191   96  218 1    
   192   96  219 1    
   193   97   98 2    
   194   97   99 am   BACKBONE|DICT|INTERRES
   195   99  100 1    
   196   99  220 1    
   197  100  101 1    
   198  100  102 1    
   199  100  221 1    
   200  101  222 1    
   201  101  223 1    
   202  101  224 1    
   203  102  103 2    
   204  102  104 am   BACKBONE|DICT|INTERRES
   205  104  105 1    
   206  104  225 1    
   207  105  106 1    
   208  105  107 1    
   209  105  226 1    
   210  106  227 1    
   211  106  228 1    
   212  106  229 1    
   213  107  108 2    
   214  107  109 am   BACKBONE|DICT|INTERRES
   215  109  110 1    
   216  109  230 1    
   217  110  111 1    
   218  110  112 1    
   219  110  231 1    
   220  111  232 1    
   221  111  233 1    
   222  111  234 1    
   223  112  113 2    
   224  112  114 am   BACKBONE|DICT|INTERRES
   225  114  115 1    
   226  114  235 1    
   227  115  116 1    
   228  115  117 1    
   229  115  236 1    
   230  116  237 1    
   231  116  238 1    
   232  116  239 1    
   233  117  118 2    
   234  117  119 am   BACKBONE|DICT|INTERRES
   235  119  120 1    
   236  119  240 1    
   237  120  121 1    
   238  120  124 1    
   239  120  241 1    
   240  121  122 am   BACKBONE|DICT|INTERRES
   241  121  123 2    
   242  122  242 1    
   243  122  243 1    
   244  124  125 1    
   245  124  244 1    
   246  124  245 1    
   247  125  126 1    
   248  126  246 1    
   249  126  247 1    
@<TRIPOS>SUBSTRUCTURE
     1 UNK         1 GROUP             0       ****    0 ROOT    
