@<TRIPOS>MOLECULE
3R540
247   249    1
SMALL
USER_CHARGES


@<TRIPOS>ATOM
      1 CA         -7.5012  -16.1271  -48.7209 C.3       0 UNK        -0.1800 
      2 C          -6.3391  -15.4201  -49.4045 C.2       0 UNK         0.5000 
      3 O          -6.5371  -14.7868  -50.4415 O.2       0 UNK        -0.5000 
      4 N          -5.1364  -15.5339  -48.8283 N.am      1 UNK        -0.5000 
      5 CA         -3.8786  -14.9986  -49.3586 C.3       1 UNK         0.1400 
      6 C6         -2.6433  -15.4596  -48.5415 C.3       23 UNK        -0.0398 
      7 S7         -2.5850  -17.2660  -48.3086 S.3       23 UNK        -0.2404 
      8 C8         -1.8140  -17.8174  -49.8612 C.3       23 UNK        -0.0205 
      9 C9         -0.3660  -18.2206  -49.6542 C.ar      23 UNK        -0.0193 
     10 C10         0.6358  -17.2487  -49.6509 C.ar      23 UNK        -0.1150 
     11 C11         1.9786  -17.6170  -49.5354 C.ar      23 UNK        -0.0193 
     12 C12         2.3121  -18.9651  -49.3762 C.ar      23 UNK        -0.1150 
     13 C13         1.3158  -19.9455  -49.3558 C.ar      23 UNK        -0.0193 
     14 C14        -0.0223  -19.5675  -49.5031 C.ar      23 UNK        -0.1150 
     15 C15         1.6982  -21.4112  -49.2121 C.3       23 UNK        -0.0205 
     16 S16         1.8894  -21.8909  -47.4675 S.3       23 UNK        -0.2404 
     17 C17         0.1613  -22.2058  -46.9740 C.3       23 UNK        -0.0398 
     18 CA         -0.1096  -23.6951  -46.6495 C.3       11 UNK         0.1400 
     19 N           0.7880  -24.2412  -45.6267 N.am      11 UNK        -0.5000 
     20 C           0.9216  -25.5482  -45.3549 C.2       10 UNK         0.5000 
     21 O           0.3086  -26.4313  -45.9516 O.2       10 UNK        -0.5000 
     22 CA          1.8578  -25.9380  -44.1951 C.3       10 UNK         0.1400 
     23 CB          3.2946  -26.1202  -44.7056 C.3       10 UNK        -0.1800 
     24 N           1.8553  -24.9625  -43.1061 N.am      10 UNK        -0.5000 
     25 C           0.7878  -24.6387  -42.3616 C.2       9 UNK         0.5000 
     26 O          -0.3051  -25.1974  -42.4574 O.2       9 UNK        -0.5000 
     27 CA          0.9575  -23.4395  -41.4052 C.3       9 UNK         0.1400 
     28 CB          1.3865  -23.9180  -40.0107 C.3       9 UNK        -0.1800 
     29 N           1.9228  -22.4481  -41.8996 N.am      9 UNK        -0.5000 
     30 C           1.7785  -21.7638  -43.0430 C.2       8 UNK         0.5000 
     31 O           0.7769  -21.8495  -43.7569 O.2       8 UNK        -0.5000 
     32 CA          2.9895  -20.9346  -43.5047 C.3       8 UNK         0.1400 
     33 CB          4.1006  -21.8648  -44.0206 C.3       8 UNK        -0.1800 
     34 N           2.6223  -20.0240  -44.5869 N.am      8 UNK        -0.5000 
     35 C           2.1239  -18.7972  -44.4119 C.2       7 UNK         0.5000 
     36 O           1.9591  -18.2718  -43.3076 O.2       7 UNK        -0.5000 
     37 CA          1.7222  -18.0400  -45.6907 C.3       7 UNK         0.1400 
     38 CB          0.2192  -18.1951  -45.9574 C.3       7 UNK        -0.1800 
     39 N           2.0302  -16.6161  -45.5898 N.am      7 UNK        -0.5000 
     40 C           3.2620  -16.0896  -45.5817 C.2       6 UNK         0.5000 
     41 O           4.2886  -16.7496  -45.7472 O.2       6 UNK        -0.5000 
     42 CA          3.3683  -14.5694  -45.3517 C.3       6 UNK         0.1400 
     43 CB          3.6181  -13.8370  -46.6774 C.3       6 UNK        -0.1800 
     44 N           2.1658  -14.0207  -44.7182 N.am      6 UNK        -0.5000 
     45 C           1.9536  -14.0084  -43.3939 C.2       5 UNK         0.5000 
     46 O           2.7868  -14.4077  -42.5790 O.2       5 UNK        -0.5000 
     47 CA          0.5860  -13.5084  -42.8739 C.3       5 UNK         0.1400 
     48 CB          0.7436  -12.4546  -41.7577 C.3       5 UNK        -0.1800 
     49 N          -0.3485  -13.0476  -43.9104 N.am      5 UNK        -0.5000 
     50 C          -0.2446  -11.9640  -44.6913 C.2       4 UNK         0.5000 
     51 O           0.6868  -11.1578  -44.6483 O.2       4 UNK        -0.5000 
     52 CA         -1.3759  -11.7663  -45.7163 C.3       4 UNK         0.1400 
     53 CB         -2.2809  -10.5919  -45.3156 C.3       4 UNK        -0.1800 
     54 N          -0.8600  -11.5360  -47.0639 N.am      4 UNK        -0.5000 
     55 C          -0.0950  -12.3873  -47.7579 C.2       3 UNK         0.5000 
     56 O           0.2527  -13.4918  -47.3337 O.2       3 UNK        -0.5000 
     57 CA          0.2692  -11.9449  -49.1895 C.3       3 UNK         0.1400 
     58 CB          1.3617  -12.8199  -49.8265 C.3       3 UNK        -0.1800 
     59 N          -0.9226  -12.0070  -50.0299 N.am      3 UNK        -0.5000 
     60 C          -1.8959  -11.0864  -50.0758 C.2       2 UNK         0.5000 
     61 O          -1.8273   -9.9875  -49.5238 O.2       2 UNK        -0.5000 
     62 CA         -3.1869  -11.5052  -50.8017 C.3       2 UNK         0.1400 
     63 CB         -3.0928  -11.2101  -52.3062 C.3       2 UNK        -0.1800 
     64 N          -3.4547  -12.9300  -50.6011 N.am      2 UNK        -0.5000 
     65 C          -3.8977  -13.4610  -49.4542 C.2       1 UNK         0.5000 
     66 O          -4.2594  -12.7932  -48.4824 O.2       1 UNK        -0.5000 
     67 C          -1.5828  -23.8826  -46.2476 C.2       11 UNK         0.5000 
     68 O          -2.4106  -24.1864  -47.1060 O.2       11 UNK        -0.5000 
     69 N          -1.8823  -23.7174  -44.9518 N.am      12 UNK        -0.5000 
     70 CA         -3.2051  -23.9645  -44.3813 C.3       12 UNK         0.1400 
     71 CB         -3.2832  -23.3672  -42.9686 C.3       12 UNK        -0.1800 
     72 C          -3.5558  -25.4624  -44.3802 C.2       12 UNK         0.5000 
     73 O          -4.6724  -25.8205  -44.7541 O.2       12 UNK        -0.5000 
     74 N          -2.5840  -26.3089  -44.0088 N.am      13 UNK        -0.5000 
     75 CA         -2.7047  -27.7689  -44.0012 C.3       13 UNK         0.1400 
     76 CB         -1.4673  -28.3797  -43.3269 C.3       13 UNK        -0.1800 
     77 C          -2.9128  -28.3687  -45.4057 C.2       13 UNK         0.5000 
     78 O          -3.7382  -29.2684  -45.5659 O.2       13 UNK        -0.5000 
     79 N          -2.1829  -27.8443  -46.3998 N.am      14 UNK        -0.5000 
     80 CA         -2.2845  -28.2356  -47.8085 C.3       14 UNK         0.1400 
     81 CB         -1.0005  -27.8011  -48.5338 C.3       14 UNK        -0.1800 
     82 C          -3.5163  -27.6498  -48.5281 C.2       14 UNK         0.5000 
     83 O          -3.8119  -28.0747  -49.6453 O.2       14 UNK        -0.5000 
     84 N          -4.1798  -26.6657  -47.9021 N.am      15 UNK        -0.5000 
     85 CA         -5.2796  -25.8460  -48.4269 C.3       15 UNK         0.1400 
     86 CB         -6.5144  -26.7029  -48.7730 C.3       15 UNK        -0.1800 
     87 C          -4.8530  -24.9125  -49.5821 C.2       15 UNK         0.5000 
     88 O          -5.7040  -24.4061  -50.3142 O.2       15 UNK        -0.5000 
     89 N          -3.5434  -24.6498  -49.6903 N.am      16 UNK        -0.5000 
     90 CA         -2.9416  -23.6698  -50.5943 C.3       16 UNK         0.1400 
     91 CB         -1.4248  -23.9035  -50.6500 C.3       16 UNK        -0.1800 
     92 C          -3.2492  -22.2236  -50.1655 C.2       16 UNK         0.5000 
     93 O          -3.2706  -21.3316  -51.0108 O.2       16 UNK        -0.5000 
     94 N          -3.5352  -22.0258  -48.8697 N.am      17 UNK        -0.5000 
     95 CA         -3.9541  -20.7585  -48.2650 C.3       17 UNK         0.1400 
     96 CB         -4.0079  -20.9304  -46.7396 C.3       17 UNK        -0.1800 
     97 C          -5.2903  -20.1924  -48.8002 C.2       17 UNK         0.5000 
     98 O          -5.6135  -19.0394  -48.5167 O.2       17 UNK        -0.5000 
     99 N          -6.0495  -21.0017  -49.5526 N.am      18 UNK        -0.5000 
    100 CA        -7.2569  -20.5832  -50.2623 C.3       18 UNK         0.1400 
    101 CB        -8.0808  -21.8313  -50.6143 C.3       18 UNK        -0.1800 
    102 C         -6.9578  -19.7586  -51.5322 C.2       18 UNK         0.5000 
    103 O         -7.8342  -19.0171  -51.9793 O.2       18 UNK        -0.5000 
    104 N         -5.7517  -19.9017  -52.1024 N.am      19 UNK        -0.5000 
    105 CA        -5.2888  -19.1241  -53.2524 C.3       19 UNK         0.1400 
    106 CB        -4.1339  -19.8730  -53.9357 C.3       19 UNK        -0.1800 
    107 C         -4.8307  -17.7224  -52.8156 C.2       19 UNK         0.5000 
    108 O         -4.3947  -17.5500  -51.6783 O.2       19 UNK        -0.5000 
    109 N         -4.9160  -16.7488  -53.7307 N.am      20 UNK        -0.5000 
    110 CA        -4.4777  -15.3736  -53.4872 C.3       20 UNK         0.1400 
    111 CB        -5.1007  -14.4388  -54.5351 C.3       20 UNK        -0.1800 
    112 C         -2.9442  -15.2405  -53.4782 C.2       20 UNK         0.5000 
    113 O         -2.3934  -14.6022  -52.5797 O.2       20 UNK        -0.5000 
    114 N         -2.2926  -15.8377  -54.4820 N.am      21 UNK        -0.5000 
    115 CA        -0.8422  -15.8220  -54.6587 C.3       21 UNK         0.1400 
    116 CB        -0.5341  -15.9370  -56.1604 C.3       21 UNK        -0.1800 
    117 C         -0.1677  -16.9672  -53.8850 C.2       21 UNK         0.5000 
    118 O         -0.8062  -17.9853  -53.6072 O.2       21 UNK        -0.5000 
    119 N          1.1239  -16.7867  -53.5872 N.am      22 UNK        -0.5000 
    120 CA         1.9826  -17.7966  -52.9517 C.3       22 UNK         0.1400 
    121 C          2.2815  -19.0013  -53.8853 C.2       22 UNK         0.5000 
    122 N          2.3468  -20.2107  -53.3451 N.am      22 UNK        -0.7600 
    123 O          2.5005  -18.8438  -55.0846 O.2       22 UNK        -0.5000 
    124 C124        3.3086  -17.1882  -52.4165 C.3       23 UNK        -0.0398 
    125 S125        3.0693  -15.7668  -51.2909 S.3       23 UNK        -0.2404 
    126 C126        3.0677  -16.5631  -49.6488 C.3       23 UNK        -0.0205 
    127 H127       -7.9144  -16.8883  -49.3831 H         1 UNK         0.0600 
    128 H128       -8.2896  -15.4138  -48.4812 H         1 UNK         0.0600 
    129 H129       -7.1903  -16.6166  -47.7974 H         1 UNK         0.0600 
    130 H130       -5.0423  -16.1018  -47.9987 H         1 UNK         0.3000 
    131 H131       -3.7730  -15.3982  -50.3666 H         1 UNK         0.0600 
    132 H132       -1.7172  -15.1338  -49.0181 H         1 UNK         0.0800 
    133 H133       -2.6473  -15.0026  -47.5501 H         1 UNK         0.0800 
    134 H134       -2.3817  -18.6598  -50.2589 H         1 UNK         0.0800 
    135 H135       -1.8775  -17.0384  -50.6227 H         1 UNK         0.0800 
    136 H136        0.3756  -16.2088  -49.7843 H         1 UNK         0.1150 
    137 H137        3.3494  -19.2560  -49.2860 H         1 UNK         0.1150 
    138 H138       -0.7979  -20.3195  -49.5160 H         1 UNK         0.1150 
    139 H139        0.9651  -22.0539  -49.7013 H         1 UNK         0.0800 
    140 H140        2.6439  -21.5913  -49.7254 H         1 UNK         0.0800 
    141 H141       -0.5090  -21.8699  -47.7658 H         1 UNK         0.0800 
    142 H142       -0.0649  -21.5747  -46.1155 H         1 UNK         0.0800 
    143 H143        0.0521  -24.2706  -47.5632 H         1 UNK         0.0600 
    144 H144        1.2745  -23.5618  -45.0584 H         1 UNK         0.3000 
    145 H145        1.5127  -26.8918  -43.7921 H         1 UNK         0.0600 
    146 H146        3.9551  -26.4670  -43.9107 H         1 UNK         0.0600 
    147 H147        3.3329  -26.8615  -45.5049 H         1 UNK         0.0600 
    148 H148        3.7035  -25.1896  -45.1013 H         1 UNK         0.0600 
    149 H149        2.7147  -24.4582  -42.9496 H         1 UNK         0.3000 
    150 H150       -0.0146  -22.9496  -41.3173 H         1 UNK         0.0600 
    151 H151        2.3653  -24.3988  -40.0323 H         1 UNK         0.0600 
    152 H152        0.6742  -24.6408  -39.6105 H         1 UNK         0.0600 
    153 H153        1.4347  -23.0874  -39.3062 H         1 UNK         0.0600 
    154 H154        2.7692  -22.3350  -41.3601 H         1 UNK         0.3000 
    155 H155        3.3705  -20.3653  -42.6541 H         1 UNK         0.0600 
    156 H156        3.7579  -22.4821  -44.8524 H         1 UNK         0.0600 
    157 H157        4.4546  -22.5354  -43.2369 H         1 UNK         0.0600 
    158 H158        4.9625  -21.2927  -44.3649 H         1 UNK         0.0600 
    159 H159        2.6581  -20.4092  -45.5206 H         1 UNK         0.3000 
    160 H160        2.2734  -18.4493  -46.5394 H         1 UNK         0.0600 
    161 H161       -0.3811  -17.8575  -45.1117 H         1 UNK         0.0600 
    162 H162       -0.0398  -19.2348  -46.1536 H         1 UNK         0.0600 
    163 H163       -0.0800  -17.6176  -46.8301 H         1 UNK         0.0600 
    164 H164        1.2499  -15.9978  -45.4306 H         1 UNK         0.3000 
    165 H165        4.2312  -14.3921  -44.7063 H         1 UNK         0.0600 
    166 H166        3.7073  -12.7612  -46.5261 H         1 UNK         0.0600 
    167 H167        4.5412  -14.1799  -47.1464 H         1 UNK         0.0600 
    168 H168        2.8088  -14.0114  -47.3835 H         1 UNK         0.0600 
    169 H169        1.4450  -13.6726  -45.3379 H         1 UNK         0.3000 
    170 H170        0.1113  -14.3820  -42.4248 H         1 UNK         0.0600 
    171 H171        1.2956  -12.8626  -40.9102 H         1 UNK         0.0600 
    172 H172        1.2860  -11.5739  -42.1018 H         1 UNK         0.0600 
    173 H173       -0.2262  -12.1276  -41.3829 H         1 UNK         0.0600 
    174 H174       -1.1490  -13.6489  -44.0490 H         1 UNK         0.3000 
    175 H175       -1.9873  -12.6705  -45.7524 H         1 UNK         0.0600 
    176 H176       -2.7002  -10.7437  -44.3202 H         1 UNK         0.0600 
    177 H177       -1.7332   -9.6486  -45.3016 H         1 UNK         0.0600 
    178 H178       -3.1168  -10.4852  -46.0076 H         1 UNK         0.0600 
    179 H179       -1.1303  -10.6690  -47.5104 H         1 UNK         0.3000 
    180 H180        0.6372  -10.9175  -49.1495 H         1 UNK         0.0600 
    181 H181        1.0756  -13.8716  -49.8531 H         1 UNK         0.0600 
    182 H182        2.2956  -12.7435  -49.2704 H         1 UNK         0.0600 
    183 H183        1.5721  -12.5072  -50.8494 H         1 UNK         0.0600 
    184 H184       -1.0798  -12.8806  -50.5102 H         1 UNK         0.3000 
    185 H185       -4.0153  -10.9267  -50.3873 H         1 UNK         0.0600 
    186 H186       -2.9121  -10.1494  -52.4844 H         1 UNK         0.0600 
    187 H187       -2.2814  -11.7657  -52.7782 H         1 UNK         0.0600 
    188 H188       -4.0195  -11.4724  -52.8167 H         1 UNK         0.0600 
    189 H189       -3.1425  -13.5509  -51.3461 H         1 UNK         0.3000 
    190 H190       -1.1431  -23.4674  -44.3091 H         1 UNK         0.3000 
    191 H191       -3.9442  -23.4540  -45.0012 H         1 UNK         0.0600 
    192 H192       -3.0782  -22.2966  -42.9828 H         1 UNK         0.0600 
    193 H193       -4.2792  -23.5020  -42.5449 H         1 UNK         0.0600 
    194 H194       -2.5728  -23.8350  -42.2873 H         1 UNK         0.0600 
    195 H195       -1.7093  -25.9225  -43.6673 H         1 UNK         0.3000 
    196 H196       -3.5790  -28.0245  -43.3989 H         1 UNK         0.0600 
    197 H197       -1.5580  -29.4642  -43.2546 H         1 UNK         0.0600 
    198 H198       -1.3379  -27.9950  -42.3150 H         1 UNK         0.0600 
    199 H199       -0.5571  -28.1638  -43.8862 H         1 UNK         0.0600 
    200 H200       -1.4666  -27.1591  -46.1745 H         1 UNK         0.3000 
    201 H201       -2.3576  -29.3236  -47.8651 H         1 UNK         0.0600 
    202 H202       -1.0160  -28.1060  -49.5809 H         1 UNK         0.0600 
    203 H203       -0.1188  -28.2528  -48.0789 H         1 UNK         0.0600 
    204 H204       -0.8725  -26.7179  -48.5089 H         1 UNK         0.0600 
    205 H205       -3.8454  -26.3945  -46.9868 H         1 UNK         0.3000 
    206 H206       -5.5645  -25.1850  -47.6071 H         1 UNK         0.0600 
    207 H207       -6.7876  -27.3537  -47.9424 H         1 UNK         0.0600 
    208 H208       -7.3781  -26.0725  -48.9876 H         1 UNK         0.0600 
    209 H209       -6.3447  -27.3281  -49.6497 H         1 UNK         0.0600 
    210 H210       -2.9374  -25.0310  -48.9748 H         1 UNK         0.3000 
    211 H211       -3.3548  -23.8194  -51.5939 H         1 UNK         0.0600 
    212 H212       -0.9612  -23.7664  -49.6737 H         1 UNK         0.0600 
    213 H213       -0.9480  -23.2070  -51.3410 H         1 UNK         0.0600 
    214 H214       -1.1934  -24.9122  -50.9927 H         1 UNK         0.0600 
    215 H215       -3.4564  -22.8209  -48.2457 H         1 UNK         0.3000 
    216 H216       -3.1799  -20.0289  -48.4933 H         1 UNK         0.0600 
    217 H217       -4.2859  -19.9958  -46.2505 H         1 UNK         0.0600 
    218 H218       -3.0376  -21.2228  -46.3394 H         1 UNK         0.0600 
    219 H219       -4.7397  -21.6843  -46.4485 H         1 UNK         0.0600 
    220 H220       -5.7272  -21.9430  -49.7285 H         1 UNK         0.3000 
    221 H221       -7.8544  -19.9581  -49.5953 H         1 UNK         0.0600 
    222 H222       -7.5382  -22.4930  -51.2907 H         1 UNK         0.0600 
    223 H223       -8.3364  -22.4017  -49.7212 H         1 UNK         0.0600 
    224 H224       -9.0161  -21.5569  -51.1038 H         1 UNK         0.0600 
    225 H225       -5.0474  -20.4631  -51.6367 H         1 UNK         0.3000 
    226 H226       -6.1089  -19.0246  -53.9666 H         1 UNK         0.0600 
    227 H227       -3.8271  -19.3659  -54.8511 H         1 UNK         0.0600 
    228 H228       -3.2561  -19.9329  -53.2907 H         1 UNK         0.0600 
    229 H229       -4.4231  -20.8887  -54.2059 H         1 UNK         0.0600 
    230 H230       -5.2878  -16.9567  -54.6460 H         1 UNK         0.3000 
    231 H231       -4.8456  -15.0609  -52.5087 H         1 UNK         0.0600 
    232 H232       -4.8070  -14.7109  -55.5496 H         1 UNK         0.0600 
    233 H233       -4.7906  -13.4062  -54.3694 H         1 UNK         0.0600 
    234 H234       -6.1894  -14.4612  -54.4831 H         1 UNK         0.0600 
    235 H235       -2.8177  -16.3971  -55.1367 H         1 UNK         0.3000 
    236 H236       -0.4443  -14.8720  -54.2947 H         1 UNK         0.0600 
    237 H237       -0.9873  -15.1185  -56.7199 H         1 UNK         0.0600 
    238 H238        0.5403  -15.8995  -56.3451 H         1 UNK         0.0600 
    239 H239       -0.9047  -16.8747  -56.5766 H         1 UNK         0.0600 
    240 H240        1.5829  -15.9318  -53.8638 H         1 UNK         0.3000 
    241 H241        1.4209  -18.1914  -52.1066 H         1 UNK         0.0600 
    242 H242        2.5564  -20.9996  -53.9368 H         1 UNK         0.3800 
    243 H243        2.1701  -20.3596  -52.3645 H         1 UNK         0.3800 
    244 H244        3.8959  -17.9487  -51.8988 H         1 UNK         0.0800 
    245 H245        3.9273  -16.8478  -53.2486 H         1 UNK         0.0800 
    246 H246        4.0519  -16.9912  -49.4527 H         1 UNK         0.0800 
    247 H247        2.9033  -15.8030  -48.8859 H         1 UNK         0.0800 
@<TRIPOS>BOND
     1    1    2 1    
     2    1  127 1    
     3    1  128 1    
     4    1  129 1    
     5    2    3 2    
     6    2    4 am   BACKBONE|DICT|INTERRES
     7    4    5 1    
     8    4  130 1    
     9    5    6 1    
    10    5   65 1    
    11    5  131 1    
    12    6    7 1    
    13    6  132 1    
    14    6  133 1    
    15    7    8 1    
    16    8    9 1    
    17    8  134 1    
    18    8  135 1    
    19    9   10 ar   
    20    9   14 ar   
    21   10   11 ar   
    22   10  136 1    
    23   11   12 ar   
    24   11  126 1    
    25   12   13 ar   
    26   12  137 1    
    27   13   14 ar   
    28   13   15 1    
    29   14  138 1    
    30   15   16 1    
    31   15  139 1    
    32   15  140 1    
    33   16   17 1    
    34   17   18 1    
    35   17  141 1    
    36   17  142 1    
    37   18   19 1    
    38   18   67 1    
    39   18  143 1    
    40   19   20 am   BACKBONE|DICT|INTERRES
    41   19  144 1    
    42   20   21 2    
    43   20   22 1    
    44   22   23 1    
    45   22   24 1    
    46   22  145 1    
    47   23  146 1    
    48   23  147 1    
    49   23  148 1    
    50   24   25 am   BACKBONE|DICT|INTERRES
    51   24  149 1    
    52   25   26 2    
    53   25   27 1    
    54   27   28 1    
    55   27   29 1    
    56   27  150 1    
    57   28  151 1    
    58   28  152 1    
    59   28  153 1    
    60   29   30 am   BACKBONE|DICT|INTERRES
    61   29  154 1    
    62   30   31 2    
    63   30   32 1    
    64   32   33 1    
    65   32   34 1    
    66   32  155 1    
    67   33  156 1    
    68   33  157 1    
    69   33  158 1    
    70   34   35 am   BACKBONE|DICT|INTERRES
    71   34  159 1    
    72   35   36 2    
    73   35   37 1    
    74   37   38 1    
    75   37   39 1    
    76   37  160 1    
    77   38  161 1    
    78   38  162 1    
    79   38  163 1    
    80   39   40 am   BACKBONE|DICT|INTERRES
    81   39  164 1    
    82   40   41 2    
    83   40   42 1    
    84   42   43 1    
    85   42   44 1    
    86   42  165 1    
    87   43  166 1    
    88   43  167 1    
    89   43  168 1    
    90   44   45 am   BACKBONE|DICT|INTERRES
    91   44  169 1    
    92   45   46 2    
    93   45   47 1    
    94   47   48 1    
    95   47   49 1    
    96   47  170 1    
    97   48  171 1    
    98   48  172 1    
    99   48  173 1    
   100   49   50 am   BACKBONE|DICT|INTERRES
   101   49  174 1    
   102   50   51 2    
   103   50   52 1    
   104   52   53 1    
   105   52   54 1    
   106   52  175 1    
   107   53  176 1    
   108   53  177 1    
   109   53  178 1    
   110   54   55 am   BACKBONE|DICT|INTERRES
   111   54  179 1    
   112   55   56 2    
   113   55   57 1    
   114   57   58 1    
   115   57   59 1    
   116   57  180 1    
   117   58  181 1    
   118   58  182 1    
   119   58  183 1    
   120   59   60 am   BACKBONE|DICT|INTERRES
   121   59  184 1    
   122   60   61 2    
   123   60   62 1    
   124   62   63 1    
   125   62   64 1    
   126   62  185 1    
   127   63  186 1    
   128   63  187 1    
   129   63  188 1    
   130   64   65 am   BACKBONE|DICT|INTERRES
   131   64  189 1    
   132   65   66 2    
   133   67   68 2    
   134   67   69 am   BACKBONE|DICT|INTERRES
   135   69   70 1    
   136   69  190 1    
   137   70   71 1    
   138   70   72 1    
   139   70  191 1    
   140   71  192 1    
   141   71  193 1    
   142   71  194 1    
   143   72   73 2    
   144   72   74 am   BACKBONE|DICT|INTERRES
   145   74   75 1    
   146   74  195 1    
   147   75   76 1    
   148   75   77 1    
   149   75  196 1    
   150   76  197 1    
   151   76  198 1    
   152   76  199 1    
   153   77   78 2    
   154   77   79 am   BACKBONE|DICT|INTERRES
   155   79   80 1    
   156   79  200 1    
   157   80   81 1    
   158   80   82 1    
   159   80  201 1    
   160   81  202 1    
   161   81  203 1    
   162   81  204 1    
   163   82   83 2    
   164   82   84 am   BACKBONE|DICT|INTERRES
   165   84   85 1    
   166   84  205 1    
   167   85   86 1    
   168   85   87 1    
   169   85  206 1    
   170   86  207 1    
   171   86  208 1    
   172   86  209 1    
   173   87   88 2    
   174   87   89 am   BACKBONE|DICT|INTERRES
   175   89   90 1    
   176   89  210 1    
   177   90   91 1    
   178   90   92 1    
   179   90  211 1    
   180   91  212 1    
   181   91  213 1    
   182   91  214 1    
   183   92   93 2    
   184   92   94 am   BACKBONE|DICT|INTERRES
   185   94   95 1    
   186   94  215 1    
   187   95   96 1    
   188   95   97 1    
   189   95  216 1    
   190   96  217 1    
   191   96  218 1    
   192   96  219 1    
   193   97   98 2    
   194   97   99 am   BACKBONE|DICT|INTERRES
   195   99  100 1    
   196   99  220 1    
   197  100  101 1    
   198  100  102 1    
   199  100  221 1    
   200  101  222 1    
   201  101  223 1    
   202  101  224 1    
   203  102  103 2    
   204  102  104 am   BACKBONE|DICT|INTERRES
   205  104  105 1    
   206  104  225 1    
   207  105  106 1    
   208  105  107 1    
   209  105  226 1    
   210  106  227 1    
   211  106  228 1    
   212  106  229 1    
   213  107  108 2    
   214  107  109 am   BACKBONE|DICT|INTERRES
   215  109  110 1    
   216  109  230 1    
   217  110  111 1    
   218  110  112 1    
   219  110  231 1    
   220  111  232 1    
   221  111  233 1    
   222  111  234 1    
   223  112  113 2    
   224  112  114 am   BACKBONE|DICT|INTERRES
   225  114  115 1    
   226  114  235 1    
   227  115  116 1    
   228  115  117 1    
   229  115  236 1    
   230  116  237 1    
   231  116  238 1    
   232  116  239 1    
   233  117  118 2    
   234  117  119 am   BACKBONE|DICT|INTERRES
   235  119  120 1    
   236  119  240 1    
   237  120  121 1    
   238  120  124 1    
   239  120  241 1    
   240  121  122 am   BACKBONE|DICT|INTERRES
   241  121  123 2    
   242  122  242 1    
   243  122  243 1    
   244  124  125 1    
   245  124  244 1    
   246  124  245 1    
   247  125  126 1    
   248  126  246 1    
   249  126  247 1    
@<TRIPOS>SUBSTRUCTURE
     1 UNK         1 GROUP             0       ****    0 ROOT    
