@<TRIPOS>MOLECULE
3R540
247   249    1
SMALL
USER_CHARGES


@<TRIPOS>ATOM
      1 CA         -2.5580  -12.9421  -49.5776 C.3       0 UNK        -0.1800 
      2 C          -1.6424  -13.7201  -48.6443 C.2       0 UNK         0.5000 
      3 O          -1.9782  -14.8358  -48.2526 O.2       0 UNK        -0.5000 
      4 N          -0.4990  -13.1271  -48.2740 N.am      1 UNK        -0.5000 
      5 CA          0.5966  -13.6772  -47.4552 C.3       1 UNK         0.1400 
      6 C6          1.2564  -14.9415  -48.0653 C.3       23 UNK        -0.0398 
      7 S7          2.1492  -14.5983  -49.6189 S.3       23 UNK        -0.2404 
      8 C8          1.0423  -15.3136  -50.8810 C.3       23 UNK        -0.0205 
      9 C9          0.7397  -16.8024  -50.7135 C.ar      23 UNK        -0.0193 
     10 C10        -0.5182  -17.2774  -51.0859 C.ar      23 UNK        -0.1150 
     11 C11        -0.8454  -18.6330  -50.9672 C.ar      23 UNK        -0.0193 
     12 C12         0.1220  -19.5218  -50.4842 C.ar      23 UNK        -0.1150 
     13 C13         1.3920  -19.0675  -50.1007 C.ar      23 UNK        -0.0193 
     14 C14         1.6904  -17.7074  -50.2295 C.ar      23 UNK        -0.1150 
     15 C15         2.4939  -20.0038  -49.5988 C.3       23 UNK        -0.0205 
     16 S16         1.9398  -21.5744  -48.8503 S.3       23 UNK        -0.2404 
     17 C17         1.3175  -21.0265  -47.2246 C.3       23 UNK        -0.0398 
     18 CA          0.0059  -21.7450  -46.8191 C.3       11 UNK         0.1400 
     19 N          -0.2112  -21.7288  -45.3672 N.am      11 UNK        -0.5000 
     20 C          -1.1953  -22.3846  -44.7320 C.2       10 UNK         0.5000 
     21 O          -1.9877  -23.1378  -45.2942 O.2       10 UNK        -0.5000 
     22 CA         -1.3721  -22.1043  -43.2284 C.3       10 UNK         0.1400 
     23 CB         -0.3939  -22.9369  -42.3871 C.3       10 UNK        -0.1800 
     24 N          -1.2274  -20.6839  -42.9106 N.am      10 UNK        -0.5000 
     25 C          -2.0462  -19.7237  -43.3630 C.2       9 UNK         0.5000 
     26 O          -3.0612  -19.9497  -44.0210 O.2       9 UNK        -0.5000 
     27 CA         -1.6335  -18.2669  -43.0898 C.3       9 UNK         0.1400 
     28 CB         -2.0948  -17.8105  -41.6990 C.3       9 UNK        -0.1800 
     29 N          -0.1911  -18.0575  -43.2321 N.am      9 UNK        -0.5000 
     30 C           0.4820  -18.1817  -44.3856 C.2       8 UNK         0.5000 
     31 O          -0.0589  -18.4054  -45.4668 O.2       8 UNK        -0.5000 
     32 CA          2.0173  -18.1088  -44.3114 C.3       8 UNK         0.1400 
     33 CB          2.5183  -16.6608  -44.3677 C.3       8 UNK        -0.1800 
     34 N           2.5277  -18.7547  -43.1049 N.am      8 UNK        -0.5000 
     35 C           2.5479  -20.0805  -42.9153 C.2       7 UNK         0.5000 
     36 O           2.1841  -20.8936  -43.7649 O.2       7 UNK        -0.5000 
     37 CA          3.0118  -20.5719  -41.5310 C.3       7 UNK         0.1400 
     38 CB          4.5401  -20.7177  -41.4950 C.3       7 UNK        -0.1800 
     39 N           2.5850  -19.6808  -40.4494 N.am      7 UNK        -0.5000 
     40 C           1.3097  -19.5032  -40.0749 C.2       6 UNK         0.5000 
     41 O           0.3672  -20.1244  -40.5630 O.2       6 UNK        -0.5000 
     42 CA          1.0368  -18.4114  -39.0214 C.3       6 UNK         0.1400 
     43 CB          1.1253  -18.9957  -37.6040 C.3       6 UNK        -0.1800 
     44 N           1.9447  -17.2654  -39.1339 N.am      6 UNK        -0.5000 
     45 C           2.0109  -16.4507  -40.1951 C.2       5 UNK         0.5000 
     46 O           1.2866  -16.5595  -41.1870 O.2       5 UNK        -0.5000 
     47 CA          3.1286  -15.4014  -40.1758 C.3       5 UNK         0.1400 
     48 CB          4.4808  -16.0837  -40.4769 C.3       5 UNK        -0.1800 
     49 N           2.8510  -14.3678  -41.1714 N.am      5 UNK        -0.5000 
     50 C           3.5239  -13.2171  -41.2953 C.2       4 UNK         0.5000 
     51 O           4.4145  -12.8593  -40.5227 O.2       4 UNK        -0.5000 
     52 CA          3.1609  -12.3142  -42.4867 C.3       4 UNK         0.1400 
     53 CB          3.8836  -12.7901  -43.7568 C.3       4 UNK        -0.1800 
     54 N           1.7224  -12.2276  -42.7428 N.am      4 UNK        -0.5000 
     55 C           0.8655  -11.5314  -41.9795 C.2       3 UNK         0.5000 
     56 O           1.1968  -10.9614  -40.9388 O.2       3 UNK        -0.5000 
     57 CA         -0.5963  -11.4055  -42.4603 C.3       3 UNK         0.1400 
     58 CB         -0.8398  -10.0167  -43.0716 C.3       3 UNK        -0.1800 
     59 N          -0.9843  -12.4191  -43.4399 N.am      3 UNK        -0.5000 
     60 C          -1.2079  -13.7057  -43.1495 C.2       2 UNK         0.5000 
     61 O          -1.1790  -14.1557  -42.0047 O.2       2 UNK        -0.5000 
     62 CA         -1.4991  -14.6560  -44.3285 C.3       2 UNK         0.1400 
     63 CB         -3.0053  -14.9398  -44.4279 C.3       2 UNK        -0.1800 
     64 N          -1.0129  -14.2276  -45.6454 N.am      2 UNK        -0.5000 
     65 C           0.2495  -13.9195  -45.9680 C.2       1 UNK         0.5000 
     66 O           1.1442  -13.8083  -45.1315 O.2       1 UNK        -0.5000 
     67 C          -1.2115  -21.1875  -47.5863 C.2       11 UNK         0.5000 
     68 O          -1.6676  -21.8187  -48.5393 O.2       11 UNK        -0.5000 
     69 N          -1.7432  -20.0466  -47.1232 N.am      12 UNK        -0.5000 
     70 CA         -2.9402  -19.4061  -47.6654 C.3       12 UNK         0.1400 
     71 CB         -3.1655  -18.0494  -46.9830 C.3       12 UNK        -0.1800 
     72 C          -4.1904  -20.3009  -47.5745 C.2       12 UNK         0.5000 
     73 O          -4.9178  -20.4306  -48.5590 O.2       12 UNK        -0.5000 
     74 N          -4.3909  -20.9344  -46.4104 N.am      13 UNK        -0.5000 
     75 CA         -5.4806  -21.8752  -46.1470 C.3       13 UNK         0.1400 
     76 CB         -5.5280  -22.1890  -44.6439 C.3       13 UNK        -0.1800 
     77 C          -5.3775  -23.1737  -46.9705 C.2       13 UNK         0.5000 
     78 O          -6.3952  -23.6604  -47.4643 O.2       13 UNK        -0.5000 
     79 N          -4.1561  -23.7056  -47.1137 N.am      14 UNK        -0.5000 
     80 CA         -3.8549  -24.9168  -47.8815 C.3       14 UNK         0.1400 
     81 CB         -2.4832  -25.4543  -47.4432 C.3       14 UNK        -0.1800 
     82 C          -3.8709  -24.7072  -49.4079 C.2       14 UNK         0.5000 
     83 O          -3.8609  -25.6932  -50.1466 O.2       14 UNK        -0.5000 
     84 N          -3.8458  -23.4439  -49.8543 N.am      15 UNK        -0.5000 
     85 CA         -3.7105  -22.9532  -51.2294 C.3       15 UNK         0.1400 
     86 CB         -4.8053  -23.5125  -52.1565 C.3       15 UNK        -0.1800 
     87 C          -2.2885  -23.1553  -51.7863 C.2       15 UNK         0.5000 
     88 O          -1.6710  -22.1821  -52.2165 O.2       15 UNK        -0.5000 
     89 N          -1.7842  -24.3953  -51.7058 N.am      16 UNK        -0.5000 
     90 CA         -0.3910  -24.8270  -51.8538 C.3       16 UNK         0.1400 
     91 CB          0.3540  -24.5592  -50.5302 C.3       16 UNK        -0.1800 
     92 C           0.3362  -24.2469  -53.0860 C.2       16 UNK         0.5000 
     93 O           0.2265  -24.8130  -54.1740 O.2       16 UNK        -0.5000 
     94 N           1.0629  -23.1365  -52.8904 N.am      17 UNK        -0.5000 
     95 CA          1.8205  -22.4093  -53.9117 C.3       17 UNK         0.1400 
     96 CB          2.6229  -21.2919  -53.2288 C.3       17 UNK        -0.1800 
     97 C           0.9551  -21.8285  -55.0482 C.2       17 UNK         0.5000 
     98 O           1.4537  -21.6744  -56.1640 O.2       17 UNK        -0.5000 
     99 N          -0.3185  -21.5422  -54.7582 N.am      18 UNK        -0.5000 
    100 CA        -1.3367  -21.1608  -55.7285 C.3       18 UNK         0.1400 
    101 CB        -1.6409  -19.6573  -55.6123 C.3       18 UNK        -0.1800 
    102 C         -2.5504  -22.0585  -55.4653 C.2       18 UNK         0.5000 
    103 O         -3.5503  -21.6106  -54.9033 O.2       18 UNK        -0.5000 
    104 N         -2.4012  -23.3384  -55.8362 N.am      19 UNK        -0.5000 
    105 CA        -3.3090  -24.4557  -55.5522 C.3       19 UNK         0.1400 
    106 CB        -2.7399  -25.7298  -56.1939 C.3       19 UNK        -0.1800 
    107 C         -4.7774  -24.2567  -55.9780 C.2       19 UNK         0.5000 
    108 O         -5.6597  -24.9005  -55.4090 O.2       19 UNK        -0.5000 
    109 N         -5.0291  -23.3490  -56.9300 N.am      20 UNK        -0.5000 
    110 CA        -6.3510  -22.9072  -57.3800 C.3       20 UNK         0.1400 
    111 CB        -6.1997  -22.2520  -58.7649 C.3       20 UNK        -0.1800 
    112 C         -7.0549  -21.9837  -56.3552 C.2       20 UNK         0.5000 
    113 O         -7.5032  -20.8931  -56.7109 O.2       20 UNK        -0.5000 
    114 N         -7.1422  -22.4514  -55.1024 N.am      21 UNK        -0.5000 
    115 CA        -7.8064  -21.8386  -53.9472 C.3       21 UNK         0.1400 
    116 CB        -9.3303  -21.7574  -54.1796 C.3       21 UNK        -0.1800 
    117 C         -7.1999  -20.4947  -53.4828 C.2       21 UNK         0.5000 
    118 O         -7.9102  -19.6959  -52.8687 O.2       21 UNK        -0.5000 
    119 N         -5.9009  -20.2774  -53.7369 N.am      22 UNK        -0.5000 
    120 CA        -5.1502  -19.0653  -53.3691 C.3       22 UNK         0.1400 
    121 C         -5.6395  -17.7791  -54.1117 C.2       22 UNK         0.5000 
    122 N         -5.3457  -16.5895  -53.6050 N.am      22 UNK        -0.7600 
    123 O         -6.2425  -17.8412  -55.1807 O.2       22 UNK        -0.5000 
    124 C124       -5.0178  -18.9235  -51.8216 C.3       23 UNK        -0.0398 
    125 S125       -3.5739  -17.9516  -51.2729 S.3       23 UNK        -0.2404 
    126 C126       -2.2156  -19.1701  -51.3861 C.3       23 UNK        -0.0205 
    127 H127       -3.5235  -12.7730  -49.1008 H         1 UNK         0.0600 
    128 H128       -2.7239  -13.5084  -50.4941 H         1 UNK         0.0600 
    129 H129       -2.1360  -11.9739  -49.8474 H         1 UNK         0.0600 
    130 H130       -0.3218  -12.1937  -48.6181 H         1 UNK         0.3000 
    131 H131        1.3554  -12.8930  -47.4402 H         1 UNK         0.0600 
    132 H132        0.5246  -15.7380  -48.2048 H         1 UNK         0.0800 
    133 H133        2.0058  -15.3468  -47.3859 H         1 UNK         0.0800 
    134 H134        1.4955  -15.1651  -51.8617 H         1 UNK         0.0800 
    135 H135        0.1155  -14.7387  -50.8822 H         1 UNK         0.0800 
    136 H136       -1.2415  -16.5779  -51.4782 H         1 UNK         0.1150 
    137 H137       -0.1209  -20.5728  -50.4202 H         1 UNK         0.1150 
    138 H138        2.6752  -17.3539  -49.9594 H         1 UNK         0.1150 
    139 H139        3.1430  -20.2406  -50.4418 H         1 UNK         0.0800 
    140 H140        3.1205  -19.4834  -48.8726 H         1 UNK         0.0800 
    141 H141        1.1951  -19.9424  -47.2159 H         1 UNK         0.0800 
    142 H142        2.1018  -21.2452  -46.4989 H         1 UNK         0.0800 
    143 H143        0.1023  -22.7980  -47.0934 H         1 UNK         0.0600 
    144 H144        0.4307  -21.1697  -44.8166 H         1 UNK         0.3000 
    145 H145       -2.3862  -22.4018  -42.9535 H         1 UNK         0.0600 
    146 H146       -0.5508  -22.7709  -41.3212 H         1 UNK         0.0600 
    147 H147        0.6441  -22.6969  -42.6133 H         1 UNK         0.0600 
    148 H148       -0.5309  -24.0025  -42.5745 H         1 UNK         0.0600 
    149 H149       -0.4605  -20.4251  -42.2974 H         1 UNK         0.3000 
    150 H150       -2.1357  -17.6461  -43.8325 H         1 UNK         0.0600 
    151 H151       -3.1807  -17.8642  -41.6144 H         1 UNK         0.0600 
    152 H152       -1.8030  -16.7786  -41.5040 H         1 UNK         0.0600 
    153 H153       -1.6750  -18.4316  -40.9088 H         1 UNK         0.0600 
    154 H154        0.3222  -17.7984  -42.3955 H         1 UNK         0.3000 
    155 H155        2.4213  -18.6363  -45.1783 H         1 UNK         0.0600 
    156 H156        3.5991  -16.6053  -44.2380 H         1 UNK         0.0600 
    157 H157        2.2880  -16.2207  -45.3348 H         1 UNK         0.0600 
    158 H158        2.0544  -16.0330  -43.6078 H         1 UNK         0.0600 
    159 H159        2.7902  -18.1491  -42.3424 H         1 UNK         0.3000 
    160 H160        2.5691  -21.5554  -41.3599 H         1 UNK         0.0600 
    161 H161        4.8740  -21.1325  -40.5437 H         1 UNK         0.0600 
    162 H162        5.0412  -19.7596  -41.6385 H         1 UNK         0.0600 
    163 H163        4.8860  -21.3905  -42.2809 H         1 UNK         0.0600 
    164 H164        3.3032  -19.1423  -39.9888 H         1 UNK         0.3000 
    165 H165        0.0192  -18.0481  -39.1774 H         1 UNK         0.0600 
    166 H166        0.8544  -18.2528  -36.8536 H         1 UNK         0.0600 
    167 H167        0.4423  -19.8382  -37.4863 H         1 UNK         0.0600 
    168 H168        2.1302  -19.3533  -37.3764 H         1 UNK         0.0600 
    169 H169        2.5777  -17.1171  -38.3609 H         1 UNK         0.3000 
    170 H170        3.1546  -14.9421  -39.1857 H         1 UNK         0.0600 
    171 H171        4.4995  -16.5096  -41.4809 H         1 UNK         0.0600 
    172 H172        5.3123  -15.3836  -40.3991 H         1 UNK         0.0600 
    173 H173        4.6858  -16.8912  -39.7732 H         1 UNK         0.0600 
    174 H174        2.0912  -14.5836  -41.8049 H         1 UNK         0.3000 
    175 H175        3.5222  -11.3087  -42.2602 H         1 UNK         0.0600 
    176 H176        3.5952  -13.8058  -44.0291 H         1 UNK         0.0600 
    177 H177        3.6636  -12.1410  -44.6045 H         1 UNK         0.0600 
    178 H178        4.9649  -12.7855  -43.6145 H         1 UNK         0.0600 
    179 H179        1.3827  -12.6981  -43.5774 H         1 UNK         0.3000 
    180 H180       -1.2389  -11.5080  -41.5832 H         1 UNK         0.0600 
    181 H181       -1.8851   -9.8864  -43.3522 H         1 UNK         0.0600 
    182 H182       -0.2296   -9.8566  -43.9615 H         1 UNK         0.0600 
    183 H183       -0.5955   -9.2270  -42.3598 H         1 UNK         0.0600 
    184 H184       -1.0201  -12.1334  -44.4072 H         1 UNK         0.3000 
    185 H185       -0.9858  -15.5884  -44.1008 H         1 UNK         0.0600 
    186 H186       -3.5652  -14.0393  -44.6830 H         1 UNK         0.0600 
    187 H187       -3.2169  -15.6911  -45.1882 H         1 UNK         0.0600 
    188 H188       -3.3983  -15.3156  -43.4821 H         1 UNK         0.0600 
    189 H189       -1.6548  -14.3480  -46.4232 H         1 UNK         0.3000 
    190 H190       -1.2708  -19.5593  -46.3667 H         1 UNK         0.3000 
    191 H191       -2.7474  -19.2081  -48.7159 H         1 UNK         0.0600 
    192 H192       -2.2849  -17.4124  -47.0732 H         1 UNK         0.0600 
    193 H193       -3.3941  -18.1584  -45.9240 H         1 UNK         0.0600 
    194 H194       -3.9974  -17.5171  -47.4455 H         1 UNK         0.0600 
    195 H195       -3.7653  -20.7338  -45.6344 H         1 UNK         0.3000 
    196 H196       -6.4169  -21.3841  -46.4199 H         1 UNK         0.0600 
    197 H197       -5.6809  -21.2830  -44.0571 H         1 UNK         0.0600 
    198 H198       -4.6040  -22.6559  -44.3014 H         1 UNK         0.0600 
    199 H199       -6.3474  -22.8703  -44.4117 H         1 UNK         0.0600 
    200 H200       -3.3739  -23.2791  -46.6235 H         1 UNK         0.3000 
    201 H201       -4.6079  -25.6720  -47.6476 H         1 UNK         0.0600 
    202 H202       -2.4707  -25.6812  -46.3771 H         1 UNK         0.0600 
    203 H203       -1.6898  -24.7324  -47.6422 H         1 UNK         0.0600 
    204 H204       -2.2313  -26.3739  -47.9728 H         1 UNK         0.0600 
    205 H205       -3.7645  -22.7240  -49.1469 H         1 UNK         0.3000 
    206 H206       -3.8684  -21.8787  -51.1611 H         1 UNK         0.0600 
    207 H207       -4.6716  -24.5736  -52.3665 H         1 UNK         0.0600 
    208 H208       -5.7936  -23.3808  -51.7170 H         1 UNK         0.0600 
    209 H209       -4.8050  -22.9911  -53.1114 H         1 UNK         0.0600 
    210 H210       -2.4157  -25.1010  -51.3390 H         1 UNK         0.3000 
    211 H211       -0.4172  -25.9078  -51.9999 H         1 UNK         0.0600 
    212 H212        0.2684  -23.5169  -50.2240 H         1 UNK         0.0600 
    213 H213        1.4143  -24.8032  -50.6086 H         1 UNK         0.0600 
    214 H214       -0.0576  -25.1668  -49.7242 H         1 UNK         0.0600 
    215 H215        1.0514  -22.7259  -51.9682 H         1 UNK         0.3000 
    216 H216        2.5239  -23.1118  -54.3628 H         1 UNK         0.0600 
    217 H217        3.2317  -20.7482  -53.9524 H         1 UNK         0.0600 
    218 H218        3.2989  -21.6958  -52.4751 H         1 UNK         0.0600 
    219 H219        1.9670  -20.5684  -52.7430 H         1 UNK         0.0600 
    220 H220       -0.6625  -21.7398  -53.8202 H         1 UNK         0.3000 
    221 H221       -1.0014  -21.3610  -56.7483 H         1 UNK         0.0600 
    222 H222       -1.9337  -19.3773  -54.6034 H         1 UNK         0.0600 
    223 H223       -0.7681  -19.0616  -55.8795 H         1 UNK         0.0600 
    224 H224       -2.4513  -19.3693  -56.2829 H         1 UNK         0.0600 
    225 H225       -1.5204  -23.5994  -56.2562 H         1 UNK         0.3000 
    226 H226       -3.3066  -24.5968  -54.4707 H         1 UNK         0.0600 
    227 H227       -1.7448  -25.9554  -55.8100 H         1 UNK         0.0600 
    228 H228       -3.3705  -26.5937  -55.9789 H         1 UNK         0.0600 
    229 H229       -2.6692  -25.6358  -57.2782 H         1 UNK         0.0600 
    230 H230       -4.2415  -22.8443  -57.3082 H         1 UNK         0.3000 
    231 H231       -6.9853  -23.7880  -57.4995 H         1 UNK         0.0600 
    232 H232       -7.1698  -21.9605  -59.1695 H         1 UNK         0.0600 
    233 H233       -5.7470  -22.9396  -59.4795 H         1 UNK         0.0600 
    234 H234       -5.5784  -21.3566  -58.7200 H         1 UNK         0.0600 
    235 H235       -6.7244  -23.3627  -54.9362 H         1 UNK         0.3000 
    236 H236       -7.6478  -22.5298  -53.1190 H         1 UNK         0.0600 
    237 H237       -9.5832  -21.0281  -54.9498 H         1 UNK         0.0600 
    238 H238       -9.7354  -22.7223  -54.4843 H         1 UNK         0.0600 
    239 H239       -9.8522  -21.4635  -53.2682 H         1 UNK         0.0600 
    240 H240       -5.3734  -20.9594  -54.2717 H         1 UNK         0.3000 
    241 H241       -4.1532  -19.2436  -53.7679 H         1 UNK         0.0600 
    242 H242       -4.8182  -16.5143  -52.7472 H         1 UNK         0.3800 
    243 H243       -5.6416  -15.7566  -54.0893 H         1 UNK         0.3800 
    244 H244       -4.9484  -19.9046  -51.3541 H         1 UNK         0.0800 
    245 H245       -5.9181  -18.4716  -51.4025 H         1 UNK         0.0800 
    246 H246       -2.4691  -20.0344  -50.7730 H         1 UNK         0.0800 
    247 H247       -2.1432  -19.5355  -52.4078 H         1 UNK         0.0800 
@<TRIPOS>BOND
     1    1    2 1    
     2    1  127 1    
     3    1  128 1    
     4    1  129 1    
     5    2    3 2    
     6    2    4 am   BACKBONE|DICT|INTERRES
     7    4    5 1    
     8    4  130 1    
     9    5    6 1    
    10    5   65 1    
    11    5  131 1    
    12    6    7 1    
    13    6  132 1    
    14    6  133 1    
    15    7    8 1    
    16    8    9 1    
    17    8  134 1    
    18    8  135 1    
    19    9   10 ar   
    20    9   14 ar   
    21   10   11 ar   
    22   10  136 1    
    23   11   12 ar   
    24   11  126 1    
    25   12   13 ar   
    26   12  137 1    
    27   13   14 ar   
    28   13   15 1    
    29   14  138 1    
    30   15   16 1    
    31   15  139 1    
    32   15  140 1    
    33   16   17 1    
    34   17   18 1    
    35   17  141 1    
    36   17  142 1    
    37   18   19 1    
    38   18   67 1    
    39   18  143 1    
    40   19   20 am   BACKBONE|DICT|INTERRES
    41   19  144 1    
    42   20   21 2    
    43   20   22 1    
    44   22   23 1    
    45   22   24 1    
    46   22  145 1    
    47   23  146 1    
    48   23  147 1    
    49   23  148 1    
    50   24   25 am   BACKBONE|DICT|INTERRES
    51   24  149 1    
    52   25   26 2    
    53   25   27 1    
    54   27   28 1    
    55   27   29 1    
    56   27  150 1    
    57   28  151 1    
    58   28  152 1    
    59   28  153 1    
    60   29   30 am   BACKBONE|DICT|INTERRES
    61   29  154 1    
    62   30   31 2    
    63   30   32 1    
    64   32   33 1    
    65   32   34 1    
    66   32  155 1    
    67   33  156 1    
    68   33  157 1    
    69   33  158 1    
    70   34   35 am   BACKBONE|DICT|INTERRES
    71   34  159 1    
    72   35   36 2    
    73   35   37 1    
    74   37   38 1    
    75   37   39 1    
    76   37  160 1    
    77   38  161 1    
    78   38  162 1    
    79   38  163 1    
    80   39   40 am   BACKBONE|DICT|INTERRES
    81   39  164 1    
    82   40   41 2    
    83   40   42 1    
    84   42   43 1    
    85   42   44 1    
    86   42  165 1    
    87   43  166 1    
    88   43  167 1    
    89   43  168 1    
    90   44   45 am   BACKBONE|DICT|INTERRES
    91   44  169 1    
    92   45   46 2    
    93   45   47 1    
    94   47   48 1    
    95   47   49 1    
    96   47  170 1    
    97   48  171 1    
    98   48  172 1    
    99   48  173 1    
   100   49   50 am   BACKBONE|DICT|INTERRES
   101   49  174 1    
   102   50   51 2    
   103   50   52 1    
   104   52   53 1    
   105   52   54 1    
   106   52  175 1    
   107   53  176 1    
   108   53  177 1    
   109   53  178 1    
   110   54   55 am   BACKBONE|DICT|INTERRES
   111   54  179 1    
   112   55   56 2    
   113   55   57 1    
   114   57   58 1    
   115   57   59 1    
   116   57  180 1    
   117   58  181 1    
   118   58  182 1    
   119   58  183 1    
   120   59   60 am   BACKBONE|DICT|INTERRES
   121   59  184 1    
   122   60   61 2    
   123   60   62 1    
   124   62   63 1    
   125   62   64 1    
   126   62  185 1    
   127   63  186 1    
   128   63  187 1    
   129   63  188 1    
   130   64   65 am   BACKBONE|DICT|INTERRES
   131   64  189 1    
   132   65   66 2    
   133   67   68 2    
   134   67   69 am   BACKBONE|DICT|INTERRES
   135   69   70 1    
   136   69  190 1    
   137   70   71 1    
   138   70   72 1    
   139   70  191 1    
   140   71  192 1    
   141   71  193 1    
   142   71  194 1    
   143   72   73 2    
   144   72   74 am   BACKBONE|DICT|INTERRES
   145   74   75 1    
   146   74  195 1    
   147   75   76 1    
   148   75   77 1    
   149   75  196 1    
   150   76  197 1    
   151   76  198 1    
   152   76  199 1    
   153   77   78 2    
   154   77   79 am   BACKBONE|DICT|INTERRES
   155   79   80 1    
   156   79  200 1    
   157   80   81 1    
   158   80   82 1    
   159   80  201 1    
   160   81  202 1    
   161   81  203 1    
   162   81  204 1    
   163   82   83 2    
   164   82   84 am   BACKBONE|DICT|INTERRES
   165   84   85 1    
   166   84  205 1    
   167   85   86 1    
   168   85   87 1    
   169   85  206 1    
   170   86  207 1    
   171   86  208 1    
   172   86  209 1    
   173   87   88 2    
   174   87   89 am   BACKBONE|DICT|INTERRES
   175   89   90 1    
   176   89  210 1    
   177   90   91 1    
   178   90   92 1    
   179   90  211 1    
   180   91  212 1    
   181   91  213 1    
   182   91  214 1    
   183   92   93 2    
   184   92   94 am   BACKBONE|DICT|INTERRES
   185   94   95 1    
   186   94  215 1    
   187   95   96 1    
   188   95   97 1    
   189   95  216 1    
   190   96  217 1    
   191   96  218 1    
   192   96  219 1    
   193   97   98 2    
   194   97   99 am   BACKBONE|DICT|INTERRES
   195   99  100 1    
   196   99  220 1    
   197  100  101 1    
   198  100  102 1    
   199  100  221 1    
   200  101  222 1    
   201  101  223 1    
   202  101  224 1    
   203  102  103 2    
   204  102  104 am   BACKBONE|DICT|INTERRES
   205  104  105 1    
   206  104  225 1    
   207  105  106 1    
   208  105  107 1    
   209  105  226 1    
   210  106  227 1    
   211  106  228 1    
   212  106  229 1    
   213  107  108 2    
   214  107  109 am   BACKBONE|DICT|INTERRES
   215  109  110 1    
   216  109  230 1    
   217  110  111 1    
   218  110  112 1    
   219  110  231 1    
   220  111  232 1    
   221  111  233 1    
   222  111  234 1    
   223  112  113 2    
   224  112  114 am   BACKBONE|DICT|INTERRES
   225  114  115 1    
   226  114  235 1    
   227  115  116 1    
   228  115  117 1    
   229  115  236 1    
   230  116  237 1    
   231  116  238 1    
   232  116  239 1    
   233  117  118 2    
   234  117  119 am   BACKBONE|DICT|INTERRES
   235  119  120 1    
   236  119  240 1    
   237  120  121 1    
   238  120  124 1    
   239  120  241 1    
   240  121  122 am   BACKBONE|DICT|INTERRES
   241  121  123 2    
   242  122  242 1    
   243  122  243 1    
   244  124  125 1    
   245  124  244 1    
   246  124  245 1    
   247  125  126 1    
   248  126  246 1    
   249  126  247 1    
@<TRIPOS>SUBSTRUCTURE
     1 UNK         1 GROUP             0       ****    0 ROOT    
