@<TRIPOS>MOLECULE
3R540
247   249    1
SMALL
USER_CHARGES


@<TRIPOS>ATOM
      1 CA          0.6723  -12.3288  -51.3367 C.3       0 UNK        -0.1800 
      2 C           0.6196  -12.5782  -49.8362 C.2       0 UNK         0.5000 
      3 O           0.2597  -11.6784  -49.0774 O.2       0 UNK        -0.5000 
      4 N           0.9786  -13.7952  -49.4084 N.am      1 UNK        -0.5000 
      5 CA          0.9489  -14.2463  -48.0107 C.3       1 UNK         0.1400 
      6 C6          1.7964  -15.5244  -47.8054 C.3       23 UNK        -0.0398 
      7 S7          1.3562  -16.8962  -48.9338 S.3       23 UNK        -0.2404 
      8 C8          3.0066  -17.5319  -49.3582 C.3       23 UNK        -0.0205 
      9 C9          2.9398  -18.6606  -50.3768 C.ar      23 UNK        -0.0193 
     10 C10         3.4394  -18.4803  -51.6702 C.ar      23 UNK        -0.1150 
     11 C11         3.4348  -19.5358  -52.5881 C.ar      23 UNK        -0.0193 
     12 C12         2.9101  -20.7750  -52.2077 C.ar      23 UNK        -0.1150 
     13 C13         2.3887  -20.9632  -50.9249 C.ar      23 UNK        -0.0193 
     14 C14         2.4135  -19.9026  -50.0137 C.ar      23 UNK        -0.1150 
     15 C15         1.7886  -22.3038  -50.5270 C.3       23 UNK        -0.0205 
     16 S16         2.6610  -23.0340  -49.1071 S.3       23 UNK        -0.2404 
     17 C17         1.5377  -24.4007  -48.6376 C.3       23 UNK        -0.0398 
     18 CA          0.7106  -24.1472  -47.3408 C.3       11 UNK         0.1400 
     19 N           1.4949  -23.6083  -46.2209 N.am      11 UNK        -0.5000 
     20 C           2.4770  -24.2996  -45.6203 C.2       10 UNK         0.5000 
     21 O           2.7177  -25.4821  -45.8696 O.2       10 UNK        -0.5000 
     22 CA          3.3742  -23.5756  -44.5950 C.3       10 UNK         0.1400 
     23 CB          4.6597  -23.0819  -45.2774 C.3       10 UNK        -0.1800 
     24 N           2.7381  -22.4415  -43.9340 N.am      10 UNK        -0.5000 
     25 C           1.7789  -22.5248  -43.0040 C.2       9 UNK         0.5000 
     26 O           1.3552  -23.5897  -42.5538 O.2       9 UNK        -0.5000 
     27 CA          1.1787  -21.1937  -42.5004 C.3       9 UNK         0.1400 
     28 CB          1.7784  -20.8116  -41.1389 C.3       9 UNK        -0.1800 
     29 N           1.3349  -20.0540  -43.4115 N.am      9 UNK        -0.5000 
     30 C           0.9557  -20.0076  -44.6950 C.2       8 UNK         0.5000 
     31 O           0.4497  -20.9586  -45.2896 O.2       8 UNK        -0.5000 
     32 CA          1.1795  -18.6917  -45.4505 C.3       8 UNK         0.1400 
     33 CB         -0.1351  -17.8975  -45.4953 C.3       8 UNK        -0.1800 
     34 N           2.2443  -17.8734  -44.8691 N.am      8 UNK        -0.5000 
     35 C           3.5484  -18.0285  -45.1403 C.2       7 UNK         0.5000 
     36 O           3.9861  -18.8927  -45.8995 O.2       7 UNK        -0.5000 
     37 CA          4.5317  -17.0513  -44.4657 C.3       7 UNK         0.1400 
     38 CB          4.8125  -15.8578  -45.3922 C.3       7 UNK        -0.1800 
     39 N           4.0492  -16.5480  -43.1790 N.am      7 UNK        -0.5000 
     40 C           4.0642  -17.2480  -42.0362 C.2       6 UNK         0.5000 
     41 O           4.5537  -18.3724  -41.9296 O.2       6 UNK        -0.5000 
     42 CA          3.3761  -16.5975  -40.8162 C.3       6 UNK         0.1400 
     43 CB          4.3857  -15.7691  -40.0077 C.3       6 UNK        -0.1800 
     44 N           2.2182  -15.7558  -41.1515 N.am      6 UNK        -0.5000 
     45 C           1.1411  -16.1802  -41.8253 C.2       5 UNK         0.5000 
     46 O           1.0427  -17.3248  -42.2747 O.2       5 UNK        -0.5000 
     47 CA          0.0275  -15.1451  -42.0981 C.3       5 UNK         0.1400 
     48 CB          0.5134  -14.0979  -43.1129 C.3       5 UNK        -0.1800 
     49 N          -1.1734  -15.7869  -42.6373 N.am      5 UNK        -0.5000 
     50 C          -1.9492  -16.6360  -41.9509 C.2       4 UNK         0.5000 
     51 O          -1.9008  -16.7636  -40.7255 O.2       4 UNK        -0.5000 
     52 CA         -2.8875  -17.5266  -42.7916 C.3       4 UNK         0.1400 
     53 CB         -3.9396  -18.2710  -41.9431 C.3       4 UNK        -0.1800 
     54 N          -3.5274  -16.8467  -43.9223 N.am      4 UNK        -0.5000 
     55 C          -4.3736  -15.8121  -43.8588 C.2       3 UNK         0.5000 
     56 O          -4.5851  -15.1522  -42.8398 O.2       3 UNK        -0.5000 
     57 CA         -5.1489  -15.5078  -45.1540 C.3       3 UNK         0.1400 
     58 CB         -6.3783  -14.6143  -44.9090 C.3       3 UNK        -0.1800 
     59 N          -4.3336  -14.8936  -46.1986 N.am      3 UNK        -0.5000 
     60 C          -3.4241  -15.5017  -46.9711 C.2       2 UNK         0.5000 
     61 O          -3.0707  -16.6723  -46.8127 O.2       2 UNK        -0.5000 
     62 CA         -2.8858  -14.6880  -48.1725 C.3       2 UNK         0.1400 
     63 CB         -3.3539  -13.2145  -48.1990 C.3       2 UNK        -0.1800 
     64 N          -1.4338  -14.7382  -48.3474 N.am      2 UNK        -0.5000 
     65 C          -0.4907  -14.3907  -47.4600 C.2       1 UNK         0.5000 
     66 O          -0.7158  -14.1315  -46.2775 O.2       1 UNK        -0.5000 
     67 C          -0.5526  -23.3164  -47.6241 C.2       11 UNK         0.5000 
     68 O          -1.6524  -23.8701  -47.6200 O.2       11 UNK        -0.5000 
     69 N          -0.3903  -22.0091  -47.8699 N.am      12 UNK        -0.5000 
     70 CA         -1.4564  -21.0825  -48.2733 C.3       12 UNK         0.1400 
     71 CB         -0.8617  -19.7101  -48.6018 C.3       12 UNK        -0.1800 
     72 C          -2.6200  -20.9534  -47.2762 C.2       12 UNK         0.5000 
     73 O          -3.7505  -20.7185  -47.7032 O.2       12 UNK        -0.5000 
     74 N          -2.3325  -21.1515  -45.9837 N.am      13 UNK        -0.5000 
     75 CA         -3.3171  -21.2109  -44.9037 C.3       13 UNK         0.1400 
     76 CB         -2.5789  -21.3525  -43.5649 C.3       13 UNK        -0.1800 
     77 C          -4.3343  -22.3567  -45.0748 C.2       13 UNK         0.5000 
     78 O          -5.5004  -22.1876  -44.7177 O.2       13 UNK        -0.5000 
     79 N          -3.8787  -23.4874  -45.6318 N.am      14 UNK        -0.5000 
     80 CA         -4.7180  -24.6278  -45.9910 C.3       14 UNK         0.1400 
     81 CB         -3.9042  -25.9246  -45.8594 C.3       14 UNK        -0.1800 
     82 C          -5.2721  -24.4730  -47.4165 C.2       14 UNK         0.5000 
     83 O          -6.4528  -24.7414  -47.6426 O.2       14 UNK        -0.5000 
     84 N          -4.4243  -24.0190  -48.3507 N.am      15 UNK        -0.5000 
     85 CA         -4.7298  -23.8243  -49.7700 C.3       15 UNK         0.1400 
     86 CB         -3.4224  -23.8923  -50.5792 C.3       15 UNK        -0.1800 
     87 C          -5.5555  -22.5478  -50.0504 C.2       15 UNK         0.5000 
     88 O          -5.1777  -21.7328  -50.8962 O.2       15 UNK        -0.5000 
     89 N          -6.6968  -22.4343  -49.3578 N.am      16 UNK        -0.5000 
     90 CA         -7.7880  -21.4786  -49.5649 C.3       16 UNK         0.1400 
     91 CB         -8.5117  -21.7984  -50.8908 C.3       16 UNK        -0.1800 
     92 C          -7.3668  -19.9987  -49.4596 C.2       16 UNK         0.5000 
     93 O          -7.7800  -19.1880  -50.2880 O.2       16 UNK        -0.5000 
     94 N          -6.5431  -19.6676  -48.4535 N.am      17 UNK        -0.5000 
     95 CA         -5.9710  -18.3340  -48.2100 C.3       17 UNK         0.1400 
     96 CB         -7.0671  -17.3217  -47.8108 C.3       17 UNK        -0.1800 
     97 C          -5.1129  -17.8608  -49.4016 C.2       17 UNK         0.5000 
     98 O          -5.2811  -16.7464  -49.8980 O.2       17 UNK        -0.5000 
     99 N          -4.2431  -18.7699  -49.8568 N.am      18 UNK        -0.5000 
    100 CA        -3.3531  -18.6998  -51.0175 C.3       18 UNK         0.1400 
    101 CB        -2.4517  -17.4461  -50.9836 C.3       18 UNK        -0.1800 
    102 C         -4.0538  -18.8320  -52.3828 C.2       18 UNK         0.5000 
    103 O         -3.3463  -18.9440  -53.3841 O.2       18 UNK        -0.5000 
    104 N         -5.3943  -18.8432  -52.4391 N.am      19 UNK        -0.5000 
    105 CA        -6.1615  -18.8711  -53.6897 C.3       19 UNK         0.1400 
    106 CB        -7.6429  -18.5874  -53.4046 C.3       19 UNK        -0.1800 
    107 C         -6.0092  -20.1754  -54.4949 C.2       19 UNK         0.5000 
    108 O         -6.1585  -20.1412  -55.7169 O.2       19 UNK        -0.5000 
    109 N         -5.6940  -21.2865  -53.8151 N.am      20 UNK        -0.5000 
    110 CA        -5.3706  -22.5718  -54.4396 C.3       20 UNK         0.1400 
    111 CB        -6.0863  -23.6995  -53.6767 C.3       20 UNK        -0.1800 
    112 C         -3.8464  -22.8048  -54.5273 C.2       20 UNK         0.5000 
    113 O         -3.4275  -23.8967  -54.9146 O.2       20 UNK        -0.5000 
    114 N         -3.0469  -21.7889  -54.1767 N.am      21 UNK        -0.5000 
    115 CA        -1.5930  -21.7610  -54.2881 C.3       21 UNK         0.1400 
    116 CB        -0.9774  -21.6501  -52.8777 C.3       21 UNK        -0.1800 
    117 C         -1.2005  -20.6173  -55.2449 C.2       21 UNK         0.5000 
    118 O         -1.7193  -20.5652  -56.3622 O.2       21 UNK        -0.5000 
    119 N         -0.2886  -19.7379  -54.8144 N.am      22 UNK        -0.5000 
    120 CA         0.2662  -18.6310  -55.6127 C.3       22 UNK         0.1400 
    121 C         -0.6299  -17.3599  -55.7053 C.2       22 UNK         0.5000 
    122 N         -1.7836  -17.2872  -55.0555 N.am      22 UNK        -0.7600 
    123 O         -0.2733  -16.4116  -56.3997 O.2       22 UNK        -0.5000 
    124 C124        1.7030  -18.2681  -55.1558 C.3       23 UNK        -0.0398 
    125 S125        2.8518  -19.6775  -55.3178 S.3       23 UNK        -0.2404 
    126 C126        4.0371  -19.3488  -53.9748 C.3       23 UNK        -0.0205 
    127 H127        1.0098  -13.2099  -51.8830 H         1 UNK         0.0600 
    128 H128        1.3563  -11.5092  -51.5572 H         1 UNK         0.0600 
    129 H129       -0.3167  -12.0580  -51.7064 H         1 UNK         0.0600 
    130 H130        1.2689  -14.4937  -50.0785 H         1 UNK         0.3000 
    131 H131        1.4178  -13.4604  -47.4142 H         1 UNK         0.0600 
    132 H132        2.8455  -15.2693  -47.9596 H         1 UNK         0.0800 
    133 H133        1.7381  -15.8666  -46.7731 H         1 UNK         0.0800 
    134 H134        3.4959  -17.8944  -48.4533 H         1 UNK         0.0800 
    135 H135        3.6215  -16.7145  -49.7378 H         1 UNK         0.0800 
    136 H136        3.8547  -17.5238  -51.9548 H         1 UNK         0.1150 
    137 H137        2.9081  -21.5917  -52.9160 H         1 UNK         0.1150 
    138 H138        2.0327  -20.0451  -49.0130 H         1 UNK         0.1150 
    139 H139        0.7345  -22.1587  -50.2945 H         1 UNK         0.0800 
    140 H140        1.8249  -23.0081  -51.3594 H         1 UNK         0.0800 
    141 H141        2.1619  -25.2832  -48.4941 H         1 UNK         0.0800 
    142 H142        0.8873  -24.6544  -49.4769 H         1 UNK         0.0800 
    143 H143        0.3358  -25.1194  -47.0124 H         1 UNK         0.0600 
    144 H144        1.2843  -22.6609  -45.9229 H         1 UNK         0.3000 
    145 H145        3.6529  -24.3035  -43.8301 H         1 UNK         0.0600 
    146 H146        5.3460  -22.6389  -44.5555 H         1 UNK         0.0600 
    147 H147        5.1864  -23.9046  -45.7629 H         1 UNK         0.0600 
    148 H148        4.4460  -22.3332  -46.0419 H         1 UNK         0.0600 
    149 H149        3.0158  -21.5221  -44.2449 H         1 UNK         0.3000 
    150 H150        0.1096  -21.3586  -42.3638 H         1 UNK         0.0600 
    151 H151        1.6502  -21.6154  -40.4129 H         1 UNK         0.0600 
    152 H152        1.2944  -19.9241  -40.7300 H         1 UNK         0.0600 
    153 H153        2.8464  -20.6043  -41.2167 H         1 UNK         0.0600 
    154 H154        1.6648  -19.1920  -42.9932 H         1 UNK         0.3000 
    155 H155        1.4667  -18.9488  -46.4702 H         1 UNK         0.0600 
    156 H156       -0.9699  -18.5205  -45.8179 H         1 UNK         0.0600 
    157 H157       -0.0845  -17.0633  -46.1898 H         1 UNK         0.0600 
    158 H158       -0.3895  -17.5013  -44.5174 H         1 UNK         0.0600 
    159 H159        1.9663  -17.2204  -44.1486 H         1 UNK         0.3000 
    160 H160        5.4707  -17.5858  -44.3056 H         1 UNK         0.0600 
    161 H161        5.5895  -15.2145  -44.9788 H         1 UNK         0.0600 
    162 H162        5.1573  -16.1932  -46.3714 H         1 UNK         0.0600 
    163 H163        3.9218  -15.2485  -45.5474 H         1 UNK         0.0600 
    164 H164        3.6424  -15.6245  -43.1709 H         1 UNK         0.3000 
    165 H165        3.0149  -17.4089  -40.1807 H         1 UNK         0.0600 
    166 H166        3.9395  -15.3903  -39.0879 H         1 UNK         0.0600 
    167 H167        5.2484  -16.3731  -39.7232 H         1 UNK         0.0600 
    168 H168        4.7557  -14.9165  -40.5786 H         1 UNK         0.0600 
    169 H169        2.2467  -14.8016  -40.8218 H         1 UNK         0.3000 
    170 H170       -0.2283  -14.6489  -41.1600 H         1 UNK         0.0600 
    171 H171        1.3545  -13.5250  -42.7211 H         1 UNK         0.0600 
    172 H172        0.8380  -14.5618  -44.0453 H         1 UNK         0.0600 
    173 H173       -0.2759  -13.3853  -43.3538 H         1 UNK         0.0600 
    174 H174       -1.2996  -15.7288  -43.6372 H         1 UNK         0.3000 
    175 H175       -2.2416  -18.2837  -43.2335 H         1 UNK         0.0600 
    176 H176       -4.5559  -18.9236  -42.5615 H         1 UNK         0.0600 
    177 H177       -3.4625  -18.8987  -41.1895 H         1 UNK         0.0600 
    178 H178       -4.6015  -17.5788  -41.4218 H         1 UNK         0.0600 
    179 H179       -3.3499  -17.2364  -44.8426 H         1 UNK         0.3000 
    180 H180       -5.5144  -16.4664  -45.5255 H         1 UNK         0.0600 
    181 H181       -6.0925  -13.6191  -44.5661 H         1 UNK         0.0600 
    182 H182       -7.0327  -15.0480  -44.1517 H         1 UNK         0.0600 
    183 H183       -6.9704  -14.4984  -45.8170 H         1 UNK         0.0600 
    184 H184       -4.5282  -13.9211  -46.3860 H         1 UNK         0.3000 
    185 H185       -3.3015  -15.1693  -49.0573 H         1 UNK         0.0600 
    186 H186       -4.4413  -13.1393  -48.2401 H         1 UNK         0.0600 
    187 H187       -3.0068  -12.6612  -47.3253 H         1 UNK         0.0600 
    188 H188       -2.9715  -12.7021  -49.0821 H         1 UNK         0.0600 
    189 H189       -1.1189  -14.9736  -49.2770 H         1 UNK         0.3000 
    190 H190        0.5412  -21.6254  -47.8126 H         1 UNK         0.3000 
    191 H191       -1.8919  -21.4625  -49.1950 H         1 UNK         0.0600 
    192 H192       -0.0667  -19.4433  -47.9152 H         1 UNK         0.0600 
    193 H193       -1.6106  -18.9215  -48.5371 H         1 UNK         0.0600 
    194 H194       -0.4496  -19.6899  -49.6105 H         1 UNK         0.0600 
    195 H195       -1.3587  -21.2958  -45.7302 H         1 UNK         0.3000 
    196 H196       -3.8682  -20.2681  -44.9005 H         1 UNK         0.0600 
    197 H197       -3.2788  -21.3493  -42.7284 H         1 UNK         0.0600 
    198 H198       -1.8816  -20.5314  -43.4100 H         1 UNK         0.0600 
    199 H199       -2.0111  -22.2828  -43.5169 H         1 UNK         0.0600 
    200 H200       -2.9186  -23.5191  -45.9515 H         1 UNK         0.3000 
    201 H201       -5.5643  -24.6929  -45.3037 H         1 UNK         0.0600 
    202 H202       -3.5401  -26.0580  -44.8406 H         1 UNK         0.0600 
    203 H203       -3.0415  -25.9347  -46.5264 H         1 UNK         0.0600 
    204 H204       -4.5162  -26.7941  -46.1023 H         1 UNK         0.0600 
    205 H205       -3.4619  -23.8424  -48.0757 H         1 UNK         0.3000 
    206 H206       -5.3462  -24.6639  -50.0976 H         1 UNK         0.0600 
    207 H207       -2.8857  -24.8208  -50.3840 H         1 UNK         0.0600 
    208 H208       -3.6143  -23.8517  -51.6507 H         1 UNK         0.0600 
    209 H209       -2.7560  -23.0685  -50.3412 H         1 UNK         0.0600 
    210 H210       -6.8780  -23.1648  -48.6749 H         1 UNK         0.3000 
    211 H211       -8.4987  -21.6459  -48.7546 H         1 UNK         0.0600 
    212 H212       -7.8654  -21.6340  -51.7534 H         1 UNK         0.0600 
    213 H213       -9.3957  -21.1727  -51.0190 H         1 UNK         0.0600 
    214 H214       -8.8450  -22.8358  -50.9176 H         1 UNK         0.0600 
    215 H215       -6.1851  -20.4096  -47.8664 H         1 UNK         0.3000 
    216 H216       -5.2898  -18.4326  -47.3634 H         1 UNK         0.0600 
    217 H217       -6.6391  -16.3397  -47.6110 H         1 UNK         0.0600 
    218 H218       -7.5885  -17.6415  -46.9089 H         1 UNK         0.0600 
    219 H219       -7.8092  -17.1873  -48.5976 H         1 UNK         0.0600 
    220 H220       -4.2237  -19.6541  -49.3573 H         1 UNK         0.3000 
    221 H221       -2.7086  -19.5735  -50.9271 H         1 UNK         0.0600 
    222 H222       -3.0044  -16.5450  -51.2504 H         1 UNK         0.0600 
    223 H223       -2.0104  -17.2832  -50.0020 H         1 UNK         0.0600 
    224 H224       -1.6306  -17.5411  -51.6954 H         1 UNK         0.0600 
    225 H225       -5.9257  -18.7843  -51.5796 H         1 UNK         0.3000 
    226 H226       -5.7840  -18.0599  -54.3160 H         1 UNK         0.0600 
    227 H227       -8.1969  -18.4499  -54.3339 H         1 UNK         0.0600 
    228 H228       -8.1137  -19.4104  -52.8673 H         1 UNK         0.0600 
    229 H229       -7.7688  -17.6805  -52.8128 H         1 UNK         0.0600 
    230 H230       -5.5691  -21.2336  -52.8074 H         1 UNK         0.3000 
    231 H231       -5.7434  -22.5937  -55.4653 H         1 UNK         0.0600 
    232 H232       -7.1616  -23.5252  -53.6357 H         1 UNK         0.0600 
    233 H233       -5.7256  -23.7938  -52.6555 H         1 UNK         0.0600 
    234 H234       -5.9337  -24.6620  -54.1661 H         1 UNK         0.0600 
    235 H235       -3.4718  -20.9002  -53.9369 H         1 UNK         0.3000 
    236 H236       -1.2257  -22.6827  -54.7433 H         1 UNK         0.0600 
    237 H237        0.1109  -21.6898  -52.9226 H         1 UNK         0.0600 
    238 H238       -1.2603  -20.7243  -52.3777 H         1 UNK         0.0600 
    239 H239       -1.2981  -22.4789  -52.2475 H         1 UNK         0.0600 
    240 H240        0.0852  -19.8394  -53.8830 H         1 UNK         0.3000 
    241 H241        0.3465  -18.9849  -56.6424 H         1 UNK         0.0600 
    242 H242       -2.1405  -18.0569  -54.4956 H         1 UNK         0.3800 
    243 H243       -2.3379  -16.4519  -55.1464 H         1 UNK         0.3800 
    244 H244        2.1083  -17.4501  -55.7538 H         1 UNK         0.0800 
    245 H245        1.6894  -17.9152  -54.1235 H         1 UNK         0.0800 
    246 H246        4.8819  -20.0305  -54.0808 H         1 UNK         0.0800 
    247 H247        4.4402  -18.3421  -54.0954 H         1 UNK         0.0800 
@<TRIPOS>BOND
     1    1    2 1    
     2    1  127 1    
     3    1  128 1    
     4    1  129 1    
     5    2    3 2    
     6    2    4 am   BACKBONE|DICT|INTERRES
     7    4    5 1    
     8    4  130 1    
     9    5    6 1    
    10    5   65 1    
    11    5  131 1    
    12    6    7 1    
    13    6  132 1    
    14    6  133 1    
    15    7    8 1    
    16    8    9 1    
    17    8  134 1    
    18    8  135 1    
    19    9   10 ar   
    20    9   14 ar   
    21   10   11 ar   
    22   10  136 1    
    23   11   12 ar   
    24   11  126 1    
    25   12   13 ar   
    26   12  137 1    
    27   13   14 ar   
    28   13   15 1    
    29   14  138 1    
    30   15   16 1    
    31   15  139 1    
    32   15  140 1    
    33   16   17 1    
    34   17   18 1    
    35   17  141 1    
    36   17  142 1    
    37   18   19 1    
    38   18   67 1    
    39   18  143 1    
    40   19   20 am   BACKBONE|DICT|INTERRES
    41   19  144 1    
    42   20   21 2    
    43   20   22 1    
    44   22   23 1    
    45   22   24 1    
    46   22  145 1    
    47   23  146 1    
    48   23  147 1    
    49   23  148 1    
    50   24   25 am   BACKBONE|DICT|INTERRES
    51   24  149 1    
    52   25   26 2    
    53   25   27 1    
    54   27   28 1    
    55   27   29 1    
    56   27  150 1    
    57   28  151 1    
    58   28  152 1    
    59   28  153 1    
    60   29   30 am   BACKBONE|DICT|INTERRES
    61   29  154 1    
    62   30   31 2    
    63   30   32 1    
    64   32   33 1    
    65   32   34 1    
    66   32  155 1    
    67   33  156 1    
    68   33  157 1    
    69   33  158 1    
    70   34   35 am   BACKBONE|DICT|INTERRES
    71   34  159 1    
    72   35   36 2    
    73   35   37 1    
    74   37   38 1    
    75   37   39 1    
    76   37  160 1    
    77   38  161 1    
    78   38  162 1    
    79   38  163 1    
    80   39   40 am   BACKBONE|DICT|INTERRES
    81   39  164 1    
    82   40   41 2    
    83   40   42 1    
    84   42   43 1    
    85   42   44 1    
    86   42  165 1    
    87   43  166 1    
    88   43  167 1    
    89   43  168 1    
    90   44   45 am   BACKBONE|DICT|INTERRES
    91   44  169 1    
    92   45   46 2    
    93   45   47 1    
    94   47   48 1    
    95   47   49 1    
    96   47  170 1    
    97   48  171 1    
    98   48  172 1    
    99   48  173 1    
   100   49   50 am   BACKBONE|DICT|INTERRES
   101   49  174 1    
   102   50   51 2    
   103   50   52 1    
   104   52   53 1    
   105   52   54 1    
   106   52  175 1    
   107   53  176 1    
   108   53  177 1    
   109   53  178 1    
   110   54   55 am   BACKBONE|DICT|INTERRES
   111   54  179 1    
   112   55   56 2    
   113   55   57 1    
   114   57   58 1    
   115   57   59 1    
   116   57  180 1    
   117   58  181 1    
   118   58  182 1    
   119   58  183 1    
   120   59   60 am   BACKBONE|DICT|INTERRES
   121   59  184 1    
   122   60   61 2    
   123   60   62 1    
   124   62   63 1    
   125   62   64 1    
   126   62  185 1    
   127   63  186 1    
   128   63  187 1    
   129   63  188 1    
   130   64   65 am   BACKBONE|DICT|INTERRES
   131   64  189 1    
   132   65   66 2    
   133   67   68 2    
   134   67   69 am   BACKBONE|DICT|INTERRES
   135   69   70 1    
   136   69  190 1    
   137   70   71 1    
   138   70   72 1    
   139   70  191 1    
   140   71  192 1    
   141   71  193 1    
   142   71  194 1    
   143   72   73 2    
   144   72   74 am   BACKBONE|DICT|INTERRES
   145   74   75 1    
   146   74  195 1    
   147   75   76 1    
   148   75   77 1    
   149   75  196 1    
   150   76  197 1    
   151   76  198 1    
   152   76  199 1    
   153   77   78 2    
   154   77   79 am   BACKBONE|DICT|INTERRES
   155   79   80 1    
   156   79  200 1    
   157   80   81 1    
   158   80   82 1    
   159   80  201 1    
   160   81  202 1    
   161   81  203 1    
   162   81  204 1    
   163   82   83 2    
   164   82   84 am   BACKBONE|DICT|INTERRES
   165   84   85 1    
   166   84  205 1    
   167   85   86 1    
   168   85   87 1    
   169   85  206 1    
   170   86  207 1    
   171   86  208 1    
   172   86  209 1    
   173   87   88 2    
   174   87   89 am   BACKBONE|DICT|INTERRES
   175   89   90 1    
   176   89  210 1    
   177   90   91 1    
   178   90   92 1    
   179   90  211 1    
   180   91  212 1    
   181   91  213 1    
   182   91  214 1    
   183   92   93 2    
   184   92   94 am   BACKBONE|DICT|INTERRES
   185   94   95 1    
   186   94  215 1    
   187   95   96 1    
   188   95   97 1    
   189   95  216 1    
   190   96  217 1    
   191   96  218 1    
   192   96  219 1    
   193   97   98 2    
   194   97   99 am   BACKBONE|DICT|INTERRES
   195   99  100 1    
   196   99  220 1    
   197  100  101 1    
   198  100  102 1    
   199  100  221 1    
   200  101  222 1    
   201  101  223 1    
   202  101  224 1    
   203  102  103 2    
   204  102  104 am   BACKBONE|DICT|INTERRES
   205  104  105 1    
   206  104  225 1    
   207  105  106 1    
   208  105  107 1    
   209  105  226 1    
   210  106  227 1    
   211  106  228 1    
   212  106  229 1    
   213  107  108 2    
   214  107  109 am   BACKBONE|DICT|INTERRES
   215  109  110 1    
   216  109  230 1    
   217  110  111 1    
   218  110  112 1    
   219  110  231 1    
   220  111  232 1    
   221  111  233 1    
   222  111  234 1    
   223  112  113 2    
   224  112  114 am   BACKBONE|DICT|INTERRES
   225  114  115 1    
   226  114  235 1    
   227  115  116 1    
   228  115  117 1    
   229  115  236 1    
   230  116  237 1    
   231  116  238 1    
   232  116  239 1    
   233  117  118 2    
   234  117  119 am   BACKBONE|DICT|INTERRES
   235  119  120 1    
   236  119  240 1    
   237  120  121 1    
   238  120  124 1    
   239  120  241 1    
   240  121  122 am   BACKBONE|DICT|INTERRES
   241  121  123 2    
   242  122  242 1    
   243  122  243 1    
   244  124  125 1    
   245  124  244 1    
   246  124  245 1    
   247  125  126 1    
   248  126  246 1    
   249  126  247 1    
@<TRIPOS>SUBSTRUCTURE
     1 UNK         1 GROUP             0       ****    0 ROOT    
