@<TRIPOS>MOLECULE
3R540
247   249    1
SMALL
USER_CHARGES


@<TRIPOS>ATOM
      1 CA         -3.1038   -9.4045  -47.1434 C.3       0 UNK        -0.1800 
      2 C          -1.7540  -10.0992  -47.0319 C.2       0 UNK         0.5000 
      3 O          -0.8153   -9.5351  -46.4673 O.2       0 UNK        -0.5000 
      4 N          -1.6520  -11.3278  -47.5538 N.am      1 UNK        -0.5000 
      5 CA         -0.4422  -12.1606  -47.5555 C.3       1 UNK         0.1400 
      6 C6         -0.4391  -13.1789  -48.7226 C.3       23 UNK        -0.0398 
      7 S7         -0.4507  -12.3735  -50.3623 S.3       23 UNK        -0.2404 
      8 C8         -2.1927  -12.5421  -50.8717 C.3       23 UNK        -0.0205 
      9 C9         -2.6142  -13.9973  -51.0106 C.ar      23 UNK        -0.0193 
     10 C10        -2.1179  -14.7747  -52.0593 C.ar      23 UNK        -0.1150 
     11 C11        -2.4957  -16.1133  -52.1901 C.ar      23 UNK        -0.0193 
     12 C12        -3.3692  -16.6783  -51.2560 C.ar      23 UNK        -0.1150 
     13 C13        -3.8732  -15.9109  -50.2009 C.ar      23 UNK        -0.0193 
     14 C14        -3.5021  -14.5667  -50.0937 C.ar      23 UNK        -0.1150 
     15 C15        -4.8486  -16.5264  -49.2057 C.3       23 UNK        -0.0205 
     16 S16        -4.3820  -16.2513  -47.4628 S.3       23 UNK        -0.2404 
     17 C17        -2.8171  -17.1882  -47.3113 C.3       23 UNK        -0.0398 
     18 CA         -2.8821  -18.7272  -47.5233 C.3       11 UNK         0.1400 
     19 N          -1.6551  -19.3776  -47.0613 N.am      11 UNK        -0.5000 
     20 C          -1.3209  -20.6532  -47.3003 C.2       10 UNK         0.5000 
     21 O          -1.9784  -21.4181  -48.0065 O.2       10 UNK        -0.5000 
     22 CA         -0.0624  -21.1817  -46.5908 C.3       10 UNK         0.1400 
     23 CB          1.2041  -20.7836  -47.3622 C.3       10 UNK        -0.1800 
     24 N           0.0368  -20.7355  -45.1989 N.am      10 UNK        -0.5000 
     25 C          -0.8568  -21.0383  -44.2451 C.2       9 UNK         0.5000 
     26 O          -1.8493  -21.7378  -44.4380 O.2       9 UNK        -0.5000 
     27 CA         -0.6351  -20.4314  -42.8507 C.3       9 UNK         0.1400 
     28 CB          0.4603  -21.1955  -42.0924 C.3       9 UNK        -0.1800 
     29 N          -0.3081  -19.0079  -42.8971 N.am      9 UNK        -0.5000 
     30 C          -1.1158  -18.0499  -43.3756 C.2       8 UNK         0.5000 
     31 O          -2.2458  -18.2580  -43.8171 O.2       8 UNK        -0.5000 
     32 CA         -0.5378  -16.6243  -43.4171 C.3       8 UNK         0.1400 
     33 CB         -0.5171  -16.0056  -42.0098 C.3       8 UNK        -0.1800 
     34 N           0.8064  -16.5915  -43.9922 N.am      8 UNK        -0.5000 
     35 C           1.1164  -17.0025  -45.2320 C.2       7 UNK         0.5000 
     36 O           0.3003  -17.4420  -46.0435 O.2       7 UNK        -0.5000 
     37 CA          2.6088  -16.9837  -45.5978 C.3       7 UNK         0.1400 
     38 CB          3.0753  -15.5611  -45.9478 C.3       7 UNK        -0.1800 
     39 N           3.4335  -17.5317  -44.5196 N.am      7 UNK        -0.5000 
     40 C           3.4219  -18.8187  -44.1403 C.2       6 UNK         0.5000 
     41 O           2.7425  -19.6879  -44.6852 O.2       6 UNK        -0.5000 
     42 CA          4.2823  -19.1882  -42.9187 C.3       6 UNK         0.1400 
     43 CB          5.7466  -19.4015  -43.3303 C.3       6 UNK        -0.1800 
     44 N           4.2167  -18.1796  -41.8610 N.am      6 UNK        -0.5000 
     45 C           3.1129  -17.8868  -41.1585 C.2       5 UNK         0.5000 
     46 O           2.0375  -18.4660  -41.3007 O.2       5 UNK        -0.5000 
     47 CA          3.2162  -16.7145  -40.1663 C.3       5 UNK         0.1400 
     48 CB          3.7067  -17.2070  -38.7968 C.3       5 UNK        -0.1800 
     49 N           4.0900  -15.6373  -40.6398 N.am      5 UNK        -0.5000 
     50 C           3.8612  -14.9073  -41.7381 C.2       4 UNK         0.5000 
     51 O           2.8908  -15.0734  -42.4852 O.2       4 UNK        -0.5000 
     52 CA          4.9142  -13.8481  -42.0851 C.3       4 UNK         0.1400 
     53 CB          6.0440  -14.4607  -42.9286 C.3       4 UNK        -0.1800 
     54 N           4.2519  -12.8054  -42.8529 N.am      4 UNK        -0.5000 
     55 C           4.4089  -11.4871  -42.6996 C.2       3 UNK         0.5000 
     56 O           5.2564  -10.9771  -41.9655 O.2       3 UNK        -0.5000 
     57 CA          3.4424  -10.5822  -43.4921 C.3       3 UNK         0.1400 
     58 CB          4.1403  -10.0076  -44.7345 C.3       3 UNK        -0.1800 
     59 N           2.2178  -11.2702  -43.9148 N.am      3 UNK        -0.5000 
     60 C           1.2401  -11.6860  -43.0953 C.2       2 UNK         0.5000 
     61 O           1.2419  -11.4847  -41.8803 O.2       2 UNK        -0.5000 
     62 CA          0.0823  -12.4605  -43.7502 C.3       2 UNK         0.1400 
     63 CB         -1.2475  -12.3175  -42.9881 C.3       2 UNK        -0.1800 
     64 N          -0.1055  -12.0371  -45.1364 N.am      2 UNK        -0.5000 
     65 C          -0.2579  -12.8498  -46.1859 C.2       1 UNK         0.5000 
     66 O          -0.2742  -14.0773  -46.0994 O.2       1 UNK        -0.5000 
     67 C          -4.1276  -19.4019  -46.9053 C.2       11 UNK         0.5000 
     68 O          -5.0143  -19.8233  -47.6495 O.2       11 UNK        -0.5000 
     69 N          -4.1547  -19.5303  -45.5702 N.am      12 UNK        -0.5000 
     70 CA         -5.2621  -20.1177  -44.8105 C.3       12 UNK         0.1400 
     71 CB         -4.9933  -19.9573  -43.3067 C.3       12 UNK        -0.1800 
     72 C          -5.5374  -21.5932  -45.1552 C.2       12 UNK         0.5000 
     73 O          -6.6999  -21.9886  -45.2497 O.2       12 UNK        -0.5000 
     74 N          -4.4679  -22.3722  -45.3583 N.am      13 UNK        -0.5000 
     75 CA         -4.5262  -23.7807  -45.7461 C.3       13 UNK         0.1400 
     76 CB         -3.2179  -24.4673  -45.3212 C.3       13 UNK        -0.1800 
     77 C          -4.7680  -23.9955  -47.2518 C.2       13 UNK         0.5000 
     78 O          -4.9476  -25.1438  -47.6555 O.2       13 UNK        -0.5000 
     79 N          -4.7208  -22.9261  -48.0623 N.am      14 UNK        -0.5000 
     80 CA         -4.8132  -22.9272  -49.5284 C.3       14 UNK         0.1400 
     81 CB         -6.2390  -23.3059  -49.9772 C.3       14 UNK        -0.1800 
     82 C          -3.7204  -23.8036  -50.1792 C.2       14 UNK         0.5000 
     83 O          -4.0147  -24.6354  -51.0410 O.2       14 UNK        -0.5000 
     84 N          -2.4828  -23.6304  -49.6901 N.am      15 UNK        -0.5000 
     85 CA         -1.2789  -24.4056  -50.0081 C.3       15 UNK         0.1400 
     86 CB         -0.8104  -24.1121  -51.4455 C.3       15 UNK        -0.1800 
     87 C          -1.4493  -25.9142  -49.7227 C.2       15 UNK         0.5000 
     88 O          -1.0245  -26.7470  -50.5240 O.2       15 UNK        -0.5000 
     89 N          -2.0860  -26.2215  -48.5821 N.am      16 UNK        -0.5000 
     90 CA         -2.4983  -27.5520  -48.1210 C.3       16 UNK         0.1400 
     91 CB         -1.2795  -28.4656  -47.8714 C.3       16 UNK        -0.1800 
     92 C          -3.5616  -28.1759  -49.0487 C.2       16 UNK         0.5000 
     93 O          -3.4120  -29.3163  -49.4918 O.2       16 UNK        -0.5000 
     94 N          -4.6189  -27.3931  -49.3111 N.am      17 UNK        -0.5000 
     95 CA         -5.7827  -27.6937  -50.1493 C.3       17 UNK         0.1400 
     96 CB         -6.6792  -28.7432  -49.4607 C.3       17 UNK        -0.1800 
     97 C          -5.3963  -28.0771  -51.5922 C.2       17 UNK         0.5000 
     98 O          -5.8234  -29.1194  -52.0945 O.2       17 UNK        -0.5000 
     99 N          -4.5750  -27.2321  -52.2239 N.am      18 UNK        -0.5000 
    100 CA        -4.0421  -27.4444  -53.5635 C.3       18 UNK         0.1400 
    101 CB        -2.6847  -28.1718  -53.4730 C.3       18 UNK        -0.1800 
    102 C         -3.9941  -26.0988  -54.2995 C.2       18 UNK         0.5000 
    103 O         -5.0361  -25.6246  -54.7567 O.2       18 UNK        -0.5000 
    104 N         -2.7968  -25.5126  -54.4201 N.am      19 UNK        -0.5000 
    105 CA        -2.5164  -24.2596  -55.1195 C.3       19 UNK         0.1400 
    106 CB        -1.0057  -24.1827  -55.4074 C.3       19 UNK        -0.1800 
    107 C         -3.0323  -23.0224  -54.3560 C.2       19 UNK         0.5000 
    108 O         -2.2382  -22.2087  -53.8837 O.2       19 UNK        -0.5000 
    109 N         -4.3610  -22.8815  -54.2760 N.am      20 UNK        -0.5000 
    110 CA        -5.0693  -21.7581  -53.6522 C.3       20 UNK         0.1400 
    111 CB        -6.5802  -22.0258  -53.7275 C.3       20 UNK        -0.1800 
    112 C         -4.7422  -20.3890  -54.2849 C.2       20 UNK         0.5000 
    113 O         -4.7918  -19.3707  -53.5961 O.2       20 UNK        -0.5000 
    114 N         -4.3925  -20.4019  -55.5785 N.am      21 UNK        -0.5000 
    115 CA        -3.9383  -19.2474  -56.3543 C.3       21 UNK         0.1400 
    116 CB        -4.2995  -19.4866  -57.8300 C.3       21 UNK        -0.1800 
    117 C         -2.4280  -18.9601  -56.2001 C.2       21 UNK         0.5000 
    118 O         -1.9401  -18.0113  -56.8147 O.2       21 UNK        -0.5000 
    119 N         -1.7136  -19.7698  -55.4033 N.am      22 UNK        -0.5000 
    120 CA        -0.2641  -19.6979  -55.1365 C.3       22 UNK         0.1400 
    121 C          0.6405  -20.0941  -56.3454 C.2       22 UNK         0.5000 
    122 N          0.1106  -20.6858  -57.4095 N.am      22 UNK        -0.7600 
    123 O          1.8520  -19.8949  -56.3103 O.2       22 UNK        -0.5000 
    124 C124        0.1833  -18.3613  -54.4756 C.3       23 UNK        -0.0398 
    125 S125       -0.6141  -18.0294  -52.8650 S.3       23 UNK        -0.2404 
    126 C126       -1.9816  -16.9358  -53.3583 C.3       23 UNK        -0.0205 
    127 H127       -3.4964   -9.1857  -46.1502 H         1 UNK         0.0600 
    128 H128       -3.8341  -10.0195  -47.6703 H         1 UNK         0.0600 
    129 H129       -2.9975   -8.4639  -47.6844 H         1 UNK         0.0600 
    130 H130       -2.4688  -11.7524  -47.9669 H         1 UNK         0.3000 
    131 H131        0.4251  -11.5106  -47.6949 H         1 UNK         0.0600 
    132 H132        0.4621  -13.7940  -48.6813 H         1 UNK         0.0800 
    133 H133       -1.2736  -13.8741  -48.6287 H         1 UNK         0.0800 
    134 H134       -2.8324  -12.0162  -50.1622 H         1 UNK         0.0800 
    135 H135       -2.3278  -12.0393  -51.8303 H         1 UNK         0.0800 
    136 H136       -1.4365  -14.3339  -52.7736 H         1 UNK         0.1150 
    137 H137       -3.6630  -17.7137  -51.3629 H         1 UNK         0.1150 
    138 H138       -3.8987  -13.9675  -49.2863 H         1 UNK         0.1150 
    139 H139       -5.8322  -16.0860  -49.3731 H         1 UNK         0.0800 
    140 H140       -4.9633  -17.5966  -49.3827 H         1 UNK         0.0800 
    141 H141       -2.4362  -16.9760  -46.3112 H         1 UNK         0.0800 
    142 H142       -2.0853  -16.7547  -47.9947 H         1 UNK         0.0800 
    143 H143       -2.9409  -18.8964  -48.6007 H         1 UNK         0.0600 
    144 H144       -1.0265  -18.8090  -46.5000 H         1 UNK         0.3000 
    145 H145       -0.1243  -22.2718  -46.5836 H         1 UNK         0.0600 
    146 H146        2.0910  -21.2432  -46.9259 H         1 UNK         0.0600 
    147 H147        1.1478  -21.1085  -48.4020 H         1 UNK         0.0600 
    148 H148        1.3529  -19.7033  -47.3618 H         1 UNK         0.0600 
    149 H149        0.8510  -20.1781  -44.9576 H         1 UNK         0.3000 
    150 H150       -1.5676  -20.5368  -42.2927 H         1 UNK         0.0600 
    151 H151        0.2334  -22.2613  -42.0457 H         1 UNK         0.0600 
    152 H152        0.5512  -20.8376  -41.0668 H         1 UNK         0.0600 
    153 H153        1.4336  -21.0864  -42.5718 H         1 UNK         0.0600 
    154 H154        0.5962  -18.7420  -42.5160 H         1 UNK         0.3000 
    155 H155       -1.1820  -16.0134  -44.0532 H         1 UNK         0.0600 
    156 H156       -1.5283  -15.9195  -41.6106 H         1 UNK         0.0600 
    157 H157       -0.0825  -15.0074  -42.0139 H         1 UNK         0.0600 
    158 H158        0.0592  -16.6101  -41.3099 H         1 UNK         0.0600 
    159 H159        1.5483  -16.2280  -43.4027 H         1 UNK         0.3000 
    160 H160        2.7454  -17.6113  -46.4811 H         1 UNK         0.0600 
    161 H161        2.4984  -15.1612  -46.7828 H         1 UNK         0.0600 
    162 H162        2.9524  -14.8727  -45.1122 H         1 UNK         0.0600 
    163 H163        4.1248  -15.5498  -46.2418 H         1 UNK         0.0600 
    164 H164        3.9768  -16.8731  -43.9828 H         1 UNK         0.3000 
    165 H165        3.9004  -20.1281  -42.5146 H         1 UNK         0.0600 
    166 H166        6.3477  -19.7406  -42.4863 H         1 UNK         0.0600 
    167 H167        5.8256  -20.1606  -44.1098 H         1 UNK         0.0600 
    168 H168        6.1961  -18.4859  -43.7167 H         1 UNK         0.0600 
    169 H169        5.0582  -17.6547  -41.6755 H         1 UNK         0.3000 
    170 H170        2.2137  -16.3003  -40.0406 H         1 UNK         0.0600 
    171 H171        3.0604  -17.9973  -38.4123 H         1 UNK         0.0600 
    172 H172        4.7195  -17.6082  -38.8508 H         1 UNK         0.0600 
    173 H173        3.7028  -16.4008  -38.0631 H         1 UNK         0.0600 
    174 H174        4.9108  -15.4460  -40.0831 H         1 UNK         0.3000 
    175 H175        5.3218  -13.4404  -41.1576 H         1 UNK         0.0600 
    176 H176        5.6666  -14.8910  -43.8573 H         1 UNK         0.0600 
    177 H177        6.7893  -13.7090  -43.1892 H         1 UNK         0.0600 
    178 H178        6.5586  -15.2520  -42.3824 H         1 UNK         0.0600 
    179 H179        3.4841  -13.1364  -43.4208 H         1 UNK         0.3000 
    180 H180        3.1605   -9.7523  -42.8407 H         1 UNK         0.0600 
    181 H181        3.4898   -9.3139  -45.2675 H         1 UNK         0.0600 
    182 H182        4.4362  -10.7942  -45.4298 H         1 UNK         0.0600 
    183 H183        5.0412   -9.4584  -44.4577 H         1 UNK         0.0600 
    184 H184        2.1326  -11.4731  -44.8999 H         1 UNK         0.3000 
    185 H185        0.3824  -13.5094  -43.7248 H         1 UNK         0.0600 
    186 H186       -1.5838  -11.2804  -42.9624 H         1 UNK         0.0600 
    187 H187       -2.0318  -12.9135  -43.4550 H         1 UNK         0.0600 
    188 H188       -1.1529  -12.6611  -41.9574 H         1 UNK         0.0600 
    189 H189       -0.1497  -11.0353  -45.3039 H         1 UNK         0.3000 
    190 H190       -3.3855  -19.1534  -45.0208 H         1 UNK         0.3000 
    191 H191       -6.1625  -19.5508  -45.0556 H         1 UNK         0.0600 
    192 H192       -4.0749  -20.4638  -43.0075 H         1 UNK         0.0600 
    193 H193       -4.8995  -18.9062  -43.0333 H         1 UNK         0.0600 
    194 H194       -5.8086  -20.3757  -42.7153 H         1 UNK         0.0600 
    195 H195       -3.5393  -21.9872  -45.1971 H         1 UNK         0.3000 
    196 H196       -5.3489  -24.2603  -45.2119 H         1 UNK         0.0600 
    197 H197       -3.0355  -24.3404  -44.2539 H         1 UNK         0.0600 
    198 H198       -2.3587  -24.0619  -45.8573 H         1 UNK         0.0600 
    199 H199       -3.2537  -25.5396  -45.5151 H         1 UNK         0.0600 
    200 H200       -4.5555  -22.0197  -47.6416 H         1 UNK         0.3000 
    201 H201       -4.6214  -21.9034  -49.8531 H         1 UNK         0.0600 
    202 H202       -6.3363  -23.2425  -51.0595 H         1 UNK         0.0600 
    203 H203       -6.9783  -22.6321  -49.5442 H         1 UNK         0.0600 
    204 H204       -6.5023  -24.3230  -49.6875 H         1 UNK         0.0600 
    205 H205       -2.3530  -22.8883  -49.0031 H         1 UNK         0.3000 
    206 H206       -0.5006  -24.0523  -49.3303 H         1 UNK         0.0600 
    207 H207       -0.6952  -23.0413  -51.6140 H         1 UNK         0.0600 
    208 H208       -1.5209  -24.4913  -52.1774 H         1 UNK         0.0600 
    209 H209        0.1532  -24.5800  -51.6498 H         1 UNK         0.0600 
    210 H210       -2.4302  -25.4514  -48.0282 H         1 UNK         0.3000 
    211 H211       -2.9900  -27.4022  -47.1589 H         1 UNK         0.0600 
    212 H212       -0.5613  -27.9905  -47.2033 H         1 UNK         0.0600 
    213 H213       -1.5870  -29.4018  -47.4044 H         1 UNK         0.0600 
    214 H214       -0.7610  -28.7203  -48.7959 H         1 UNK         0.0600 
    215 H215       -4.6492  -26.4833  -48.8544 H         1 UNK         0.3000 
    216 H216       -6.3552  -26.7682  -50.2217 H         1 UNK         0.0600 
    217 H217       -7.5971  -28.9053  -50.0269 H         1 UNK         0.0600 
    218 H218       -6.1769  -29.7066  -49.3670 H         1 UNK         0.0600 
    219 H219       -6.9685  -28.4177  -48.4614 H         1 UNK         0.0600 
    220 H220       -4.3076  -26.3617  -51.7659 H         1 UNK         0.3000 
    221 H221       -4.7228  -28.0745  -54.1399 H         1 UNK         0.0600 
    222 H222       -1.9678  -27.6268  -52.8591 H         1 UNK         0.0600 
    223 H223       -2.8042  -29.1612  -53.0311 H         1 UNK         0.0600 
    224 H224       -2.2448  -28.3121  -54.4612 H         1 UNK         0.0600 
    225 H225       -2.0051  -25.9647  -53.9870 H         1 UNK         0.3000 
    226 H226       -3.0319  -24.2817  -56.0820 H         1 UNK         0.0600 
    227 H227       -0.6773  -25.0237  -56.0181 H         1 UNK         0.0600 
    228 H228       -0.7565  -23.2716  -55.9528 H         1 UNK         0.0600 
    229 H229       -0.4173  -24.1856  -54.4892 H         1 UNK         0.0600 
    230 H230       -4.9301  -23.6468  -54.6248 H         1 UNK         0.3000 
    231 H231       -4.7708  -21.7217  -52.6027 H         1 UNK         0.0600 
    232 H232       -7.1380  -21.2723  -53.1700 H         1 UNK         0.0600 
    233 H233       -6.8358  -22.9991  -53.3091 H         1 UNK         0.0600 
    234 H234       -6.9397  -22.0065  -54.7572 H         1 UNK         0.0600 
    235 H235       -4.3953  -21.2906  -56.0571 H         1 UNK         0.3000 
    236 H236       -4.4719  -18.3576  -56.0137 H         1 UNK         0.0600 
    237 H237       -4.0301  -18.6276  -58.4460 H         1 UNK         0.0600 
    238 H238       -3.7819  -20.3567  -58.2358 H         1 UNK         0.0600 
    239 H239       -5.3710  -19.6458  -57.9526 H         1 UNK         0.0600 
    240 H240       -2.1859  -20.5258  -54.9189 H         1 UNK         0.3000 
    241 H241       -0.0788  -20.4851  -54.4049 H         1 UNK         0.0600 
    242 H242        0.7071  -20.9459  -58.1792 H         1 UNK         0.3800 
    243 H243       -0.8795  -20.8577  -57.4606 H         1 UNK         0.3800 
    244 H244        1.2561  -18.3838  -54.2781 H         1 UNK         0.0800 
    245 H245        0.0334  -17.5201  -55.1528 H         1 UNK         0.0800 
    246 H246       -1.6617  -16.2760  -54.1661 H         1 UNK         0.0800 
    247 H247       -2.7982  -17.5369  -53.7563 H         1 UNK         0.0800 
@<TRIPOS>BOND
     1    1    2 1    
     2    1  127 1    
     3    1  128 1    
     4    1  129 1    
     5    2    3 2    
     6    2    4 am   BACKBONE|DICT|INTERRES
     7    4    5 1    
     8    4  130 1    
     9    5    6 1    
    10    5   65 1    
    11    5  131 1    
    12    6    7 1    
    13    6  132 1    
    14    6  133 1    
    15    7    8 1    
    16    8    9 1    
    17    8  134 1    
    18    8  135 1    
    19    9   10 ar   
    20    9   14 ar   
    21   10   11 ar   
    22   10  136 1    
    23   11   12 ar   
    24   11  126 1    
    25   12   13 ar   
    26   12  137 1    
    27   13   14 ar   
    28   13   15 1    
    29   14  138 1    
    30   15   16 1    
    31   15  139 1    
    32   15  140 1    
    33   16   17 1    
    34   17   18 1    
    35   17  141 1    
    36   17  142 1    
    37   18   19 1    
    38   18   67 1    
    39   18  143 1    
    40   19   20 am   BACKBONE|DICT|INTERRES
    41   19  144 1    
    42   20   21 2    
    43   20   22 1    
    44   22   23 1    
    45   22   24 1    
    46   22  145 1    
    47   23  146 1    
    48   23  147 1    
    49   23  148 1    
    50   24   25 am   BACKBONE|DICT|INTERRES
    51   24  149 1    
    52   25   26 2    
    53   25   27 1    
    54   27   28 1    
    55   27   29 1    
    56   27  150 1    
    57   28  151 1    
    58   28  152 1    
    59   28  153 1    
    60   29   30 am   BACKBONE|DICT|INTERRES
    61   29  154 1    
    62   30   31 2    
    63   30   32 1    
    64   32   33 1    
    65   32   34 1    
    66   32  155 1    
    67   33  156 1    
    68   33  157 1    
    69   33  158 1    
    70   34   35 am   BACKBONE|DICT|INTERRES
    71   34  159 1    
    72   35   36 2    
    73   35   37 1    
    74   37   38 1    
    75   37   39 1    
    76   37  160 1    
    77   38  161 1    
    78   38  162 1    
    79   38  163 1    
    80   39   40 am   BACKBONE|DICT|INTERRES
    81   39  164 1    
    82   40   41 2    
    83   40   42 1    
    84   42   43 1    
    85   42   44 1    
    86   42  165 1    
    87   43  166 1    
    88   43  167 1    
    89   43  168 1    
    90   44   45 am   BACKBONE|DICT|INTERRES
    91   44  169 1    
    92   45   46 2    
    93   45   47 1    
    94   47   48 1    
    95   47   49 1    
    96   47  170 1    
    97   48  171 1    
    98   48  172 1    
    99   48  173 1    
   100   49   50 am   BACKBONE|DICT|INTERRES
   101   49  174 1    
   102   50   51 2    
   103   50   52 1    
   104   52   53 1    
   105   52   54 1    
   106   52  175 1    
   107   53  176 1    
   108   53  177 1    
   109   53  178 1    
   110   54   55 am   BACKBONE|DICT|INTERRES
   111   54  179 1    
   112   55   56 2    
   113   55   57 1    
   114   57   58 1    
   115   57   59 1    
   116   57  180 1    
   117   58  181 1    
   118   58  182 1    
   119   58  183 1    
   120   59   60 am   BACKBONE|DICT|INTERRES
   121   59  184 1    
   122   60   61 2    
   123   60   62 1    
   124   62   63 1    
   125   62   64 1    
   126   62  185 1    
   127   63  186 1    
   128   63  187 1    
   129   63  188 1    
   130   64   65 am   BACKBONE|DICT|INTERRES
   131   64  189 1    
   132   65   66 2    
   133   67   68 2    
   134   67   69 am   BACKBONE|DICT|INTERRES
   135   69   70 1    
   136   69  190 1    
   137   70   71 1    
   138   70   72 1    
   139   70  191 1    
   140   71  192 1    
   141   71  193 1    
   142   71  194 1    
   143   72   73 2    
   144   72   74 am   BACKBONE|DICT|INTERRES
   145   74   75 1    
   146   74  195 1    
   147   75   76 1    
   148   75   77 1    
   149   75  196 1    
   150   76  197 1    
   151   76  198 1    
   152   76  199 1    
   153   77   78 2    
   154   77   79 am   BACKBONE|DICT|INTERRES
   155   79   80 1    
   156   79  200 1    
   157   80   81 1    
   158   80   82 1    
   159   80  201 1    
   160   81  202 1    
   161   81  203 1    
   162   81  204 1    
   163   82   83 2    
   164   82   84 am   BACKBONE|DICT|INTERRES
   165   84   85 1    
   166   84  205 1    
   167   85   86 1    
   168   85   87 1    
   169   85  206 1    
   170   86  207 1    
   171   86  208 1    
   172   86  209 1    
   173   87   88 2    
   174   87   89 am   BACKBONE|DICT|INTERRES
   175   89   90 1    
   176   89  210 1    
   177   90   91 1    
   178   90   92 1    
   179   90  211 1    
   180   91  212 1    
   181   91  213 1    
   182   91  214 1    
   183   92   93 2    
   184   92   94 am   BACKBONE|DICT|INTERRES
   185   94   95 1    
   186   94  215 1    
   187   95   96 1    
   188   95   97 1    
   189   95  216 1    
   190   96  217 1    
   191   96  218 1    
   192   96  219 1    
   193   97   98 2    
   194   97   99 am   BACKBONE|DICT|INTERRES
   195   99  100 1    
   196   99  220 1    
   197  100  101 1    
   198  100  102 1    
   199  100  221 1    
   200  101  222 1    
   201  101  223 1    
   202  101  224 1    
   203  102  103 2    
   204  102  104 am   BACKBONE|DICT|INTERRES
   205  104  105 1    
   206  104  225 1    
   207  105  106 1    
   208  105  107 1    
   209  105  226 1    
   210  106  227 1    
   211  106  228 1    
   212  106  229 1    
   213  107  108 2    
   214  107  109 am   BACKBONE|DICT|INTERRES
   215  109  110 1    
   216  109  230 1    
   217  110  111 1    
   218  110  112 1    
   219  110  231 1    
   220  111  232 1    
   221  111  233 1    
   222  111  234 1    
   223  112  113 2    
   224  112  114 am   BACKBONE|DICT|INTERRES
   225  114  115 1    
   226  114  235 1    
   227  115  116 1    
   228  115  117 1    
   229  115  236 1    
   230  116  237 1    
   231  116  238 1    
   232  116  239 1    
   233  117  118 2    
   234  117  119 am   BACKBONE|DICT|INTERRES
   235  119  120 1    
   236  119  240 1    
   237  120  121 1    
   238  120  124 1    
   239  120  241 1    
   240  121  122 am   BACKBONE|DICT|INTERRES
   241  121  123 2    
   242  122  242 1    
   243  122  243 1    
   244  124  125 1    
   245  124  244 1    
   246  124  245 1    
   247  125  126 1    
   248  126  246 1    
   249  126  247 1    
@<TRIPOS>SUBSTRUCTURE
     1 UNK         1 GROUP             0       ****    0 ROOT    
