@<TRIPOS>MOLECULE
3R540
247   249    1
SMALL
USER_CHARGES


@<TRIPOS>ATOM
      1 CA          7.0944  -14.9217  -50.3159 C.3       0 UNK        -0.1800 
      2 C           5.8859  -15.3023  -49.4736 C.2       0 UNK         0.5000 
      3 O           6.0144  -16.0854  -48.5324 O.2       0 UNK        -0.5000 
      4 N           4.7126  -14.7366  -49.7893 N.am      1 UNK        -0.5000 
      5 CA          3.4272  -15.0267  -49.1349 C.3       1 UNK         0.1400 
      6 C6          2.2207  -14.4468  -49.9096 C.3       23 UNK        -0.0398 
      7 S7          2.0751  -15.1664  -51.5791 S.3       23 UNK        -0.2404 
      8 C8          1.1060  -16.6723  -51.2411 C.3       23 UNK        -0.0205 
      9 C9         -0.3682  -16.3720  -51.0172 C.ar      23 UNK        -0.0193 
     10 C10        -1.2017  -16.1324  -52.1121 C.ar      23 UNK        -0.1150 
     11 C11        -2.5643  -15.8858  -51.9281 C.ar      23 UNK        -0.0193 
     12 C12        -3.0894  -15.8780  -50.6325 C.ar      23 UNK        -0.1150 
     13 C13        -2.2708  -16.1152  -49.5234 C.ar      23 UNK        -0.0193 
     14 C14        -0.9056  -16.3555  -49.7261 C.ar      23 UNK        -0.1150 
     15 C15        -2.8878  -16.0572  -48.1255 C.3       23 UNK        -0.0205 
     16 S16        -2.1182  -17.1549  -46.8879 S.3       23 UNK        -0.2404 
     17 C17        -2.5174  -18.8014  -47.5532 C.3       23 UNK        -0.0398 
     18 CA         -2.1914  -19.9258  -46.5425 C.3       11 UNK         0.1400 
     19 N          -2.9726  -19.8064  -45.3035 N.am      11 UNK        -0.5000 
     20 C          -2.7652  -20.5402  -44.2036 C.2       10 UNK         0.5000 
     21 O          -1.9606  -21.4725  -44.1470 O.2       10 UNK        -0.5000 
     22 CA         -3.6234  -20.2072  -42.9790 C.3       10 UNK         0.1400 
     23 CB         -4.8998  -21.0635  -42.9533 C.3       10 UNK        -0.1800 
     24 N          -2.8278  -20.4733  -41.7890 N.am      10 UNK        -0.5000 
     25 C          -2.8710  -19.7893  -40.6432 C.2       9 UNK         0.5000 
     26 O          -3.6764  -18.8848  -40.4200 O.2       9 UNK        -0.5000 
     27 CA         -1.8102  -20.1327  -39.5796 C.3       9 UNK         0.1400 
     28 CB         -2.2099  -21.3686  -38.7505 C.3       9 UNK        -0.1800 
     29 N          -0.4514  -20.2388  -40.1306 N.am      9 UNK        -0.5000 
     30 C           0.0721  -21.1906  -40.9195 C.2       8 UNK         0.5000 
     31 O          -0.5319  -22.2179  -41.2233 O.2       8 UNK        -0.5000 
     32 CA          1.4807  -20.9433  -41.4995 C.3       8 UNK         0.1400 
     33 CB          1.5502  -21.3268  -42.9892 C.3       8 UNK        -0.1800 
     34 N           1.8906  -19.5437  -41.3435 N.am      8 UNK        -0.5000 
     35 C           2.7382  -19.1014  -40.4036 C.2       7 UNK         0.5000 
     36 O           3.3293  -19.8402  -39.6154 O.2       7 UNK        -0.5000 
     37 CA          2.9298  -17.5765  -40.2809 C.3       7 UNK         0.1400 
     38 CB          4.1066  -17.0958  -41.1397 C.3       7 UNK        -0.1800 
     39 N           1.7430  -16.7941  -40.6263 N.am      7 UNK        -0.5000 
     40 C           0.5679  -16.8215  -39.9880 C.2       6 UNK         0.5000 
     41 O           0.3399  -17.5577  -39.0287 O.2       6 UNK        -0.5000 
     42 CA         -0.5571  -15.9080  -40.5172 C.3       6 UNK         0.1400 
     43 CB         -0.4903  -14.5126  -39.8689 C.3       6 UNK        -0.1800 
     44 N          -0.6359  -15.8207  -41.9825 N.am      6 UNK        -0.5000 
     45 C           0.2395  -15.2871  -42.8457 C.2       5 UNK         0.5000 
     46 O           1.2888  -14.7311  -42.5173 O.2       5 UNK        -0.5000 
     47 CA         -0.0937  -15.4597  -44.3353 C.3       5 UNK         0.1400 
     48 CB         -0.1388  -14.1063  -45.0615 C.3       5 UNK        -0.1800 
     49 N           0.8723  -16.3267  -45.0051 N.am      5 UNK        -0.5000 
     50 C           1.0952  -17.6181  -44.7263 C.2       4 UNK         0.5000 
     51 O           0.5384  -18.2313  -43.8146 O.2       4 UNK        -0.5000 
     52 CA          2.1323  -18.3339  -45.6058 C.3       4 UNK         0.1400 
     53 CB          1.6619  -18.4346  -47.0684 C.3       4 UNK        -0.1800 
     54 N           3.4035  -17.6177  -45.5666 N.am      4 UNK        -0.5000 
     55 C           4.4712  -17.9804  -44.8437 C.2       3 UNK         0.5000 
     56 O           4.5069  -18.9933  -44.1449 O.2       3 UNK        -0.5000 
     57 CA          5.7175  -17.0721  -44.9058 C.3       3 UNK         0.1400 
     58 CB          6.8535  -17.7702  -45.6696 C.3       3 UNK        -0.1800 
     59 N           5.4484  -15.7776  -45.5359 N.am      3 UNK        -0.5000 
     60 C           4.9068  -14.7242  -44.9044 C.2       2 UNK         0.5000 
     61 O           4.6749  -14.7050  -43.6965 O.2       2 UNK        -0.5000 
     62 CA          4.5388  -13.4923  -45.7617 C.3       2 UNK         0.1400 
     63 CB          5.6265  -12.4136  -45.6485 C.3       2 UNK        -0.1800 
     64 N           4.3255  -13.8038  -47.1780 N.am      2 UNK        -0.5000 
     65 C           3.3708  -14.6186  -47.6479 C.2       1 UNK         0.5000 
     66 O           2.4970  -15.1062  -46.9334 O.2       1 UNK        -0.5000 
     67 C          -2.3040  -21.3146  -47.2057 C.2       11 UNK         0.5000 
     68 O          -1.3478  -21.7626  -47.8397 O.2       11 UNK        -0.5000 
     69 N          -3.4364  -22.0023  -46.9981 N.am      12 UNK        -0.5000 
     70 CA         -3.6860  -23.3681  -47.4613 C.3       12 UNK         0.1400 
     71 CB         -5.1389  -23.7504  -47.1449 C.3       12 UNK        -0.1800 
     72 C          -2.7101  -24.4121  -46.8831 C.2       12 UNK         0.5000 
     73 O          -2.4137  -25.3930  -47.5648 O.2       12 UNK        -0.5000 
     74 N          -2.1818  -24.1696  -45.6733 N.am      13 UNK        -0.5000 
     75 CA         -1.1643  -25.0138  -45.0386 C.3       13 UNK         0.1400 
     76 CB         -1.0832  -24.6767  -43.5446 C.3       13 UNK        -0.1800 
     77 C           0.2221  -24.8785  -45.7002 C.2       13 UNK         0.5000 
     78 O           1.0306  -25.8019  -45.6059 O.2       13 UNK        -0.5000 
     79 N           0.4551  -23.7529  -46.3888 N.am      14 UNK        -0.5000 
     80 CA          1.6297  -23.4906  -47.2216 C.3       14 UNK         0.1400 
     81 CB          2.0215  -22.0124  -47.0579 C.3       14 UNK        -0.1800 
     82 C           1.3744  -23.8463  -48.7039 C.2       14 UNK         0.5000 
     83 O           2.1880  -23.4908  -49.5567 O.2       14 UNK        -0.5000 
     84 N           0.2488  -24.5235  -48.9852 N.am      15 UNK        -0.5000 
     85 CA         -0.2583  -24.9526  -50.2941 C.3       15 UNK         0.1400 
     86 CB          0.7484  -25.8682  -51.0212 C.3       15 UNK        -0.1800 
     87 C          -0.7668  -23.8028  -51.1895 C.2       15 UNK         0.5000 
     88 O          -1.0708  -24.0389  -52.3596 O.2       15 UNK        -0.5000 
     89 N          -0.9117  -22.5953  -50.6303 N.am      16 UNK        -0.5000 
     90 CA         -1.4836  -21.4225  -51.2861 C.3       16 UNK         0.1400 
     91 CB         -0.6454  -20.1836  -50.9214 C.3       16 UNK        -0.1800 
     92 C          -2.9643  -21.2978  -50.8870 C.2       16 UNK         0.5000 
     93 O          -3.3712  -20.3080  -50.2772 O.2       16 UNK        -0.5000 
     94 N          -3.7461  -22.3391  -51.2047 N.am      17 UNK        -0.5000 
     95 CA         -5.1875  -22.4213  -50.9711 C.3       17 UNK         0.1400 
     96 CB         -5.6303  -23.8876  -51.1075 C.3       17 UNK        -0.1800 
     97 C          -5.9295  -21.4923  -51.9473 C.2       17 UNK         0.5000 
     98 O          -6.3591  -21.9343  -53.0146 O.2       17 UNK        -0.5000 
     99 N          -5.9867  -20.2042  -51.5867 N.am      18 UNK        -0.5000 
    100 CA        -6.3259  -19.0565  -52.4321 C.3       18 UNK         0.1400 
    101 CB        -6.3334  -17.7904  -51.5646 C.3       18 UNK        -0.1800 
    102 C         -7.6252  -19.1589  -53.2488 C.2       18 UNK         0.5000 
    103 O         -7.6885  -18.5903  -54.3383 O.2       18 UNK        -0.5000 
    104 N         -8.6092  -19.9150  -52.7443 N.am      19 UNK        -0.5000 
    105 CA        -9.8643  -20.2312  -53.4315 C.3       19 UNK         0.1400 
    106 CB       -10.7601  -21.0407  -52.4815 C.3       19 UNK        -0.1800 
    107 C         -9.6765  -20.9838  -54.7669 C.2       19 UNK         0.5000 
    108 O        -10.5302  -20.8637  -55.6468 O.2       19 UNK        -0.5000 
    109 N         -8.5687  -21.7259  -54.8965 N.am      20 UNK        -0.5000 
    110 CA        -8.1554  -22.4122  -56.1179 C.3       20 UNK         0.1400 
    111 CB        -8.0245  -23.9162  -55.8290 C.3       20 UNK        -0.1800 
    112 C         -6.8256  -21.8485  -56.6460 C.2       20 UNK         0.5000 
    113 O         -6.6960  -21.6332  -57.8514 O.2       20 UNK        -0.5000 
    114 N         -5.8588  -21.6243  -55.7448 N.am      21 UNK        -0.5000 
    115 CA        -4.4802  -21.2540  -56.0722 C.3       21 UNK         0.1400 
    116 CB        -3.5976  -21.4558  -54.8291 C.3       21 UNK        -0.1800 
    117 C         -4.3149  -19.8201  -56.6061 C.2       21 UNK         0.5000 
    118 O         -3.3688  -19.5709  -57.3546 O.2       21 UNK        -0.5000 
    119 N         -5.2117  -18.9105  -56.2067 N.am      22 UNK        -0.5000 
    120 CA        -5.1527  -17.4733  -56.5289 C.3       22 UNK         0.1400 
    121 C         -6.3253  -17.0100  -57.4418 C.2       22 UNK         0.5000 
    122 N         -7.1151  -17.9094  -58.0176 N.am      22 UNK        -0.7600 
    123 O         -6.5127  -15.8150  -57.6544 O.2       22 UNK        -0.5000 
    124 C124       -5.0245  -16.5959  -55.2525 C.3       23 UNK        -0.0398 
    125 S125       -3.6279  -17.0858  -54.1810 S.3       23 UNK        -0.2404 
    126 C126       -3.4632  -15.6143  -53.1263 C.3       23 UNK        -0.0205 
    127 H127        7.8606  -14.4672  -49.6880 H         1 UNK         0.0600 
    128 H128        6.8334  -14.2134  -51.1025 H         1 UNK         0.0600 
    129 H129        7.5183  -15.8098  -50.7842 H         1 UNK         0.0600 
    130 H130        4.6661  -14.1027  -50.5749 H         1 UNK         0.3000 
    131 H131        3.3213  -16.1136  -49.1330 H         1 UNK         0.0600 
    132 H132        1.2865  -14.6153  -49.3720 H         1 UNK         0.0800 
    133 H133        2.3170  -13.3644  -50.0082 H         1 UNK         0.0800 
    134 H134        1.5260  -17.2034  -50.3856 H         1 UNK         0.0800 
    135 H135        1.2058  -17.3491  -52.0910 H         1 UNK         0.0800 
    136 H136       -0.7905  -16.1428  -53.1119 H         1 UNK         0.1150 
    137 H137       -4.1406  -15.6750  -50.4848 H         1 UNK         0.1150 
    138 H138       -0.2576  -16.5292  -48.8798 H         1 UNK         0.1150 
    139 H139       -2.8131  -15.0308  -47.7646 H         1 UNK         0.0800 
    140 H140       -3.9527  -16.2899  -48.1734 H         1 UNK         0.0800 
    141 H141       -1.9431  -18.9259  -48.4708 H         1 UNK         0.0800 
    142 H142       -3.5696  -18.8316  -47.8415 H         1 UNK         0.0800 
    143 H143       -1.1457  -19.8223  -46.2503 H         1 UNK         0.0600 
    144 H144       -3.6504  -19.0583  -45.2794 H         1 UNK         0.3000 
    145 H145       -3.8908  -19.1490  -43.0173 H         1 UNK         0.0600 
    146 H146       -5.5132  -20.8295  -42.0831 H         1 UNK         0.0600 
    147 H147       -5.5103  -20.8848  -43.8391 H         1 UNK         0.0600 
    148 H148       -4.6673  -22.1290  -42.9216 H         1 UNK         0.0600 
    149 H149       -2.1089  -21.1842  -41.9052 H         1 UNK         0.3000 
    150 H150       -1.7764  -19.2869  -38.8914 H         1 UNK         0.0600 
    151 H151       -3.1525  -21.1939  -38.2306 H         1 UNK         0.0600 
    152 H152       -1.4586  -21.5963  -37.9944 H         1 UNK         0.0600 
    153 H153       -2.3450  -22.2556  -39.3695 H         1 UNK         0.0600 
    154 H154        0.1326  -19.4354  -39.9294 H         1 UNK         0.3000 
    155 H155        2.1645  -21.6012  -40.9600 H         1 UNK         0.0600 
    156 H156        0.7790  -20.8255  -43.5742 H         1 UNK         0.0600 
    157 H157        1.4090  -22.3996  -43.1238 H         1 UNK         0.0600 
    158 H158        2.5199  -21.0737  -43.4180 H         1 UNK         0.0600 
    159 H159        1.4465  -18.8794  -41.9684 H         1 UNK         0.3000 
    160 H160        3.1683  -17.3676  -39.2360 H         1 UNK         0.0600 
    161 H161        3.8608  -17.1371  -42.1993 H         1 UNK         0.0600 
    162 H162        4.9959  -17.7065  -40.9785 H         1 UNK         0.0600 
    163 H163        4.3704  -16.0646  -40.9040 H         1 UNK         0.0600 
    164 H164        1.8356  -16.1305  -41.3911 H         1 UNK         0.3000 
    165 H165       -1.4966  -16.3664  -40.2036 H         1 UNK         0.0600 
    166 H166        0.4388  -13.9940  -40.1066 H         1 UNK         0.0600 
    167 H167       -1.3188  -13.8851  -40.1974 H         1 UNK         0.0600 
    168 H168       -0.5500  -14.5872  -38.7824 H         1 UNK         0.0600 
    169 H169       -1.4334  -16.2968  -42.3802 H         1 UNK         0.3000 
    170 H170       -1.0777  -15.9228  -44.4230 H         1 UNK         0.0600 
    171 H171        0.8325  -13.6099  -45.0477 H         1 UNK         0.0600 
    172 H172       -0.4348  -14.2305  -46.1037 H         1 UNK         0.0600 
    173 H173       -0.8603  -13.4351  -44.5943 H         1 UNK         0.0600 
    174 H174        1.4151  -15.8877  -45.7455 H         1 UNK         0.3000 
    175 H175        2.2539  -19.3490  -45.2241 H         1 UNK         0.0600 
    176 H176        1.5081  -17.4566  -47.5221 H         1 UNK         0.0600 
    177 H177        2.3911  -18.9689  -47.6775 H         1 UNK         0.0600 
    178 H178        0.7207  -18.9748  -47.1455 H         1 UNK         0.0600 
    179 H179        3.4333  -16.7373  -46.0646 H         1 UNK         0.3000 
    180 H180        6.0539  -16.9069  -43.8800 H         1 UNK         0.0600 
    181 H181        7.7454  -17.1449  -45.7109 H         1 UNK         0.0600 
    182 H182        6.5627  -18.0092  -46.6931 H         1 UNK         0.0600 
    183 H183        7.1343  -18.7051  -45.1830 H         1 UNK         0.0600 
    184 H184        5.6244  -15.7222  -46.5341 H         1 UNK         0.3000 
    185 H185        3.6065  -13.0857  -45.3639 H         1 UNK         0.0600 
    186 H186        5.3418  -11.5078  -46.1841 H         1 UNK         0.0600 
    187 H187        5.7932  -12.1348  -44.6071 H         1 UNK         0.0600 
    188 H188        6.5788  -12.7592  -46.0526 H         1 UNK         0.0600 
    189 H189        5.0147  -13.4552  -47.8281 H         1 UNK         0.3000 
    190 H190       -4.1643  -21.5689  -46.4500 H         1 UNK         0.3000 
    191 H191       -3.5578  -23.3771  -48.5448 H         1 UNK         0.0600 
    192 H192       -5.3671  -24.7527  -47.5099 H         1 UNK         0.0600 
    193 H193       -5.8413  -23.0659  -47.6205 H         1 UNK         0.0600 
    194 H194       -5.3326  -23.7391  -46.0715 H         1 UNK         0.0600 
    195 H195       -2.4198  -23.3127  -45.1868 H         1 UNK         0.3000 
    196 H196       -1.4763  -26.0561  -45.1331 H         1 UNK         0.0600 
    197 H197       -0.7197  -23.6621  -43.3890 H         1 UNK         0.0600 
    198 H198       -2.0563  -24.7630  -43.0611 H         1 UNK         0.0600 
    199 H199       -0.3992  -25.3503  -43.0272 H         1 UNK         0.0600 
    200 H200       -0.2810  -23.0600  -46.4445 H         1 UNK         0.3000 
    201 H201        2.4687  -24.1009  -46.8821 H         1 UNK         0.0600 
    202 H202        1.2499  -21.3494  -47.4478 H         1 UNK         0.0600 
    203 H203        2.9460  -21.7876  -47.5908 H         1 UNK         0.0600 
    204 H204        2.1837  -21.7609  -46.0099 H         1 UNK         0.0600 
    205 H205       -0.3572  -24.7549  -48.2087 H         1 UNK         0.3000 
    206 H206       -1.1390  -25.5582  -50.0758 H         1 UNK         0.0600 
    207 H207        1.0901  -26.6742  -50.3718 H         1 UNK         0.0600 
    208 H208        0.2925  -26.3312  -51.8971 H         1 UNK         0.0600 
    209 H209        1.6242  -25.3186  -51.3665 H         1 UNK         0.0600 
    210 H210       -0.7280  -22.4903  -49.6378 H         1 UNK         0.3000 
    211 H211       -1.4517  -21.5314  -52.3720 H         1 UNK         0.0600 
    212 H212       -1.0986  -19.2712  -51.3116 H         1 UNK         0.0600 
    213 H213        0.3566  -20.2541  -51.3441 H         1 UNK         0.0600 
    214 H214       -0.5376  -20.0684  -49.8438 H         1 UNK         0.0600 
    215 H215       -3.3310  -23.1045  -51.7175 H         1 UNK         0.3000 
    216 H216       -5.4035  -22.0948  -49.9518 H         1 UNK         0.0600 
    217 H217       -5.4043  -24.2898  -52.0960 H         1 UNK         0.0600 
    218 H218       -6.7052  -23.9859  -50.9510 H         1 UNK         0.0600 
    219 H219       -5.1356  -24.5189  -50.3691 H         1 UNK         0.0600 
    220 H220       -5.5160  -19.9663  -50.7224 H         1 UNK         0.3000 
    221 H221       -5.5147  -18.9694  -53.1542 H         1 UNK         0.0600 
    222 H222       -5.3716  -17.6524  -51.0716 H         1 UNK         0.0600 
    223 H223       -7.1029  -17.8367  -50.7933 H         1 UNK         0.0600 
    224 H224       -6.5207  -16.9003  -52.1664 H         1 UNK         0.0600 
    225 H225       -8.4578  -20.3566  -51.8496 H         1 UNK         0.3000 
    226 H226      -10.3652  -19.2875  -53.6566 H         1 UNK         0.0600 
    227 H227      -10.2950  -21.9863  -52.1997 H         1 UNK         0.0600 
    228 H228      -10.9729  -20.4843  -51.5685 H         1 UNK         0.0600 
    229 H229      -11.7177  -21.2725  -52.9497 H         1 UNK         0.0600 
    230 H230       -7.9161  -21.7596  -54.1189 H         1 UNK         0.3000 
    231 H231       -8.8999  -22.2829  -56.9061 H         1 UNK         0.0600 
    232 H232       -7.3001  -24.1144  -55.0377 H         1 UNK         0.0600 
    233 H233       -7.7000  -24.4591  -56.7177 H         1 UNK         0.0600 
    234 H234       -8.9801  -24.3399  -55.5197 H         1 UNK         0.0600 
    235 H235       -6.0458  -21.8181  -54.7635 H         1 UNK         0.3000 
    236 H236       -4.1287  -21.9357  -56.8495 H         1 UNK         0.0600 
    237 H237       -3.6822  -22.4708  -54.4405 H         1 UNK         0.0600 
    238 H238       -2.5466  -21.2851  -55.0654 H         1 UNK         0.0600 
    239 H239       -3.8665  -20.7642  -54.0302 H         1 UNK         0.0600 
    240 H240       -5.9882  -19.1939  -55.6235 H         1 UNK         0.3000 
    241 H241       -4.2611  -17.2754  -57.1258 H         1 UNK         0.0600 
    242 H242       -7.8678  -17.6010  -58.6128 H         1 UNK         0.3800 
    243 H243       -6.9540  -18.8954  -57.8804 H         1 UNK         0.3800 
    244 H244       -5.9420  -16.6353  -54.6653 H         1 UNK         0.0800 
    245 H245       -4.8863  -15.5497  -55.5308 H         1 UNK         0.0800 
    246 H246       -4.4532  -15.2961  -52.7961 H         1 UNK         0.0800 
    247 H247       -3.0503  -14.7921  -53.7124 H         1 UNK         0.0800 
@<TRIPOS>BOND
     1    1    2 1    
     2    1  127 1    
     3    1  128 1    
     4    1  129 1    
     5    2    3 2    
     6    2    4 am   BACKBONE|DICT|INTERRES
     7    4    5 1    
     8    4  130 1    
     9    5    6 1    
    10    5   65 1    
    11    5  131 1    
    12    6    7 1    
    13    6  132 1    
    14    6  133 1    
    15    7    8 1    
    16    8    9 1    
    17    8  134 1    
    18    8  135 1    
    19    9   10 ar   
    20    9   14 ar   
    21   10   11 ar   
    22   10  136 1    
    23   11   12 ar   
    24   11  126 1    
    25   12   13 ar   
    26   12  137 1    
    27   13   14 ar   
    28   13   15 1    
    29   14  138 1    
    30   15   16 1    
    31   15  139 1    
    32   15  140 1    
    33   16   17 1    
    34   17   18 1    
    35   17  141 1    
    36   17  142 1    
    37   18   19 1    
    38   18   67 1    
    39   18  143 1    
    40   19   20 am   BACKBONE|DICT|INTERRES
    41   19  144 1    
    42   20   21 2    
    43   20   22 1    
    44   22   23 1    
    45   22   24 1    
    46   22  145 1    
    47   23  146 1    
    48   23  147 1    
    49   23  148 1    
    50   24   25 am   BACKBONE|DICT|INTERRES
    51   24  149 1    
    52   25   26 2    
    53   25   27 1    
    54   27   28 1    
    55   27   29 1    
    56   27  150 1    
    57   28  151 1    
    58   28  152 1    
    59   28  153 1    
    60   29   30 am   BACKBONE|DICT|INTERRES
    61   29  154 1    
    62   30   31 2    
    63   30   32 1    
    64   32   33 1    
    65   32   34 1    
    66   32  155 1    
    67   33  156 1    
    68   33  157 1    
    69   33  158 1    
    70   34   35 am   BACKBONE|DICT|INTERRES
    71   34  159 1    
    72   35   36 2    
    73   35   37 1    
    74   37   38 1    
    75   37   39 1    
    76   37  160 1    
    77   38  161 1    
    78   38  162 1    
    79   38  163 1    
    80   39   40 am   BACKBONE|DICT|INTERRES
    81   39  164 1    
    82   40   41 2    
    83   40   42 1    
    84   42   43 1    
    85   42   44 1    
    86   42  165 1    
    87   43  166 1    
    88   43  167 1    
    89   43  168 1    
    90   44   45 am   BACKBONE|DICT|INTERRES
    91   44  169 1    
    92   45   46 2    
    93   45   47 1    
    94   47   48 1    
    95   47   49 1    
    96   47  170 1    
    97   48  171 1    
    98   48  172 1    
    99   48  173 1    
   100   49   50 am   BACKBONE|DICT|INTERRES
   101   49  174 1    
   102   50   51 2    
   103   50   52 1    
   104   52   53 1    
   105   52   54 1    
   106   52  175 1    
   107   53  176 1    
   108   53  177 1    
   109   53  178 1    
   110   54   55 am   BACKBONE|DICT|INTERRES
   111   54  179 1    
   112   55   56 2    
   113   55   57 1    
   114   57   58 1    
   115   57   59 1    
   116   57  180 1    
   117   58  181 1    
   118   58  182 1    
   119   58  183 1    
   120   59   60 am   BACKBONE|DICT|INTERRES
   121   59  184 1    
   122   60   61 2    
   123   60   62 1    
   124   62   63 1    
   125   62   64 1    
   126   62  185 1    
   127   63  186 1    
   128   63  187 1    
   129   63  188 1    
   130   64   65 am   BACKBONE|DICT|INTERRES
   131   64  189 1    
   132   65   66 2    
   133   67   68 2    
   134   67   69 am   BACKBONE|DICT|INTERRES
   135   69   70 1    
   136   69  190 1    
   137   70   71 1    
   138   70   72 1    
   139   70  191 1    
   140   71  192 1    
   141   71  193 1    
   142   71  194 1    
   143   72   73 2    
   144   72   74 am   BACKBONE|DICT|INTERRES
   145   74   75 1    
   146   74  195 1    
   147   75   76 1    
   148   75   77 1    
   149   75  196 1    
   150   76  197 1    
   151   76  198 1    
   152   76  199 1    
   153   77   78 2    
   154   77   79 am   BACKBONE|DICT|INTERRES
   155   79   80 1    
   156   79  200 1    
   157   80   81 1    
   158   80   82 1    
   159   80  201 1    
   160   81  202 1    
   161   81  203 1    
   162   81  204 1    
   163   82   83 2    
   164   82   84 am   BACKBONE|DICT|INTERRES
   165   84   85 1    
   166   84  205 1    
   167   85   86 1    
   168   85   87 1    
   169   85  206 1    
   170   86  207 1    
   171   86  208 1    
   172   86  209 1    
   173   87   88 2    
   174   87   89 am   BACKBONE|DICT|INTERRES
   175   89   90 1    
   176   89  210 1    
   177   90   91 1    
   178   90   92 1    
   179   90  211 1    
   180   91  212 1    
   181   91  213 1    
   182   91  214 1    
   183   92   93 2    
   184   92   94 am   BACKBONE|DICT|INTERRES
   185   94   95 1    
   186   94  215 1    
   187   95   96 1    
   188   95   97 1    
   189   95  216 1    
   190   96  217 1    
   191   96  218 1    
   192   96  219 1    
   193   97   98 2    
   194   97   99 am   BACKBONE|DICT|INTERRES
   195   99  100 1    
   196   99  220 1    
   197  100  101 1    
   198  100  102 1    
   199  100  221 1    
   200  101  222 1    
   201  101  223 1    
   202  101  224 1    
   203  102  103 2    
   204  102  104 am   BACKBONE|DICT|INTERRES
   205  104  105 1    
   206  104  225 1    
   207  105  106 1    
   208  105  107 1    
   209  105  226 1    
   210  106  227 1    
   211  106  228 1    
   212  106  229 1    
   213  107  108 2    
   214  107  109 am   BACKBONE|DICT|INTERRES
   215  109  110 1    
   216  109  230 1    
   217  110  111 1    
   218  110  112 1    
   219  110  231 1    
   220  111  232 1    
   221  111  233 1    
   222  111  234 1    
   223  112  113 2    
   224  112  114 am   BACKBONE|DICT|INTERRES
   225  114  115 1    
   226  114  235 1    
   227  115  116 1    
   228  115  117 1    
   229  115  236 1    
   230  116  237 1    
   231  116  238 1    
   232  116  239 1    
   233  117  118 2    
   234  117  119 am   BACKBONE|DICT|INTERRES
   235  119  120 1    
   236  119  240 1    
   237  120  121 1    
   238  120  124 1    
   239  120  241 1    
   240  121  122 am   BACKBONE|DICT|INTERRES
   241  121  123 2    
   242  122  242 1    
   243  122  243 1    
   244  124  125 1    
   245  124  244 1    
   246  124  245 1    
   247  125  126 1    
   248  126  246 1    
   249  126  247 1    
@<TRIPOS>SUBSTRUCTURE
     1 UNK         1 GROUP             0       ****    0 ROOT    
