@<TRIPOS>MOLECULE
3R540
247   249    1
SMALL
USER_CHARGES


@<TRIPOS>ATOM
      1 CA          3.0791  -15.6176  -50.6253 C.3       0 UNK        -0.1800 
      2 C           2.1298  -14.9144  -49.6654 C.2       0 UNK         0.5000 
      3 O           1.4704  -13.9510  -50.0545 O.2       0 UNK        -0.5000 
      4 N           2.0611  -15.3988  -48.4168 N.am      1 UNK        -0.5000 
      5 CA          1.1966  -14.9039  -47.3335 C.3       1 UNK         0.1400 
      6 C6         -0.3247  -15.0668  -47.6059 C.3       23 UNK        -0.0398 
      7 S7         -0.8016  -16.8161  -47.8393 S.3       23 UNK        -0.2404 
      8 C8         -0.9857  -16.9320  -49.6530 C.3       23 UNK        -0.0205 
      9 C9         -0.2824  -18.1427  -50.2620 C.ar      23 UNK        -0.0193 
     10 C10        -0.9038  -18.8685  -51.2838 C.ar      23 UNK        -0.1150 
     11 C11        -0.2477  -19.9406  -51.8981 C.ar      23 UNK        -0.0193 
     12 C12         1.0386  -20.2904  -51.4796 C.ar      23 UNK        -0.1150 
     13 C13         1.6732  -19.5743  -50.4624 C.ar      23 UNK        -0.0193 
     14 C14         1.0066  -18.5072  -49.8575 C.ar      23 UNK        -0.1150 
     15 C15         3.0945  -19.9254  -50.0501 C.3       23 UNK        -0.0205 
     16 S16         3.1727  -21.4501  -49.0634 S.3       23 UNK        -0.2404 
     17 C17         2.5375  -20.8927  -47.4452 C.3       23 UNK        -0.0398 
     18 CA          1.9082  -22.0657  -46.6526 C.3       11 UNK         0.1400 
     19 N           1.9149  -21.8280  -45.2097 N.am      11 UNK        -0.5000 
     20 C           2.0766  -22.7897  -44.2896 C.2       10 UNK         0.5000 
     21 O           2.1097  -23.9923  -44.5516 O.2       10 UNK        -0.5000 
     22 CA          2.2628  -22.3329  -42.8335 C.3       10 UNK         0.1400 
     23 CB          3.5759  -21.5519  -42.6546 C.3       10 UNK        -0.1800 
     24 N           1.1428  -21.5075  -42.3986 N.am      10 UNK        -0.5000 
     25 C           0.0441  -21.9791  -41.7951 C.2       9 UNK         0.5000 
     26 O          -0.1044  -23.1568  -41.4683 O.2       9 UNK        -0.5000 
     27 CA         -1.0856  -20.9711  -41.5009 C.3       9 UNK         0.1400 
     28 CB         -1.0318  -20.5263  -40.0314 C.3       9 UNK        -0.1800 
     29 N          -1.0626  -19.7864  -42.3625 N.am      9 UNK        -0.5000 
     30 C          -1.2382  -19.8073  -43.6910 C.2       8 UNK         0.5000 
     31 O          -1.4770  -20.8316  -44.3281 O.2       8 UNK        -0.5000 
     32 CA         -1.0454  -18.4772  -44.4417 C.3       8 UNK         0.1400 
     33 CB         -2.3361  -17.6479  -44.4218 C.3       8 UNK        -0.1800 
     34 N           0.0647  -17.6829  -43.9123 N.am      8 UNK        -0.5000 
     35 C           1.3480  -18.0695  -43.9344 C.2       7 UNK         0.5000 
     36 O           1.7283  -19.1272  -44.4371 O.2       7 UNK        -0.5000 
     37 CA          2.3735  -17.1531  -43.2487 C.3       7 UNK         0.1400 
     38 CB          2.8973  -16.0790  -44.2107 C.3       7 UNK        -0.1800 
     39 N           1.8155  -16.5169  -42.0568 N.am      7 UNK        -0.5000 
     40 C           1.8014  -17.0851  -40.8438 C.2       6 UNK         0.5000 
     41 O           2.3062  -18.1799  -40.5938 O.2       6 UNK        -0.5000 
     42 CA          1.0827  -16.3090  -39.7246 C.3       6 UNK         0.1400 
     43 CB          2.0474  -15.3283  -39.0416 C.3       6 UNK        -0.1800 
     44 N          -0.0963  -15.5796  -40.1955 N.am      6 UNK        -0.5000 
     45 C          -1.2132  -16.1660  -40.6497 C.2       5 UNK         0.5000 
     46 O          -1.3572  -17.3844  -40.7366 O.2       5 UNK        -0.5000 
     47 CA         -2.3485  -15.2412  -41.1262 C.3       5 UNK         0.1400 
     48 CB         -3.2642  -14.8704  -39.9504 C.3       5 UNK        -0.1800 
     49 N          -1.8935  -14.0157  -41.7851 N.am      5 UNK        -0.5000 
     50 C          -1.0722  -13.9460  -42.8415 C.2       4 UNK         0.5000 
     51 O          -0.5475  -14.9299  -43.3693 O.2       4 UNK        -0.5000 
     52 CA         -0.7528  -12.5443  -43.3957 C.3       4 UNK         0.1400 
     53 CB         -1.4356  -11.3795  -42.6429 C.3       4 UNK        -0.1800 
     54 N           0.6923  -12.3321  -43.4756 N.am      4 UNK        -0.5000 
     55 C           1.5772  -12.3646  -42.4666 C.2       3 UNK         0.5000 
     56 O           1.2598  -12.5577  -41.2916 O.2       3 UNK        -0.5000 
     57 CA          3.0672  -12.1785  -42.8267 C.3       3 UNK         0.1400 
     58 CB          3.9676  -13.1226  -42.0101 C.3       3 UNK        -0.1800 
     59 N           3.3222  -12.3838  -44.2567 N.am      3 UNK        -0.5000 
     60 C           3.3241  -11.4155  -45.1829 C.2       2 UNK         0.5000 
     61 O           3.1723  -10.2212  -44.9260 O.2       2 UNK        -0.5000 
     62 CA          3.4849  -11.8606  -46.6494 C.3       2 UNK         0.1400 
     63 CB          4.9682  -11.8722  -47.0486 C.3       2 UNK        -0.1800 
     64 N           2.9004  -13.1732  -46.9446 N.am      2 UNK        -0.5000 
     65 C           1.5940  -13.4773  -46.8814 C.2       1 UNK         0.5000 
     66 O           0.7381  -12.6887  -46.4788 O.2       1 UNK        -0.5000 
     67 C           0.5062  -22.4510  -47.1575 C.2       11 UNK         0.5000 
     68 O           0.3007  -23.6077  -47.5223 O.2       11 UNK        -0.5000 
     69 N          -0.4335  -21.4936  -47.1668 N.am      12 UNK        -0.5000 
     70 CA         -1.7806  -21.6225  -47.7433 C.3       12 UNK         0.1400 
     71 CB         -2.5125  -20.2782  -47.6240 C.3       12 UNK        -0.1800 
     72 C          -2.6409  -22.7550  -47.1489 C.2       12 UNK         0.5000 
     73 O          -3.5006  -23.2954  -47.8441 O.2       12 UNK        -0.5000 
     74 N          -2.3789  -23.1122  -45.8858 N.am      13 UNK        -0.5000 
     75 CA         -2.9747  -24.2528  -45.1908 C.3       13 UNK         0.1400 
     76 CB         -2.5299  -24.2230  -43.7220 C.3       13 UNK        -0.1800 
     77 C          -2.6318  -25.6155  -45.8299 C.2       13 UNK         0.5000 
     78 O          -3.4398  -26.5406  -45.7371 O.2       13 UNK        -0.5000 
     79 N          -1.4567  -25.7140  -46.4661 N.am      14 UNK        -0.5000 
     80 CA         -1.0069  -26.8860  -47.2154 C.3       14 UNK         0.1400 
     81 CB          0.4706  -27.1562  -46.8893 C.3       14 UNK        -0.1800 
     82 C          -1.1994  -26.6722  -48.7259 C.2       14 UNK         0.5000 
     83 O          -1.6891  -27.5690  -49.4145 O.2       14 UNK        -0.5000 
     84 N          -0.8240  -25.4840  -49.2160 N.am      15 UNK        -0.5000 
     85 CA         -0.9395  -25.0518  -50.6049 C.3       15 UNK         0.1400 
     86 CB          0.0940  -23.9412  -50.8647 C.3       15 UNK        -0.1800 
     87 C          -2.3826  -24.6123  -50.9158 C.2       15 UNK         0.5000 
     88 O          -2.6620  -23.4177  -51.0371 O.2       15 UNK        -0.5000 
     89 N          -3.2735  -25.6068  -51.0399 N.am      16 UNK        -0.5000 
     90 CA         -4.7253  -25.4842  -51.2278 C.3       16 UNK         0.1400 
     91 CB         -5.3319  -26.8934  -51.3021 C.3       16 UNK        -0.1800 
     92 C          -5.1786  -24.6386  -52.4367 C.2       16 UNK         0.5000 
     93 O          -6.3216  -24.1795  -52.4561 O.2       16 UNK        -0.5000 
     94 N          -4.2671  -24.3887  -53.3890 N.am      17 UNK        -0.5000 
     95 CA         -4.4063  -23.4296  -54.4891 C.3       17 UNK         0.1400 
     96 CB         -3.1249  -23.4528  -55.3355 C.3       17 UNK        -0.1800 
     97 C          -4.7085  -21.9878  -54.0300 C.2       17 UNK         0.5000 
     98 O          -5.2343  -21.2030  -54.8192 O.2       17 UNK        -0.5000 
     99 N          -4.4211  -21.6651  -52.7594 N.am      18 UNK        -0.5000 
    100 CA        -4.7763  -20.4133  -52.0870 C.3       18 UNK         0.1400 
    101 CB        -4.2513  -20.4594  -50.6479 C.3       18 UNK        -0.1800 
    102 C         -6.2859  -20.0941  -52.0990 C.2       18 UNK         0.5000 
    103 O         -6.6480  -18.9186  -52.0526 O.2       18 UNK        -0.5000 
    104 N         -7.1377  -21.1232  -52.2330 N.am      19 UNK        -0.5000 
    105 CA        -8.5811  -20.9918  -52.4582 C.3       19 UNK         0.1400 
    106 CB        -9.2287  -22.3813  -52.3660 C.3       19 UNK        -0.1800 
    107 C         -8.9369  -20.3201  -53.8037 C.2       19 UNK         0.5000 
    108 O        -10.0151  -19.7376  -53.9216 O.2       19 UNK        -0.5000 
    109 N         -8.0174  -20.3870  -54.7756 N.am      20 UNK        -0.5000 
    110 CA        -8.0723  -19.7112  -56.0714 C.3       20 UNK         0.1400 
    111 CB        -7.8846  -20.7626  -57.1798 C.3       20 UNK        -0.1800 
    112 C         -7.0056  -18.5970  -56.1438 C.2       20 UNK         0.5000 
    113 O         -6.5019  -18.2956  -57.2280 O.2       20 UNK        -0.5000 
    114 N         -6.6462  -18.0290  -54.9803 N.am      21 UNK        -0.5000 
    115 CA        -5.6594  -16.9620  -54.7658 C.3       21 UNK         0.1400 
    116 CB        -6.1527  -15.6396  -55.3886 C.3       21 UNK        -0.1800 
    117 C         -4.2259  -17.3268  -55.2125 C.2       21 UNK         0.5000 
    118 O         -3.4204  -16.4322  -55.4745 O.2       21 UNK        -0.5000 
    119 N         -3.9314  -18.6314  -55.2923 N.am      22 UNK        -0.5000 
    120 CA        -2.6892  -19.2084  -55.8253 C.3       22 UNK         0.1400 
    121 C         -2.5226  -19.0566  -57.3698 C.2       22 UNK         0.5000 
    122 N         -3.5743  -18.7470  -58.1217 N.am      22 UNK        -0.7600 
    123 O         -1.4347  -19.2482  -57.9058 O.2       22 UNK        -0.5000 
    124 C124       -1.4302  -18.7985  -55.0026 C.3       23 UNK        -0.0398 
    125 S125       -0.3388  -20.2211  -54.6620 S.3       23 UNK        -0.2404 
    126 C126       -0.9187  -20.7280  -53.0125 C.3       23 UNK        -0.0205 
    127 H127        2.5167  -16.0624  -51.4465 H         1 UNK         0.0600 
    128 H128        3.6423  -16.4104  -50.1326 H         1 UNK         0.0600 
    129 H129        3.7898  -14.9043  -51.0424 H         1 UNK         0.0600 
    130 H130        2.6443  -16.1853  -48.1707 H         1 UNK         0.3000 
    131 H131        1.4137  -15.5435  -46.4814 H         1 UNK         0.0600 
    132 H132       -0.8991  -14.7041  -46.7514 H         1 UNK         0.0800 
    133 H133       -0.6434  -14.4629  -48.4560 H         1 UNK         0.0800 
    134 H134       -2.0522  -16.9559  -49.8816 H         1 UNK         0.0800 
    135 H135       -0.5901  -16.0388  -50.1357 H         1 UNK         0.0800 
    136 H136       -1.8952  -18.5900  -51.6112 H         1 UNK         0.1150 
    137 H137        1.5518  -21.1148  -51.9546 H         1 UNK         0.1150 
    138 H138        1.5010  -17.9504  -49.0774 H         1 UNK         0.1150 
    139 H139        3.7002  -20.0591  -50.9475 H         1 UNK         0.0800 
    140 H140        3.5550  -19.1076  -49.4938 H         1 UNK         0.0800 
    141 H141        1.8416  -20.0617  -47.5651 H         1 UNK         0.0800 
    142 H142        3.3883  -20.4879  -46.8951 H         1 UNK         0.0800 
    143 H143        2.5467  -22.9345  -46.8310 H         1 UNK         0.0600 
    144 H144        1.8680  -20.8562  -44.9087 H         1 UNK         0.3000 
    145 H145        2.3283  -23.2261  -42.2083 H         1 UNK         0.0600 
    146 H146        3.7319  -21.2840  -41.6094 H         1 UNK         0.0600 
    147 H147        3.5918  -20.6310  -43.2374 H         1 UNK         0.0600 
    148 H148        4.4310  -22.1522  -42.9675 H         1 UNK         0.0600 
    149 H149        1.1685  -20.5321  -42.6606 H         1 UNK         0.3000 
    150 H150       -2.0334  -21.4866  -41.6672 H         1 UNK         0.0600 
    151 H151       -1.0384  -21.3852  -39.3591 H         1 UNK         0.0600 
    152 H152       -1.8932  -19.9095  -39.7752 H         1 UNK         0.0600 
    153 H153       -0.1306  -19.9486  -39.8208 H         1 UNK         0.0600 
    154 H154       -0.9290  -18.8933  -41.8966 H         1 UNK         0.3000 
    155 H155       -0.8084  -18.7137  -45.4800 H         1 UNK         0.0600 
    156 H156       -3.1518  -18.1845  -44.9075 H         1 UNK         0.0600 
    157 H157       -2.2087  -16.7023  -44.9492 H         1 UNK         0.0600 
    158 H158       -2.6521  -17.4277  -43.4036 H         1 UNK         0.0600 
    159 H159       -0.1688  -16.7674  -43.5374 H         1 UNK         0.3000 
    160 H160        3.2222  -17.7798  -42.9654 H         1 UNK         0.0600 
    161 H161        2.1684  -15.2816  -44.3525 H         1 UNK         0.0600 
    162 H162        3.1374  -16.5056  -45.1855 H         1 UNK         0.0600 
    163 H163        3.8157  -15.6337  -43.8309 H         1 UNK         0.0600 
    164 H164        1.3127  -15.6499  -42.1899 H         1 UNK         0.3000 
    165 H165        0.7528  -17.0361  -38.9795 H         1 UNK         0.0600 
    166 H166        1.5707  -14.8289  -38.1980 H         1 UNK         0.0600 
    167 H167        2.9260  -15.8481  -38.6572 H         1 UNK         0.0600 
    168 H168        2.3966  -14.5602  -39.7319 H         1 UNK         0.0600 
    169 H169       -0.0408  -14.5700  -40.1963 H         1 UNK         0.3000 
    170 H170       -2.9446  -15.7956  -41.8513 H         1 UNK         0.0600 
    171 H171       -2.7392  -14.2726  -39.2042 H         1 UNK         0.0600 
    172 H172       -4.1308  -14.3017  -40.2881 H         1 UNK         0.0600 
    173 H173       -3.6395  -15.7644  -39.4503 H         1 UNK         0.0600 
    174 H174       -2.2491  -13.1498  -41.4071 H         1 UNK         0.3000 
    175 H175       -1.1235  -12.5359  -44.4214 H         1 UNK         0.0600 
    176 H176       -1.1346  -11.3282  -41.5960 H         1 UNK         0.0600 
    177 H177       -1.1841  -10.4234  -43.1022 H         1 UNK         0.0600 
    178 H178       -2.5221  -11.4699  -42.6761 H         1 UNK         0.0600 
    179 H179        1.0458  -12.2176  -44.4176 H         1 UNK         0.3000 
    180 H180        3.3335  -11.1556  -42.5534 H         1 UNK         0.0600 
    181 H181        5.0072  -13.0594  -42.3318 H         1 UNK         0.0600 
    182 H182        3.6497  -14.1609  -42.0906 H         1 UNK         0.0600 
    183 H183        3.9428  -12.8608  -40.9516 H         1 UNK         0.0600 
    184 H184        3.4522  -13.3361  -44.5627 H         1 UNK         0.3000 
    185 H185        2.9715  -11.1241  -47.2712 H         1 UNK         0.0600 
    186 H186        5.0899  -12.0935  -48.1091 H         1 UNK         0.0600 
    187 H187        5.4298  -10.9007  -46.8663 H         1 UNK         0.0600 
    188 H188        5.5321  -12.6148  -46.4827 H         1 UNK         0.0600 
    189 H189        3.5333  -13.8748  -47.3000 H         1 UNK         0.3000 
    190 H190       -0.2020  -20.5882  -46.7889 H         1 UNK         0.3000 
    191 H191       -1.6590  -21.8445  -48.8053 H         1 UNK         0.0600 
    192 H192       -2.0214  -19.5104  -48.2198 H         1 UNK         0.0600 
    193 H193       -2.5611  -19.9334  -46.5932 H         1 UNK         0.0600 
    194 H194       -3.5402  -20.3561  -47.9770 H         1 UNK         0.0600 
    195 H195       -1.7334  -22.5338  -45.3570 H         1 UNK         0.3000 
    196 H196       -4.0595  -24.1346  -45.2250 H         1 UNK         0.0600 
    197 H197       -2.8312  -23.2943  -43.2376 H         1 UNK         0.0600 
    198 H198       -1.4465  -24.3125  -43.6317 H         1 UNK         0.0600 
    199 H199       -2.9763  -25.0437  -43.1591 H         1 UNK         0.0600 
    200 H200       -0.8710  -24.8884  -46.5355 H         1 UNK         0.3000 
    201 H201       -1.5809  -27.7685  -46.9256 H         1 UNK         0.0600 
    202 H202        0.6057  -27.3634  -45.8277 H         1 UNK         0.0600 
    203 H203        1.1052  -26.3066  -47.1450 H         1 UNK         0.0600 
    204 H204        0.8405  -28.0218  -47.4402 H         1 UNK         0.0600 
    205 H205       -0.4309  -24.7966  -48.5749 H         1 UNK         0.3000 
    206 H206       -0.6921  -25.8915  -51.2577 H         1 UNK         0.0600 
    207 H207       -0.1290  -23.0316  -50.3059 H         1 UNK         0.0600 
    208 H208        1.0976  -24.2617  -50.5845 H         1 UNK         0.0600 
    209 H209        0.1239  -23.6840  -51.9226 H         1 UNK         0.0600 
    210 H210       -2.9318  -26.5446  -50.8652 H         1 UNK         0.3000 
    211 H211       -5.1177  -24.9903  -50.3367 H         1 UNK         0.0600 
    212 H212       -4.9445  -27.4517  -52.1552 H         1 UNK         0.0600 
    213 H213       -6.4173  -26.8495  -51.4030 H         1 UNK         0.0600 
    214 H214       -5.1146  -27.4648  -50.3993 H         1 UNK         0.0600 
    215 H215       -3.3559  -24.8064  -53.2751 H         1 UNK         0.3000 
    216 H216       -5.2422  -23.7555  -55.1109 H         1 UNK         0.0600 
    217 H217       -3.2081  -22.7803  -56.1905 H         1 UNK         0.0600 
    218 H218       -2.9283  -24.4505  -55.7284 H         1 UNK         0.0600 
    219 H219       -2.2545  -23.1410  -54.7565 H         1 UNK         0.0600 
    220 H220       -3.9515  -22.3583  -52.1836 H         1 UNK         0.3000 
    221 H221       -4.2678  -19.6018  -52.6099 H         1 UNK         0.0600 
    222 H222       -4.7197  -21.2618  -50.0760 H         1 UNK         0.0600 
    223 H223       -3.1742  -20.6241  -50.6242 H         1 UNK         0.0600 
    224 H224       -4.4492  -19.5206  -50.1292 H         1 UNK         0.0600 
    225 H225       -6.7629  -22.0648  -52.2679 H         1 UNK         0.3000 
    226 H226       -8.9901  -20.3682  -51.6607 H         1 UNK         0.0600 
    227 H227       -9.0335  -22.8448  -51.3987 H         1 UNK         0.0600 
    228 H228      -10.3112  -22.3177  -52.4840 H         1 UNK         0.0600 
    229 H229       -8.8520  -23.0512  -53.1400 H         1 UNK         0.0600 
    230 H230       -7.1397  -20.8605  -54.5847 H         1 UNK         0.3000 
    231 H231       -9.0429  -19.2327  -56.2143 H         1 UNK         0.0600 
    232 H232       -7.9832  -20.3146  -58.1693 H         1 UNK         0.0600 
    233 H233       -8.6348  -21.5500  -57.1059 H         1 UNK         0.0600 
    234 H234       -6.9009  -21.2310  -57.1257 H         1 UNK         0.0600 
    235 H235       -7.0824  -18.3748  -54.1340 H         1 UNK         0.3000 
    236 H236       -5.6050  -16.8158  -53.6862 H         1 UNK         0.0600 
    237 H237       -6.1680  -15.6863  -56.4778 H         1 UNK         0.0600 
    238 H238       -7.1592  -15.3953  -55.0488 H         1 UNK         0.0600 
    239 H239       -5.5072  -14.8071  -55.1066 H         1 UNK         0.0600 
    240 H240       -4.6587  -19.3096  -55.0927 H         1 UNK         0.3000 
    241 H241       -2.8346  -20.2797  -55.6929 H         1 UNK         0.0600 
    242 H242       -4.4884  -18.5921  -57.7112 H         1 UNK         0.3800 
    243 H243       -3.4583  -18.6608  -59.1189 H         1 UNK         0.3800 
    244 H244       -1.7156  -18.3555  -54.0486 H         1 UNK         0.0800 
    245 H245       -0.8570  -18.0230  -55.5132 H         1 UNK         0.0800 
    246 H246       -1.9990  -20.6173  -52.9588 H         1 UNK         0.0800 
    247 H247       -0.7201  -21.7906  -52.8802 H         1 UNK         0.0800 
@<TRIPOS>BOND
     1    1    2 1    
     2    1  127 1    
     3    1  128 1    
     4    1  129 1    
     5    2    3 2    
     6    2    4 am   BACKBONE|DICT|INTERRES
     7    4    5 1    
     8    4  130 1    
     9    5    6 1    
    10    5   65 1    
    11    5  131 1    
    12    6    7 1    
    13    6  132 1    
    14    6  133 1    
    15    7    8 1    
    16    8    9 1    
    17    8  134 1    
    18    8  135 1    
    19    9   10 ar   
    20    9   14 ar   
    21   10   11 ar   
    22   10  136 1    
    23   11   12 ar   
    24   11  126 1    
    25   12   13 ar   
    26   12  137 1    
    27   13   14 ar   
    28   13   15 1    
    29   14  138 1    
    30   15   16 1    
    31   15  139 1    
    32   15  140 1    
    33   16   17 1    
    34   17   18 1    
    35   17  141 1    
    36   17  142 1    
    37   18   19 1    
    38   18   67 1    
    39   18  143 1    
    40   19   20 am   BACKBONE|DICT|INTERRES
    41   19  144 1    
    42   20   21 2    
    43   20   22 1    
    44   22   23 1    
    45   22   24 1    
    46   22  145 1    
    47   23  146 1    
    48   23  147 1    
    49   23  148 1    
    50   24   25 am   BACKBONE|DICT|INTERRES
    51   24  149 1    
    52   25   26 2    
    53   25   27 1    
    54   27   28 1    
    55   27   29 1    
    56   27  150 1    
    57   28  151 1    
    58   28  152 1    
    59   28  153 1    
    60   29   30 am   BACKBONE|DICT|INTERRES
    61   29  154 1    
    62   30   31 2    
    63   30   32 1    
    64   32   33 1    
    65   32   34 1    
    66   32  155 1    
    67   33  156 1    
    68   33  157 1    
    69   33  158 1    
    70   34   35 am   BACKBONE|DICT|INTERRES
    71   34  159 1    
    72   35   36 2    
    73   35   37 1    
    74   37   38 1    
    75   37   39 1    
    76   37  160 1    
    77   38  161 1    
    78   38  162 1    
    79   38  163 1    
    80   39   40 am   BACKBONE|DICT|INTERRES
    81   39  164 1    
    82   40   41 2    
    83   40   42 1    
    84   42   43 1    
    85   42   44 1    
    86   42  165 1    
    87   43  166 1    
    88   43  167 1    
    89   43  168 1    
    90   44   45 am   BACKBONE|DICT|INTERRES
    91   44  169 1    
    92   45   46 2    
    93   45   47 1    
    94   47   48 1    
    95   47   49 1    
    96   47  170 1    
    97   48  171 1    
    98   48  172 1    
    99   48  173 1    
   100   49   50 am   BACKBONE|DICT|INTERRES
   101   49  174 1    
   102   50   51 2    
   103   50   52 1    
   104   52   53 1    
   105   52   54 1    
   106   52  175 1    
   107   53  176 1    
   108   53  177 1    
   109   53  178 1    
   110   54   55 am   BACKBONE|DICT|INTERRES
   111   54  179 1    
   112   55   56 2    
   113   55   57 1    
   114   57   58 1    
   115   57   59 1    
   116   57  180 1    
   117   58  181 1    
   118   58  182 1    
   119   58  183 1    
   120   59   60 am   BACKBONE|DICT|INTERRES
   121   59  184 1    
   122   60   61 2    
   123   60   62 1    
   124   62   63 1    
   125   62   64 1    
   126   62  185 1    
   127   63  186 1    
   128   63  187 1    
   129   63  188 1    
   130   64   65 am   BACKBONE|DICT|INTERRES
   131   64  189 1    
   132   65   66 2    
   133   67   68 2    
   134   67   69 am   BACKBONE|DICT|INTERRES
   135   69   70 1    
   136   69  190 1    
   137   70   71 1    
   138   70   72 1    
   139   70  191 1    
   140   71  192 1    
   141   71  193 1    
   142   71  194 1    
   143   72   73 2    
   144   72   74 am   BACKBONE|DICT|INTERRES
   145   74   75 1    
   146   74  195 1    
   147   75   76 1    
   148   75   77 1    
   149   75  196 1    
   150   76  197 1    
   151   76  198 1    
   152   76  199 1    
   153   77   78 2    
   154   77   79 am   BACKBONE|DICT|INTERRES
   155   79   80 1    
   156   79  200 1    
   157   80   81 1    
   158   80   82 1    
   159   80  201 1    
   160   81  202 1    
   161   81  203 1    
   162   81  204 1    
   163   82   83 2    
   164   82   84 am   BACKBONE|DICT|INTERRES
   165   84   85 1    
   166   84  205 1    
   167   85   86 1    
   168   85   87 1    
   169   85  206 1    
   170   86  207 1    
   171   86  208 1    
   172   86  209 1    
   173   87   88 2    
   174   87   89 am   BACKBONE|DICT|INTERRES
   175   89   90 1    
   176   89  210 1    
   177   90   91 1    
   178   90   92 1    
   179   90  211 1    
   180   91  212 1    
   181   91  213 1    
   182   91  214 1    
   183   92   93 2    
   184   92   94 am   BACKBONE|DICT|INTERRES
   185   94   95 1    
   186   94  215 1    
   187   95   96 1    
   188   95   97 1    
   189   95  216 1    
   190   96  217 1    
   191   96  218 1    
   192   96  219 1    
   193   97   98 2    
   194   97   99 am   BACKBONE|DICT|INTERRES
   195   99  100 1    
   196   99  220 1    
   197  100  101 1    
   198  100  102 1    
   199  100  221 1    
   200  101  222 1    
   201  101  223 1    
   202  101  224 1    
   203  102  103 2    
   204  102  104 am   BACKBONE|DICT|INTERRES
   205  104  105 1    
   206  104  225 1    
   207  105  106 1    
   208  105  107 1    
   209  105  226 1    
   210  106  227 1    
   211  106  228 1    
   212  106  229 1    
   213  107  108 2    
   214  107  109 am   BACKBONE|DICT|INTERRES
   215  109  110 1    
   216  109  230 1    
   217  110  111 1    
   218  110  112 1    
   219  110  231 1    
   220  111  232 1    
   221  111  233 1    
   222  111  234 1    
   223  112  113 2    
   224  112  114 am   BACKBONE|DICT|INTERRES
   225  114  115 1    
   226  114  235 1    
   227  115  116 1    
   228  115  117 1    
   229  115  236 1    
   230  116  237 1    
   231  116  238 1    
   232  116  239 1    
   233  117  118 2    
   234  117  119 am   BACKBONE|DICT|INTERRES
   235  119  120 1    
   236  119  240 1    
   237  120  121 1    
   238  120  124 1    
   239  120  241 1    
   240  121  122 am   BACKBONE|DICT|INTERRES
   241  121  123 2    
   242  122  242 1    
   243  122  243 1    
   244  124  125 1    
   245  124  244 1    
   246  124  245 1    
   247  125  126 1    
   248  126  246 1    
   249  126  247 1    
@<TRIPOS>SUBSTRUCTURE
     1 UNK         1 GROUP             0       ****    0 ROOT    
