@<TRIPOS>MOLECULE
3R540
247   249    1
SMALL
USER_CHARGES


@<TRIPOS>ATOM
      1 CA          3.6652  -16.4698  -50.1207 C.3       0 UNK        -0.1800 
      2 C           2.8857  -16.1768  -48.8475 C.2       0 UNK         0.5000 
      3 O           3.4618  -16.1876  -47.7591 O.2       0 UNK        -0.5000 
      4 N           1.5811  -15.9066  -48.9779 N.am      1 UNK        -0.5000 
      5 CA          0.7119  -15.4869  -47.8772 C.3       1 UNK         0.1400 
      6 C6         -0.7913  -15.7164  -48.1957 C.3       23 UNK        -0.0398 
      7 S7         -1.4443  -14.7401  -49.5979 S.3       23 UNK        -0.2404 
      8 C8         -1.9589  -16.0376  -50.7653 C.3       23 UNK        -0.0205 
      9 C9         -0.7619  -16.7544  -51.3662 C.ar      23 UNK        -0.0193 
     10 C10         0.0146  -16.1208  -52.3385 C.ar      23 UNK        -0.1150 
     11 C11         1.1236  -16.7644  -52.8938 C.ar      23 UNK        -0.0193 
     12 C12         1.4596  -18.0495  -52.4586 C.ar      23 UNK        -0.1150 
     13 C13         0.6836  -18.6964  -51.4921 C.ar      23 UNK        -0.0193 
     14 C14        -0.4315  -18.0479  -50.9563 C.ar      23 UNK        -0.1150 
     15 C15         1.0380  -20.1037  -51.0451 C.3       23 UNK        -0.0205 
     16 S16         2.2086  -20.1086  -49.6505 S.3       23 UNK        -0.2404 
     17 C17         1.1544  -19.7299  -48.2057 C.3       23 UNK        -0.0398 
     18 CA          0.5543  -21.0115  -47.5662 C.3       11 UNK         0.1400 
     19 N           0.7071  -21.0706  -46.1106 N.am      11 UNK        -0.5000 
     20 C           0.6138  -22.2135  -45.4145 C.2       10 UNK         0.5000 
     21 O           0.3649  -23.3053  -45.9276 O.2       10 UNK        -0.5000 
     22 CA          0.8045  -22.1288  -43.8920 C.3       10 UNK         0.1400 
     23 CB          2.2879  -21.9417  -43.5414 C.3       10 UNK        -0.1800 
     24 N           0.0041  -21.0764  -43.2664 N.am      10 UNK        -0.5000 
     25 C          -1.3366  -21.0375  -43.2775 C.2       9 UNK         0.5000 
     26 O          -2.0431  -21.8658  -43.8520 O.2       9 UNK        -0.5000 
     27 CA         -2.0035  -19.8584  -42.5484 C.3       9 UNK         0.1400 
     28 CB         -1.9467  -20.0529  -41.0256 C.3       9 UNK        -0.1800 
     29 N          -1.4106  -18.5699  -42.8984 N.am      9 UNK        -0.5000 
     30 C          -1.4073  -18.0457  -44.1315 C.2       8 UNK         0.5000 
     31 O          -1.9152  -18.5817  -45.1155 O.2       8 UNK        -0.5000 
     32 CA         -0.6385  -16.7285  -44.3128 C.3       8 UNK         0.1400 
     33 CB         -1.3934  -15.5444  -43.6895 C.3       8 UNK        -0.1800 
     34 N           0.7214  -16.8012  -43.7796 N.am      8 UNK        -0.5000 
     35 C           1.6428  -17.6953  -44.1729 C.2       7 UNK         0.5000 
     36 O           1.4675  -18.5137  -45.0744 O.2       7 UNK        -0.5000 
     37 CA          2.9689  -17.7052  -43.4013 C.3       7 UNK         0.1400 
     38 CB          3.9141  -16.6419  -43.9684 C.3       7 UNK        -0.1800 
     39 N           2.7675  -17.4876  -41.9688 N.am      7 UNK        -0.5000 
     40 C           2.1905  -18.3808  -41.1512 C.2       6 UNK         0.5000 
     41 O           1.7882  -19.4852  -41.5162 O.2       6 UNK        -0.5000 
     42 CA          1.9803  -17.9436  -39.6914 C.3       6 UNK         0.1400 
     43 CB          3.2954  -18.0197  -38.9009 C.3       6 UNK        -0.1800 
     44 N           1.4263  -16.5939  -39.5904 N.am      6 UNK        -0.5000 
     45 C           0.2177  -16.2344  -40.0447 C.2       5 UNK         0.5000 
     46 O          -0.5764  -17.0145  -40.5703 O.2       5 UNK        -0.5000 
     47 CA         -0.1539  -14.7456  -39.9233 C.3       5 UNK         0.1400 
     48 CB         -0.8810  -14.4817  -38.5965 C.3       5 UNK        -0.1800 
     49 N           0.9888  -13.8342  -40.0376 N.am      5 UNK        -0.5000 
     50 C           1.7670  -13.7063  -41.1207 C.2       4 UNK         0.5000 
     51 O           1.6421  -14.4025  -42.1338 O.2       4 UNK        -0.5000 
     52 CA          2.8399  -12.6009  -41.0397 C.3       4 UNK         0.1400 
     53 CB          3.9498  -12.9472  -40.0255 C.3       4 UNK        -0.1800 
     54 N           3.3659  -12.2568  -42.3650 N.am      4 UNK        -0.5000 
     55 C           4.2435  -12.9249  -43.1264 C.2       3 UNK         0.5000 
     56 O           4.9680  -13.8341  -42.7202 O.2       3 UNK        -0.5000 
     57 CA          4.2585  -12.5259  -44.6190 C.3       3 UNK         0.1400 
     58 CB          5.2920  -13.3136  -45.4446 C.3       3 UNK        -0.1800 
     59 N           2.9337  -12.7222  -45.2156 N.am      3 UNK        -0.5000 
     60 C           1.8955  -11.8843  -45.0948 C.2       2 UNK         0.5000 
     61 O           1.9809  -10.7976  -44.5199 O.2       2 UNK        -0.5000 
     62 CA          0.5194  -12.3469  -45.6163 C.3       2 UNK         0.1400 
     63 CB         -0.1492  -11.2849  -46.5136 C.3       2 UNK        -0.1800 
     64 N           0.4985  -13.6757  -46.2450 N.am      2 UNK        -0.5000 
     65 C           1.0023  -14.0320  -47.4355 C.2       1 UNK         0.5000 
     66 O           1.6448  -13.2719  -48.1639 O.2       1 UNK        -0.5000 
     67 C          -0.9049  -21.2614  -47.9955 C.2       11 UNK         0.5000 
     68 O          -1.1194  -21.9479  -48.9927 O.2       11 UNK        -0.5000 
     69 N          -1.8871  -20.7696  -47.2215 N.am      12 UNK        -0.5000 
     70 CA         -3.3057  -21.0622  -47.4463 C.3       12 UNK         0.1400 
     71 CB         -4.1902  -20.2176  -46.5198 C.3       12 UNK        -0.1800 
     72 C          -3.6307  -22.5572  -47.2891 C.2       12 UNK         0.5000 
     73 O          -4.3541  -23.1001  -48.1236 O.2       12 UNK        -0.5000 
     74 N          -3.0641  -23.2034  -46.2596 N.am      13 UNK        -0.5000 
     75 CA         -3.1758  -24.6439  -46.0254 C.3       13 UNK         0.1400 
     76 CB         -2.5834  -25.0007  -44.6541 C.3       13 UNK        -0.1800 
     77 C          -2.5210  -25.4761  -47.1423 C.2       13 UNK         0.5000 
     78 O          -3.1350  -26.4309  -47.6200 O.2       13 UNK        -0.5000 
     79 N          -1.3182  -25.0714  -47.5782 N.am      14 UNK        -0.5000 
     80 CA         -0.5950  -25.6707  -48.7053 C.3       14 UNK         0.1400 
     81 CB          0.8034  -25.0446  -48.8114 C.3       14 UNK        -0.1800 
     82 C          -1.3516  -25.5396  -50.0422 C.2       14 UNK         0.5000 
     83 O          -1.3285  -26.4668  -50.8516 O.2       14 UNK        -0.5000 
     84 N          -2.0509  -24.4122  -50.2199 N.am      15 UNK        -0.5000 
     85 CA         -2.9458  -24.1215  -51.3387 C.3       15 UNK         0.1400 
     86 CB         -2.9797  -22.5983  -51.5557 C.3       15 UNK        -0.1800 
     87 C          -4.3655  -24.7078  -51.1632 C.2       15 UNK         0.5000 
     88 O          -5.2644  -24.3076  -51.9003 O.2       15 UNK        -0.5000 
     89 N          -4.5601  -25.6305  -50.2074 N.am      16 UNK        -0.5000 
     90 CA         -5.7948  -26.3754  -49.9327 C.3       16 UNK         0.1400 
     91 CB         -6.1121  -27.3413  -51.0938 C.3       16 UNK        -0.1800 
     92 C          -6.9797  -25.4573  -49.5688 C.2       16 UNK         0.5000 
     93 O          -8.0380  -25.5250  -50.1959 O.2       16 UNK        -0.5000 
     94 N          -6.7520  -24.6018  -48.5634 N.am      17 UNK        -0.5000 
     95 CA         -7.6331  -23.5336  -48.0800 C.3       17 UNK         0.1400 
     96 CB         -8.9920  -24.0787  -47.5905 C.3       17 UNK        -0.1800 
     97 C          -7.7519  -22.3888  -49.1057 C.2       17 UNK         0.5000 
     98 O          -8.8464  -21.8773  -49.3480 O.2       17 UNK        -0.5000 
     99 N          -6.5971  -22.0115  -49.6749 N.am      18 UNK        -0.5000 
    100 CA        -6.3896  -20.9362  -50.6500 C.3       18 UNK         0.1400 
    101 CB        -6.6093  -19.5596  -49.9890 C.3       18 UNK        -0.1800 
    102 C         -7.1863  -21.1161  -51.9611 C.2       18 UNK         0.5000 
    103 O         -7.6641  -20.1356  -52.5357 O.2       18 UNK        -0.5000 
    104 N         -7.3023  -22.3661  -52.4255 N.am      19 UNK        -0.5000 
    105 CA        -7.9485  -22.7414  -53.6786 C.3       19 UNK         0.1400 
    106 CB        -8.3402  -24.2277  -53.6127 C.3       19 UNK        -0.1800 
    107 C         -7.0031  -22.4383  -54.8541 C.2       19 UNK         0.5000 
    108 O         -6.1455  -23.2611  -55.1791 O.2       19 UNK        -0.5000 
    109 N         -7.1568  -21.2382  -55.4329 N.am      20 UNK        -0.5000 
    110 CA        -6.3086  -20.6445  -56.4736 C.3       20 UNK         0.1400 
    111 CB        -6.3939  -21.4432  -57.7918 C.3       20 UNK        -0.1800 
    112 C         -4.8634  -20.4326  -55.9764 C.2       20 UNK         0.5000 
    113 O         -3.9057  -20.8801  -56.6129 O.2       20 UNK        -0.5000 
    114 N         -4.7439  -19.7639  -54.8195 N.am      21 UNK        -0.5000 
    115 CA        -3.4824  -19.4297  -54.1566 C.3       21 UNK         0.1400 
    116 CB        -3.7816  -18.6524  -52.8676 C.3       21 UNK        -0.1800 
    117 C         -2.5299  -18.6339  -55.0707 C.2       21 UNK         0.5000 
    118 O         -2.9507  -17.6567  -55.6943 O.2       21 UNK        -0.5000 
    119 N         -1.2780  -19.0966  -55.1454 N.am      22 UNK        -0.5000 
    120 CA        -0.2273  -18.6367  -56.0690 C.3       22 UNK         0.1400 
    121 C         -0.4352  -19.0393  -57.5637 C.2       22 UNK         0.5000 
    122 N         -1.4386  -19.8336  -57.9201 N.am      22 UNK        -0.7600 
    123 O          0.3522  -18.6519  -58.4228 O.2       22 UNK        -0.5000 
    124 C124        0.1453  -17.1298  -55.8955 C.3       23 UNK        -0.0398 
    125 S125        1.9312  -16.9088  -55.5724 S.3       23 UNK        -0.2404 
    126 C126        1.9557  -16.0601  -53.9576 C.3       23 UNK        -0.0205 
    127 H127        3.1665  -16.0543  -50.9953 H         1 UNK         0.0600 
    128 H128        3.7718  -17.5451  -50.2606 H         1 UNK         0.0600 
    129 H129        4.6613  -16.0310  -50.0643 H         1 UNK         0.0600 
    130 H130        1.1602  -15.8902  -49.8967 H         1 UNK         0.3000 
    131 H131        0.9611  -16.1257  -47.0279 H         1 UNK         0.0600 
    132 H132       -1.4061  -15.4790  -47.3267 H         1 UNK         0.0800 
    133 H133       -0.9631  -16.7774  -48.3771 H         1 UNK         0.0800 
    134 H134       -2.6273  -16.7392  -50.2635 H         1 UNK         0.0800 
    135 H135       -2.5427  -15.5815  -51.5662 H         1 UNK         0.0800 
    136 H136       -0.2483  -15.1228  -52.6607 H         1 UNK         0.1150 
    137 H137        2.3207  -18.5486  -52.8806 H         1 UNK         0.1150 
    138 H138       -1.0427  -18.5505  -50.2204 H         1 UNK         0.1150 
    139 H139        0.1370  -20.6599  -50.7911 H         1 UNK         0.0800 
    140 H140        1.4926  -20.6437  -51.8768 H         1 UNK         0.0800 
    141 H141        0.3970  -18.9879  -48.4558 H         1 UNK         0.0800 
    142 H142        1.8137  -19.2287  -47.4977 H         1 UNK         0.0800 
    143 H143        1.1238  -21.8620  -47.9471 H         1 UNK         0.0600 
    144 H144        0.9114  -20.1966  -45.6299 H         1 UNK         0.3000 
    145 H145        0.4788  -23.0813  -43.4689 H         1 UNK         0.0600 
    146 H146        2.4477  -21.9953  -42.4645 H         1 UNK         0.0600 
    147 H147        2.8997  -22.7203  -43.9988 H         1 UNK         0.0600 
    148 H148        2.6652  -20.9800  -43.8893 H         1 UNK         0.0600 
    149 H149        0.5156  -20.3654  -42.7520 H         1 UNK         0.3000 
    150 H150       -3.0530  -19.8339  -42.8491 H         1 UNK         0.0600 
    151 H151       -2.3875  -21.0076  -40.7358 H         1 UNK         0.0600 
    152 H152       -2.4992  -19.2682  -40.5086 H         1 UNK         0.0600 
    153 H153       -0.9209  -20.0362  -40.6550 H         1 UNK         0.0600 
    154 H154       -0.9744  -18.0509  -42.1407 H         1 UNK         0.3000 
    155 H155       -0.5575  -16.5515  -45.3831 H         1 UNK         0.0600 
    156 H156       -1.6360  -15.7241  -42.6431 H         1 UNK         0.0600 
    157 H157       -0.8133  -14.6237  -43.7390 H         1 UNK         0.0600 
    158 H158       -2.3347  -15.3691  -44.2116 H         1 UNK         0.0600 
    159 H159        0.9662  -16.1464  -43.0442 H         1 UNK         0.3000 
    160 H160        3.4364  -18.6824  -43.5364 H         1 UNK         0.0600 
    161 H161        3.4592  -15.6527  -43.9333 H         1 UNK         0.0600 
    162 H162        4.1543  -16.8518  -45.0115 H         1 UNK         0.0600 
    163 H163        4.8536  -16.6049  -43.4169 H         1 UNK         0.0600 
    164 H164        3.0206  -16.5797  -41.6063 H         1 UNK         0.3000 
    165 H165        1.2679  -18.6353  -39.2365 H         1 UNK         0.0600 
    166 H166        3.1348  -17.7926  -37.8469 H         1 UNK         0.0600 
    167 H167        3.7249  -19.0210  -38.9547 H         1 UNK         0.0600 
    168 H168        4.0402  -17.3216  -39.2850 H         1 UNK         0.0600 
    169 H169        2.0131  -15.8859  -39.1749 H         1 UNK         0.3000 
    170 H170       -0.8421  -14.5124  -40.7375 H         1 UNK         0.0600 
    171 H171       -0.2325  -14.6633  -37.7384 H         1 UNK         0.0600 
    172 H172       -1.2361  -13.4526  -38.5384 H         1 UNK         0.0600 
    173 H173       -1.7521  -15.1302  -38.4928 H         1 UNK         0.0600 
    174 H174        1.1532  -13.2278  -39.2469 H         1 UNK         0.3000 
    175 H175        2.3391  -11.6978  -40.6876 H         1 UNK         0.0600 
    176 H176        4.7531  -12.2109  -40.0507 H         1 UNK         0.0600 
    177 H177        4.3857  -13.9289  -40.2128 H         1 UNK         0.0600 
    178 H178        3.5577  -12.9612  -39.0082 H         1 UNK         0.0600 
    179 H179        2.8285  -11.5471  -42.8529 H         1 UNK         0.3000 
    180 H180        4.5270  -11.4688  -44.6733 H         1 UNK         0.0600 
    181 H181        5.0748  -14.3819  -45.4548 H         1 UNK         0.0600 
    182 H182        6.2967  -13.1847  -45.0403 H         1 UNK         0.0600 
    183 H183        5.3122  -12.9695  -46.4788 H         1 UNK         0.0600 
    184 H184        2.7795  -13.6033  -45.6823 H         1 UNK         0.3000 
    185 H185       -0.1026  -12.4428  -44.7253 H         1 UNK         0.0600 
    186 H186       -0.2934  -10.3500  -45.9707 H         1 UNK         0.0600 
    187 H187        0.4519  -11.0562  -47.3938 H         1 UNK         0.0600 
    188 H188       -1.1308  -11.6156  -46.8532 H         1 UNK         0.0600 
    189 H189        0.0147  -14.3769  -45.7058 H         1 UNK         0.3000 
    190 H190       -1.6626  -20.2020  -46.4108 H         1 UNK         0.3000 
    191 H191       -3.5424  -20.7823  -48.4750 H         1 UNK         0.0600 
    192 H192       -4.0490  -19.1529  -46.7052 H         1 UNK         0.0600 
    193 H193       -5.2466  -20.4362  -46.6813 H         1 UNK         0.0600 
    194 H194       -3.9711  -20.4092  -45.4687 H         1 UNK         0.0600 
    195 H195       -2.5172  -22.6765  -45.5845 H         1 UNK         0.3000 
    196 H196       -4.2383  -24.8950  -46.0070 H         1 UNK         0.0600 
    197 H197       -2.6625  -26.0710  -44.4601 H         1 UNK         0.0600 
    198 H198       -3.1120  -24.4852  -43.8522 H         1 UNK         0.0600 
    199 H199       -1.5294  -24.7306  -44.5857 H         1 UNK         0.0600 
    200 H200       -0.8584  -24.3021  -47.0994 H         1 UNK         0.3000 
    201 H201       -0.4768  -26.7352  -48.4937 H         1 UNK         0.0600 
    202 H202        1.3624  -25.1647  -47.8832 H         1 UNK         0.0600 
    203 H203        0.7509  -23.9794  -49.0362 H         1 UNK         0.0600 
    204 H204        1.3831  -25.5180  -49.6047 H         1 UNK         0.0600 
    205 H205       -1.9557  -23.6752  -49.5279 H         1 UNK         0.3000 
    206 H206       -2.5348  -24.5739  -52.2432 H         1 UNK         0.0600 
    207 H207       -1.9854  -22.2132  -51.7825 H         1 UNK         0.0600 
    208 H208       -3.6290  -22.3249  -52.3884 H         1 UNK         0.0600 
    209 H209       -3.3373  -22.0811  -50.6663 H         1 UNK         0.0600 
    210 H210       -3.7809  -25.8563  -49.6012 H         1 UNK         0.3000 
    211 H211       -5.5957  -26.9830  -49.0487 H         1 UNK         0.0600 
    212 H212       -6.3488  -26.8073  -52.0147 H         1 UNK         0.0600 
    213 H213       -6.9685  -27.9721  -50.8531 H         1 UNK         0.0600 
    214 H214       -5.2695  -28.0022  -51.2971 H         1 UNK         0.0600 
    215 H215       -5.8074  -24.5608  -48.1970 H         1 UNK         0.3000 
    216 H216       -7.1303  -23.1043  -47.2120 H         1 UNK         0.0600 
    217 H217       -9.5614  -23.2983  -47.0846 H         1 UNK         0.0600 
    218 H218       -8.8573  -24.8942  -46.8801 H         1 UNK         0.0600 
    219 H219       -9.6077  -24.4454  -48.4119 H         1 UNK         0.0600 
    220 H220       -5.7618  -22.5077  -49.3799 H         1 UNK         0.3000 
    221 H221       -5.3412  -20.9914  -50.9360 H         1 UNK         0.0600 
    222 H222       -7.6498  -19.4131  -49.6979 H         1 UNK         0.0600 
    223 H223       -5.9924  -19.4477  -49.0975 H         1 UNK         0.0600 
    224 H224       -6.3441  -18.7483  -50.6677 H         1 UNK         0.0600 
    225 H225       -6.7810  -23.1076  -51.9652 H         1 UNK         0.3000 
    226 H226       -8.8653  -22.1605  -53.8001 H         1 UNK         0.0600 
    227 H227       -9.0401  -24.4131  -52.7976 H         1 UNK         0.0600 
    228 H228       -8.8224  -24.5455  -54.5376 H         1 UNK         0.0600 
    229 H229       -7.4731  -24.8704  -53.4550 H         1 UNK         0.0600 
    230 H230       -7.8616  -20.6236  -55.0469 H         1 UNK         0.3000 
    231 H231       -6.7123  -19.6504  -56.6709 H         1 UNK         0.0600 
    232 H232       -5.9612  -22.4394  -57.6971 H         1 UNK         0.0600 
    233 H233       -5.8557  -20.9311  -58.5902 H         1 UNK         0.0600 
    234 H234       -7.4277  -21.5561  -58.1179 H         1 UNK         0.0600 
    235 H235       -5.5856  -19.4317  -54.3717 H         1 UNK         0.3000 
    236 H236       -3.0043  -20.3723  -53.8830 H         1 UNK         0.0600 
    237 H237       -4.4320  -19.2191  -52.2045 H         1 UNK         0.0600 
    238 H238       -2.8631  -18.4499  -52.3201 H         1 UNK         0.0600 
    239 H239       -4.2617  -17.6950  -53.0742 H         1 UNK         0.0600 
    240 H240       -1.0318  -19.9080  -54.5974 H         1 UNK         0.3000 
    241 H241        0.6325  -19.2363  -55.7683 H         1 UNK         0.0600 
    242 H242       -2.1294  -20.1623  -57.2540 H         1 UNK         0.3800 
    243 H243       -1.5367  -20.0876  -58.8902 H         1 UNK         0.3800 
    244 H244       -0.1204  -16.5417  -56.7755 H         1 UNK         0.0800 
    245 H245       -0.4245  -16.6757  -55.0861 H         1 UNK         0.0800 
    246 H246        2.9881  -15.9907  -53.6127 H         1 UNK         0.0800 
    247 H247        1.6124  -15.0341  -54.0992 H         1 UNK         0.0800 
@<TRIPOS>BOND
     1    1    2 1    
     2    1  127 1    
     3    1  128 1    
     4    1  129 1    
     5    2    3 2    
     6    2    4 am   BACKBONE|DICT|INTERRES
     7    4    5 1    
     8    4  130 1    
     9    5    6 1    
    10    5   65 1    
    11    5  131 1    
    12    6    7 1    
    13    6  132 1    
    14    6  133 1    
    15    7    8 1    
    16    8    9 1    
    17    8  134 1    
    18    8  135 1    
    19    9   10 ar   
    20    9   14 ar   
    21   10   11 ar   
    22   10  136 1    
    23   11   12 ar   
    24   11  126 1    
    25   12   13 ar   
    26   12  137 1    
    27   13   14 ar   
    28   13   15 1    
    29   14  138 1    
    30   15   16 1    
    31   15  139 1    
    32   15  140 1    
    33   16   17 1    
    34   17   18 1    
    35   17  141 1    
    36   17  142 1    
    37   18   19 1    
    38   18   67 1    
    39   18  143 1    
    40   19   20 am   BACKBONE|DICT|INTERRES
    41   19  144 1    
    42   20   21 2    
    43   20   22 1    
    44   22   23 1    
    45   22   24 1    
    46   22  145 1    
    47   23  146 1    
    48   23  147 1    
    49   23  148 1    
    50   24   25 am   BACKBONE|DICT|INTERRES
    51   24  149 1    
    52   25   26 2    
    53   25   27 1    
    54   27   28 1    
    55   27   29 1    
    56   27  150 1    
    57   28  151 1    
    58   28  152 1    
    59   28  153 1    
    60   29   30 am   BACKBONE|DICT|INTERRES
    61   29  154 1    
    62   30   31 2    
    63   30   32 1    
    64   32   33 1    
    65   32   34 1    
    66   32  155 1    
    67   33  156 1    
    68   33  157 1    
    69   33  158 1    
    70   34   35 am   BACKBONE|DICT|INTERRES
    71   34  159 1    
    72   35   36 2    
    73   35   37 1    
    74   37   38 1    
    75   37   39 1    
    76   37  160 1    
    77   38  161 1    
    78   38  162 1    
    79   38  163 1    
    80   39   40 am   BACKBONE|DICT|INTERRES
    81   39  164 1    
    82   40   41 2    
    83   40   42 1    
    84   42   43 1    
    85   42   44 1    
    86   42  165 1    
    87   43  166 1    
    88   43  167 1    
    89   43  168 1    
    90   44   45 am   BACKBONE|DICT|INTERRES
    91   44  169 1    
    92   45   46 2    
    93   45   47 1    
    94   47   48 1    
    95   47   49 1    
    96   47  170 1    
    97   48  171 1    
    98   48  172 1    
    99   48  173 1    
   100   49   50 am   BACKBONE|DICT|INTERRES
   101   49  174 1    
   102   50   51 2    
   103   50   52 1    
   104   52   53 1    
   105   52   54 1    
   106   52  175 1    
   107   53  176 1    
   108   53  177 1    
   109   53  178 1    
   110   54   55 am   BACKBONE|DICT|INTERRES
   111   54  179 1    
   112   55   56 2    
   113   55   57 1    
   114   57   58 1    
   115   57   59 1    
   116   57  180 1    
   117   58  181 1    
   118   58  182 1    
   119   58  183 1    
   120   59   60 am   BACKBONE|DICT|INTERRES
   121   59  184 1    
   122   60   61 2    
   123   60   62 1    
   124   62   63 1    
   125   62   64 1    
   126   62  185 1    
   127   63  186 1    
   128   63  187 1    
   129   63  188 1    
   130   64   65 am   BACKBONE|DICT|INTERRES
   131   64  189 1    
   132   65   66 2    
   133   67   68 2    
   134   67   69 am   BACKBONE|DICT|INTERRES
   135   69   70 1    
   136   69  190 1    
   137   70   71 1    
   138   70   72 1    
   139   70  191 1    
   140   71  192 1    
   141   71  193 1    
   142   71  194 1    
   143   72   73 2    
   144   72   74 am   BACKBONE|DICT|INTERRES
   145   74   75 1    
   146   74  195 1    
   147   75   76 1    
   148   75   77 1    
   149   75  196 1    
   150   76  197 1    
   151   76  198 1    
   152   76  199 1    
   153   77   78 2    
   154   77   79 am   BACKBONE|DICT|INTERRES
   155   79   80 1    
   156   79  200 1    
   157   80   81 1    
   158   80   82 1    
   159   80  201 1    
   160   81  202 1    
   161   81  203 1    
   162   81  204 1    
   163   82   83 2    
   164   82   84 am   BACKBONE|DICT|INTERRES
   165   84   85 1    
   166   84  205 1    
   167   85   86 1    
   168   85   87 1    
   169   85  206 1    
   170   86  207 1    
   171   86  208 1    
   172   86  209 1    
   173   87   88 2    
   174   87   89 am   BACKBONE|DICT|INTERRES
   175   89   90 1    
   176   89  210 1    
   177   90   91 1    
   178   90   92 1    
   179   90  211 1    
   180   91  212 1    
   181   91  213 1    
   182   91  214 1    
   183   92   93 2    
   184   92   94 am   BACKBONE|DICT|INTERRES
   185   94   95 1    
   186   94  215 1    
   187   95   96 1    
   188   95   97 1    
   189   95  216 1    
   190   96  217 1    
   191   96  218 1    
   192   96  219 1    
   193   97   98 2    
   194   97   99 am   BACKBONE|DICT|INTERRES
   195   99  100 1    
   196   99  220 1    
   197  100  101 1    
   198  100  102 1    
   199  100  221 1    
   200  101  222 1    
   201  101  223 1    
   202  101  224 1    
   203  102  103 2    
   204  102  104 am   BACKBONE|DICT|INTERRES
   205  104  105 1    
   206  104  225 1    
   207  105  106 1    
   208  105  107 1    
   209  105  226 1    
   210  106  227 1    
   211  106  228 1    
   212  106  229 1    
   213  107  108 2    
   214  107  109 am   BACKBONE|DICT|INTERRES
   215  109  110 1    
   216  109  230 1    
   217  110  111 1    
   218  110  112 1    
   219  110  231 1    
   220  111  232 1    
   221  111  233 1    
   222  111  234 1    
   223  112  113 2    
   224  112  114 am   BACKBONE|DICT|INTERRES
   225  114  115 1    
   226  114  235 1    
   227  115  116 1    
   228  115  117 1    
   229  115  236 1    
   230  116  237 1    
   231  116  238 1    
   232  116  239 1    
   233  117  118 2    
   234  117  119 am   BACKBONE|DICT|INTERRES
   235  119  120 1    
   236  119  240 1    
   237  120  121 1    
   238  120  124 1    
   239  120  241 1    
   240  121  122 am   BACKBONE|DICT|INTERRES
   241  121  123 2    
   242  122  242 1    
   243  122  243 1    
   244  124  125 1    
   245  124  244 1    
   246  124  245 1    
   247  125  126 1    
   248  126  246 1    
   249  126  247 1    
@<TRIPOS>SUBSTRUCTURE
     1 UNK         1 GROUP             0       ****    0 ROOT    
