@<TRIPOS>MOLECULE
3R540
247   249    1
SMALL
USER_CHARGES


@<TRIPOS>ATOM
      1 CA          4.6290  -15.2035  -46.5195 C.3       0 UNK        -0.1800 
      2 C           3.7506  -14.4799  -47.5284 C.2       0 UNK         0.5000 
      3 O           3.8849  -13.2697  -47.7098 O.2       0 UNK        -0.5000 
      4 N           2.8400  -15.2210  -48.1725 N.am      1 UNK        -0.5000 
      5 CA          1.8661  -14.7872  -49.1848 C.3       1 UNK         0.1400 
      6 C6          2.5302  -14.1328  -50.4274 C.3       23 UNK        -0.0398 
      7 S7          1.5841  -14.4045  -51.9646 S.3       23 UNK        -0.2404 
      8 C8          2.5565  -15.7135  -52.7786 C.3       23 UNK        -0.0205 
      9 C9          2.3226  -17.0757  -52.1425 C.ar      23 UNK        -0.0193 
     10 C10         1.2905  -17.8985  -52.6087 C.ar      23 UNK        -0.1150 
     11 C11         1.0720  -19.1523  -52.0321 C.ar      23 UNK        -0.0193 
     12 C12         1.8956  -19.5805  -50.9911 C.ar      23 UNK        -0.1150 
     13 C13         2.9116  -18.7607  -50.4972 C.ar      23 UNK        -0.0193 
     14 C14         3.1330  -17.5142  -51.0885 C.ar      23 UNK        -0.1150 
     15 C15         3.7488  -19.2251  -49.3138 C.3       23 UNK        -0.0205 
     16 S16         3.1840  -18.5265  -47.7223 S.3       23 UNK        -0.2404 
     17 C17         1.3892  -18.8648  -47.7205 C.3       23 UNK        -0.0398 
     18 CA          1.0285  -20.3574  -47.5417 C.3       11 UNK         0.1400 
     19 N           1.5387  -20.9245  -46.2932 N.am      11 UNK        -0.5000 
     20 C           1.4348  -22.2104  -45.9318 C.2       10 UNK         0.5000 
     21 O           0.9167  -23.0760  -46.6387 O.2       10 UNK        -0.5000 
     22 CA          1.9475  -22.5877  -44.5292 C.3       10 UNK         0.1400 
     23 CB          3.1356  -21.7205  -44.0658 C.3       10 UNK        -0.1800 
     24 N           0.8869  -22.5815  -43.5133 N.am      10 UNK        -0.5000 
     25 C           0.0222  -21.5955  -43.2228 C.2       9 UNK         0.5000 
     26 O          -0.0664  -20.5462  -43.8609 O.2       9 UNK        -0.5000 
     27 CA         -0.9340  -21.8124  -42.0298 C.3       9 UNK         0.1400 
     28 CB         -0.8310  -23.2054  -41.3677 C.3       9 UNK        -0.1800 
     29 N          -0.7980  -20.7472  -41.0313 N.am      9 UNK        -0.5000 
     30 C           0.2993  -20.4163  -40.3347 C.2       8 UNK         0.5000 
     31 O           1.3646  -21.0321  -40.4062 O.2       8 UNK        -0.5000 
     32 CA          0.1733  -19.1970  -39.3917 C.3       8 UNK         0.1400 
     33 CB          1.4991  -18.8535  -38.6883 C.3       8 UNK        -0.1800 
     34 N          -0.3007  -17.9992  -40.0858 N.am      8 UNK        -0.5000 
     35 C          -1.5667  -17.7334  -40.4337 C.2       7 UNK         0.5000 
     36 O          -2.5139  -18.4786  -40.1800 O.2       7 UNK        -0.5000 
     37 CA         -1.7974  -16.4493  -41.2517 C.3       7 UNK         0.1400 
     38 CB         -1.8483  -15.2097  -40.3454 C.3       7 UNK        -0.1800 
     39 N          -0.7556  -16.2836  -42.2655 N.am      7 UNK        -0.5000 
     40 C          -0.6824  -17.0221  -43.3820 C.2       6 UNK         0.5000 
     41 O          -1.5724  -17.7904  -43.7408 O.2       6 UNK        -0.5000 
     42 CA          0.5860  -16.8900  -44.2421 C.3       6 UNK         0.1400 
     43 CB          0.3313  -15.9603  -45.4390 C.3       6 UNK        -0.1800 
     44 N           1.7272  -16.3906  -43.4732 N.am      6 UNK        -0.5000 
     45 C           2.5609  -17.1684  -42.7667 C.2       5 UNK         0.5000 
     46 O           2.4924  -18.3946  -42.7436 O.2       5 UNK        -0.5000 
     47 CA          3.6478  -16.4673  -41.9259 C.3       5 UNK         0.1400 
     48 CB          4.9623  -16.3745  -42.7147 C.3       5 UNK        -0.1800 
     49 N           3.2667  -15.1279  -41.4757 N.am      5 UNK        -0.5000 
     50 C           2.2701  -14.8658  -40.6193 C.2       4 UNK         0.5000 
     51 O           1.5977  -15.7394  -40.0727 O.2       4 UNK        -0.5000 
     52 CA          1.9180  -13.3803  -40.3961 C.3       4 UNK         0.1400 
     53 CB          2.6936  -12.8199  -39.1951 C.3       4 UNK        -0.1800 
     54 N           2.1544  -12.5261  -41.5686 N.am      4 UNK        -0.5000 
     55 C           1.6075  -12.7132  -42.7777 C.2       3 UNK         0.5000 
     56 O           0.8471  -13.6497  -43.0383 O.2       3 UNK        -0.5000 
     57 CA          2.0136  -11.7313  -43.8872 C.3       3 UNK         0.1400 
     58 CB          3.5252  -11.8044  -44.1758 C.3       3 UNK        -0.1800 
     59 N           1.2743  -12.0705  -45.0988 N.am      3 UNK        -0.5000 
     60 C           0.9559  -11.2340  -46.0897 C.2       2 UNK         0.5000 
     61 O           1.2690  -10.0421  -46.1086 O.2       2 UNK        -0.5000 
     62 CA          0.2084  -11.8677  -47.2729 C.3       2 UNK         0.1400 
     63 CB         -0.2646  -10.8404  -48.3203 C.3       2 UNK        -0.1800 
     64 N           1.0962  -12.8429  -47.8956 N.am      2 UNK        -0.5000 
     65 C           0.7293  -13.9142  -48.6045 C.2       1 UNK         0.5000 
     66 O          -0.4441  -14.2368  -48.7922 O.2       1 UNK        -0.5000 
     67 C          -0.4912  -20.5566  -47.7141 C.2       11 UNK         0.5000 
     68 O          -0.9300  -20.8008  -48.8357 O.2       11 UNK        -0.5000 
     69 N          -1.2635  -20.5006  -46.6173 N.am      12 UNK        -0.5000 
     70 CA         -2.7087  -20.7507  -46.6354 C.3       12 UNK         0.1400 
     71 CB         -3.3367  -20.2996  -45.3107 C.3       12 UNK        -0.1800 
     72 C          -3.0617  -22.2214  -46.9239 C.2       12 UNK         0.5000 
     73 O          -4.0813  -22.4862  -47.5639 O.2       12 UNK        -0.5000 
     74 N          -2.2032  -23.1473  -46.4735 N.am      13 UNK        -0.5000 
     75 CA         -2.3232  -24.5776  -46.7492 C.3       13 UNK         0.1400 
     76 CB         -1.4768  -25.3787  -45.7477 C.3       13 UNK        -0.1800 
     77 C          -1.9338  -24.8971  -48.2022 C.2       13 UNK         0.5000 
     78 O          -2.6438  -25.6539  -48.8633 O.2       13 UNK        -0.5000 
     79 N          -0.8563  -24.2661  -48.6931 N.am      14 UNK        -0.5000 
     80 CA         -0.4071  -24.3369  -50.0877 C.3       14 UNK         0.1400 
     81 CB          0.9478  -23.6286  -50.2218 C.3       14 UNK        -0.1800 
     82 C          -1.4324  -23.7469  -51.0766 C.2       14 UNK         0.5000 
     83 O          -1.6420  -24.3114  -52.1503 O.2       14 UNK        -0.5000 
     84 N          -2.0911  -22.6528  -50.6693 N.am      15 UNK        -0.5000 
     85 CA         -3.2015  -22.0181  -51.3785 C.3       15 UNK         0.1400 
     86 CB         -3.4643  -20.6348  -50.7593 C.3       15 UNK        -0.1800 
     87 C          -4.5053  -22.8367  -51.3504 C.2       15 UNK         0.5000 
     88 O          -5.4299  -22.4948  -52.0915 O.2       15 UNK        -0.5000 
     89 N          -4.5814  -23.8515  -50.4769 N.am      16 UNK        -0.5000 
     90 CA         -5.7463  -24.6905  -50.1855 C.3       16 UNK         0.1400 
     91 CB         -6.0880  -25.5819  -51.3979 C.3       16 UNK        -0.1800 
     92 C          -6.9415  -23.8515  -49.6921 C.2       16 UNK         0.5000 
     93 O          -8.0514  -23.9974  -50.2028 O.2       16 UNK        -0.5000 
     94 N          -6.6715  -22.9286  -48.7549 N.am      17 UNK        -0.5000 
     95 CA         -7.6008  -21.9163  -48.2335 C.3       17 UNK         0.1400 
     96 CB         -8.7222  -22.5742  -47.4029 C.3       17 UNK        -0.1800 
     97 C          -8.1348  -20.9756  -49.3390 C.2       17 UNK         0.5000 
     98 O          -9.2998  -20.5767  -49.3116 O.2       17 UNK        -0.5000 
     99 N          -7.2539  -20.6644  -50.3012 N.am      18 UNK        -0.5000 
    100 CA        -7.4667  -19.8599  -51.5089 C.3       18 UNK         0.1400 
    101 CB        -7.9408  -18.4322  -51.1670 C.3       18 UNK        -0.1800 
    102 C         -8.3368  -20.5401  -52.5870 C.2       18 UNK         0.5000 
    103 O         -8.7454  -19.8664  -53.5340 O.2       18 UNK        -0.5000 
    104 N         -8.5774  -21.8556  -52.4709 N.am      19 UNK        -0.5000 
    105 CA        -9.2553  -22.6470  -53.5012 C.3       19 UNK         0.1400 
    106 CB        -9.7602  -23.9680  -52.9030 C.3       19 UNK        -0.1800 
    107 C         -8.3471  -22.9183  -54.7153 C.2       19 UNK         0.5000 
    108 O         -8.8393  -22.9360  -55.8442 O.2       19 UNK        -0.5000 
    109 N         -7.0450  -23.1108  -54.4634 N.am      20 UNK        -0.5000 
    110 CA        -6.0159  -23.2797  -55.4899 C.3       20 UNK         0.1400 
    111 CB        -5.0518  -24.3988  -55.0640 C.3       20 UNK        -0.1800 
    112 C         -5.2480  -21.9675  -55.7154 C.2       20 UNK         0.5000 
    113 O         -4.8862  -21.6608  -56.8527 O.2       20 UNK        -0.5000 
    114 N         -4.9986  -21.2274  -54.6223 N.am      21 UNK        -0.5000 
    115 CA        -4.3444  -19.9121  -54.5559 C.3       21 UNK         0.1400 
    116 CB        -5.2553  -18.8393  -55.1858 C.3       21 UNK        -0.1800 
    117 C         -2.9075  -19.8712  -55.1268 C.2       21 UNK         0.5000 
    118 O         -2.4078  -18.7885  -55.4349 O.2       21 UNK        -0.5000 
    119 N         -2.2745  -21.0455  -55.2632 N.am      22 UNK        -0.5000 
    120 CA        -0.9951  -21.2694  -55.9614 C.3       22 UNK         0.1400 
    121 C         -1.0449  -20.9534  -57.4902 C.2       22 UNK         0.5000 
    122 N         -2.2121  -20.9623  -58.1264 N.am      22 UNK        -0.7600 
    123 O         -0.0155  -20.7288  -58.1214 O.2       22 UNK        -0.5000 
    124 C124        0.2258  -20.6337  -55.2348 C.3       23 UNK        -0.0398 
    125 S125        0.4815  -21.3716  -53.5857 S.3       23 UNK        -0.2404 
    126 C126       -0.0756  -20.0397  -52.4828 C.3       23 UNK        -0.0205 
    127 H127        5.4786  -15.6643  -47.0233 H         1 UNK         0.0600 
    128 H128        5.0117  -14.5062  -45.7747 H         1 UNK         0.0600 
    129 H129        4.0705  -15.9826  -45.9996 H         1 UNK         0.0600 
    130 H130        2.8099  -16.2112  -47.9650 H         1 UNK         0.3000 
    131 H131        1.3976  -15.7181  -49.5092 H         1 UNK         0.0600 
    132 H132        2.6695  -13.0596  -50.2856 H         1 UNK         0.0800 
    133 H133        3.5357  -14.5292  -50.5695 H         1 UNK         0.0800 
    134 H134        3.6174  -15.4593  -52.7617 H         1 UNK         0.0800 
    135 H135        2.2755  -15.7503  -53.8322 H         1 UNK         0.0800 
    136 H136        0.6523  -17.5587  -53.4125 H         1 UNK         0.1150 
    137 H137        1.7243  -20.5503  -50.5515 H         1 UNK         0.1150 
    138 H138        3.9252  -16.8812  -50.7151 H         1 UNK         0.1150 
    139 H139        3.7417  -20.3141  -49.2475 H         1 UNK         0.0800 
    140 H140        4.7904  -18.9418  -49.4714 H         1 UNK         0.0800 
    141 H141        0.9459  -18.2825  -46.9151 H         1 UNK         0.0800 
    142 H142        0.9543  -18.4609  -48.6360 H         1 UNK         0.0800 
    143 H143        1.5072  -20.9197  -48.3426 H         1 UNK         0.0600 
    144 H144        1.9386  -20.2742  -45.6320 H         1 UNK         0.3000 
    145 H145        2.3024  -23.6168  -44.6013 H         1 UNK         0.0600 
    146 H146        3.5592  -22.1053  -43.1380 H         1 UNK         0.0600 
    147 H147        3.9341  -21.7148  -44.8089 H         1 UNK         0.0600 
    148 H148        2.8428  -20.6874  -43.8852 H         1 UNK         0.0600 
    149 H149        0.8491  -23.4084  -42.9347 H         1 UNK         0.3000 
    150 H150       -1.9431  -21.7204  -42.4324 H         1 UNK         0.0600 
    151 H151       -1.0382  -23.9999  -42.0859 H         1 UNK         0.0600 
    152 H152       -1.5611  -23.3067  -40.5646 H         1 UNK         0.0600 
    153 H153        0.1545  -23.3896  -40.9389 H         1 UNK         0.0600 
    154 H154       -1.6073  -20.1464  -40.9159 H         1 UNK         0.3000 
    155 H155       -0.5516  -19.4627  -38.6196 H         1 UNK         0.0600 
    156 H156        1.8669  -19.6988  -38.1056 H         1 UNK         0.0600 
    157 H157        1.3757  -18.0158  -38.0015 H         1 UNK         0.0600 
    158 H158        2.2744  -18.5834  -39.4068 H         1 UNK         0.0600 
    159 H159        0.4100  -17.3102  -40.3107 H         1 UNK         0.3000 
    160 H160       -2.7629  -16.5363  -41.7547 H         1 UNK         0.0600 
    161 H161       -0.9383  -15.0944  -39.7576 H         1 UNK         0.0600 
    162 H162       -1.9886  -14.2995  -40.9288 H         1 UNK         0.0600 
    163 H163       -2.6805  -15.2789  -39.6440 H         1 UNK         0.0600 
    164 H164       -0.0076  -15.6358  -42.0614 H         1 UNK         0.3000 
    165 H165        0.8226  -17.8843  -44.6255 H         1 UNK         0.0600 
    166 H166        1.2321  -15.8367  -46.0368 H         1 UNK         0.0600 
    167 H167       -0.4415  -16.3686  -46.0916 H         1 UNK         0.0600 
    168 H168       -0.0038  -14.9723  -45.1255 H         1 UNK         0.0600 
    169 H169        1.7970  -15.3838  -43.3867 H         1 UNK         0.3000 
    170 H170        3.8231  -17.0830  -41.0410 H         1 UNK         0.0600 
    171 H171        5.2743  -17.3561  -43.0742 H         1 UNK         0.0600 
    172 H172        4.8645  -15.7222  -43.5821 H         1 UNK         0.0600 
    173 H173        5.7686  -15.9862  -42.0922 H         1 UNK         0.0600 
    174 H174        3.7694  -14.3511  -41.8783 H         1 UNK         0.3000 
    175 H175        0.8519  -13.3311  -40.1662 H         1 UNK         0.0600 
    176 H176        3.7686  -12.8088  -39.3795 H         1 UNK         0.0600 
    177 H177        2.3811  -11.8015  -38.9635 H         1 UNK         0.0600 
    178 H178        2.5196  -13.4222  -38.3022 H         1 UNK         0.0600 
    179 H179        2.7737  -11.7405  -41.4300 H         1 UNK         0.3000 
    180 H180        1.7446  -10.7243  -43.5620 H         1 UNK         0.0600 
    181 H181        4.1132  -11.5075  -43.3070 H         1 UNK         0.0600 
    182 H182        3.8303  -12.8139  -44.4527 H         1 UNK         0.0600 
    183 H183        3.8046  -11.1391  -44.9930 H         1 UNK         0.0600 
    184 H184        0.9285  -13.0209  -45.1150 H         1 UNK         0.3000 
    185 H185       -0.6669  -12.3797  -46.8674 H         1 UNK         0.0600 
    186 H186       -0.9087  -10.0870  -47.8654 H         1 UNK         0.0600 
    187 H187        0.5763  -10.3222  -48.7827 H         1 UNK         0.0600 
    188 H188       -0.8382  -11.3199  -49.1137 H         1 UNK         0.0600 
    189 H189        2.0934  -12.6953  -47.7501 H         1 UNK         0.3000 
    190 H190       -0.8348  -20.3292  -45.7115 H         1 UNK         0.3000 
    191 H191       -3.1475  -20.1473  -47.4323 H         1 UNK         0.0600 
    192 H192       -4.4046  -20.5211  -45.2857 H         1 UNK         0.0600 
    193 H193       -3.2299  -19.2241  -45.1762 H         1 UNK         0.0600 
    194 H194       -2.8772  -20.7936  -44.4554 H         1 UNK         0.0600 
    195 H195       -1.3549  -22.8428  -46.0180 H         1 UNK         0.3000 
    196 H196       -3.3670  -24.8684  -46.6106 H         1 UNK         0.0600 
    197 H197       -1.6090  -26.4504  -45.9010 H         1 UNK         0.0600 
    198 H198       -1.7689  -25.1592  -44.7206 H         1 UNK         0.0600 
    199 H199       -0.4126  -25.1661  -45.8455 H         1 UNK         0.0600 
    200 H200       -0.3015  -23.6961  -48.0615 H         1 UNK         0.3000 
    201 H201       -0.2690  -25.3899  -50.3412 H         1 UNK         0.0600 
    202 H202        1.6982  -24.0824  -49.5744 H         1 UNK         0.0600 
    203 H203        0.8703  -22.5758  -49.9577 H         1 UNK         0.0600 
    204 H204        1.3198  -23.6837  -51.2458 H         1 UNK         0.0600 
    205 H205       -1.7880  -22.1954  -49.8137 H         1 UNK         0.3000 
    206 H206       -2.9129  -21.8873  -52.4227 H         1 UNK         0.0600 
    207 H207       -2.5977  -19.9813  -50.8417 H         1 UNK         0.0600 
    208 H208       -4.2911  -20.1242  -51.2491 H         1 UNK         0.0600 
    209 H209       -3.7189  -20.7139  -49.7029 H         1 UNK         0.0600 
    210 H210       -3.7625  -24.0523  -49.9176 H         1 UNK         0.3000 
    211 H211       -5.4632  -25.3438  -49.3591 H         1 UNK         0.0600 
    212 H212       -6.4228  -24.9973  -52.2543 H         1 UNK         0.0600 
    213 H213       -6.8844  -26.2853  -51.1525 H         1 UNK         0.0600 
    214 H214       -5.2230  -26.1665  -51.7111 H         1 UNK         0.0600 
    215 H215       -5.7195  -22.8668  -48.3974 H         1 UNK         0.3000 
    216 H216       -7.0172  -21.2887  -47.5584 H         1 UNK         0.0600 
    217 H217       -8.3103  -23.2243  -46.6311 H         1 UNK         0.0600 
    218 H218       -9.3911  -23.1714  -48.0231 H         1 UNK         0.0600 
    219 H219       -9.3296  -21.8205  -46.9006 H         1 UNK         0.0600 
    220 H220       -6.3464  -21.1019  -50.2396 H         1 UNK         0.3000 
    221 H221       -6.4836  -19.7612  -51.9685 H         1 UNK         0.0600 
    222 H222       -8.9657  -18.4211  -50.7958 H         1 UNK         0.0600 
    223 H223       -7.3030  -17.9744  -50.4109 H         1 UNK         0.0600 
    224 H224       -7.9091  -17.7890  -52.0472 H         1 UNK         0.0600 
    225 H225       -8.2286  -22.3584  -51.6636 H         1 UNK         0.3000 
    226 H226      -10.1252  -22.0863  -53.8500 H         1 UNK         0.0600 
    227 H227      -10.3795  -23.7941  -52.0229 H         1 UNK         0.0600 
    228 H228      -10.3668  -24.5139  -53.6265 H         1 UNK         0.0600 
    229 H229       -8.9371  -24.6210  -52.6121 H         1 UNK         0.0600 
    230 H230       -6.7203  -23.0458  -53.5046 H         1 UNK         0.3000 
    231 H231       -6.4688  -23.5702  -56.4401 H         1 UNK         0.0600 
    232 H232       -4.5420  -24.1681  -54.1283 H         1 UNK         0.0600 
    233 H233       -5.5817  -25.3419  -54.9293 H         1 UNK         0.0600 
    234 H234       -4.2855  -24.5627  -55.8227 H         1 UNK         0.0600 
    235 H235       -5.2961  -21.6094  -53.7294 H         1 UNK         0.3000 
    236 H236       -4.2466  -19.6714  -53.4986 H         1 UNK         0.0600 
    237 H237       -6.2551  -18.8674  -54.7523 H         1 UNK         0.0600 
    238 H238       -4.8600  -17.8369  -55.0178 H         1 UNK         0.0600 
    239 H239       -5.3536  -18.9764  -56.2631 H         1 UNK         0.0600 
    240 H240       -2.7683  -21.8805  -54.9882 H         1 UNK         0.3000 
    241 H241       -0.8451  -22.3493  -55.9336 H         1 UNK         0.0600 
    242 H242       -2.2363  -20.7684  -59.1149 H         1 UNK         0.3800 
    243 H243       -3.0773  -21.1632  -57.6356 H         1 UNK         0.3800 
    244 H244        0.1253  -19.5505  -55.1613 H         1 UNK         0.0800 
    245 H245        1.1428  -20.8105  -55.7986 H         1 UNK         0.0800 
    246 H246       -0.8666  -19.4527  -52.9503 H         1 UNK         0.0800 
    247 H247       -0.5186  -20.5016  -51.6016 H         1 UNK         0.0800 
@<TRIPOS>BOND
     1    1    2 1    
     2    1  127 1    
     3    1  128 1    
     4    1  129 1    
     5    2    3 2    
     6    2    4 am   BACKBONE|DICT|INTERRES
     7    4    5 1    
     8    4  130 1    
     9    5    6 1    
    10    5   65 1    
    11    5  131 1    
    12    6    7 1    
    13    6  132 1    
    14    6  133 1    
    15    7    8 1    
    16    8    9 1    
    17    8  134 1    
    18    8  135 1    
    19    9   10 ar   
    20    9   14 ar   
    21   10   11 ar   
    22   10  136 1    
    23   11   12 ar   
    24   11  126 1    
    25   12   13 ar   
    26   12  137 1    
    27   13   14 ar   
    28   13   15 1    
    29   14  138 1    
    30   15   16 1    
    31   15  139 1    
    32   15  140 1    
    33   16   17 1    
    34   17   18 1    
    35   17  141 1    
    36   17  142 1    
    37   18   19 1    
    38   18   67 1    
    39   18  143 1    
    40   19   20 am   BACKBONE|DICT|INTERRES
    41   19  144 1    
    42   20   21 2    
    43   20   22 1    
    44   22   23 1    
    45   22   24 1    
    46   22  145 1    
    47   23  146 1    
    48   23  147 1    
    49   23  148 1    
    50   24   25 am   BACKBONE|DICT|INTERRES
    51   24  149 1    
    52   25   26 2    
    53   25   27 1    
    54   27   28 1    
    55   27   29 1    
    56   27  150 1    
    57   28  151 1    
    58   28  152 1    
    59   28  153 1    
    60   29   30 am   BACKBONE|DICT|INTERRES
    61   29  154 1    
    62   30   31 2    
    63   30   32 1    
    64   32   33 1    
    65   32   34 1    
    66   32  155 1    
    67   33  156 1    
    68   33  157 1    
    69   33  158 1    
    70   34   35 am   BACKBONE|DICT|INTERRES
    71   34  159 1    
    72   35   36 2    
    73   35   37 1    
    74   37   38 1    
    75   37   39 1    
    76   37  160 1    
    77   38  161 1    
    78   38  162 1    
    79   38  163 1    
    80   39   40 am   BACKBONE|DICT|INTERRES
    81   39  164 1    
    82   40   41 2    
    83   40   42 1    
    84   42   43 1    
    85   42   44 1    
    86   42  165 1    
    87   43  166 1    
    88   43  167 1    
    89   43  168 1    
    90   44   45 am   BACKBONE|DICT|INTERRES
    91   44  169 1    
    92   45   46 2    
    93   45   47 1    
    94   47   48 1    
    95   47   49 1    
    96   47  170 1    
    97   48  171 1    
    98   48  172 1    
    99   48  173 1    
   100   49   50 am   BACKBONE|DICT|INTERRES
   101   49  174 1    
   102   50   51 2    
   103   50   52 1    
   104   52   53 1    
   105   52   54 1    
   106   52  175 1    
   107   53  176 1    
   108   53  177 1    
   109   53  178 1    
   110   54   55 am   BACKBONE|DICT|INTERRES
   111   54  179 1    
   112   55   56 2    
   113   55   57 1    
   114   57   58 1    
   115   57   59 1    
   116   57  180 1    
   117   58  181 1    
   118   58  182 1    
   119   58  183 1    
   120   59   60 am   BACKBONE|DICT|INTERRES
   121   59  184 1    
   122   60   61 2    
   123   60   62 1    
   124   62   63 1    
   125   62   64 1    
   126   62  185 1    
   127   63  186 1    
   128   63  187 1    
   129   63  188 1    
   130   64   65 am   BACKBONE|DICT|INTERRES
   131   64  189 1    
   132   65   66 2    
   133   67   68 2    
   134   67   69 am   BACKBONE|DICT|INTERRES
   135   69   70 1    
   136   69  190 1    
   137   70   71 1    
   138   70   72 1    
   139   70  191 1    
   140   71  192 1    
   141   71  193 1    
   142   71  194 1    
   143   72   73 2    
   144   72   74 am   BACKBONE|DICT|INTERRES
   145   74   75 1    
   146   74  195 1    
   147   75   76 1    
   148   75   77 1    
   149   75  196 1    
   150   76  197 1    
   151   76  198 1    
   152   76  199 1    
   153   77   78 2    
   154   77   79 am   BACKBONE|DICT|INTERRES
   155   79   80 1    
   156   79  200 1    
   157   80   81 1    
   158   80   82 1    
   159   80  201 1    
   160   81  202 1    
   161   81  203 1    
   162   81  204 1    
   163   82   83 2    
   164   82   84 am   BACKBONE|DICT|INTERRES
   165   84   85 1    
   166   84  205 1    
   167   85   86 1    
   168   85   87 1    
   169   85  206 1    
   170   86  207 1    
   171   86  208 1    
   172   86  209 1    
   173   87   88 2    
   174   87   89 am   BACKBONE|DICT|INTERRES
   175   89   90 1    
   176   89  210 1    
   177   90   91 1    
   178   90   92 1    
   179   90  211 1    
   180   91  212 1    
   181   91  213 1    
   182   91  214 1    
   183   92   93 2    
   184   92   94 am   BACKBONE|DICT|INTERRES
   185   94   95 1    
   186   94  215 1    
   187   95   96 1    
   188   95   97 1    
   189   95  216 1    
   190   96  217 1    
   191   96  218 1    
   192   96  219 1    
   193   97   98 2    
   194   97   99 am   BACKBONE|DICT|INTERRES
   195   99  100 1    
   196   99  220 1    
   197  100  101 1    
   198  100  102 1    
   199  100  221 1    
   200  101  222 1    
   201  101  223 1    
   202  101  224 1    
   203  102  103 2    
   204  102  104 am   BACKBONE|DICT|INTERRES
   205  104  105 1    
   206  104  225 1    
   207  105  106 1    
   208  105  107 1    
   209  105  226 1    
   210  106  227 1    
   211  106  228 1    
   212  106  229 1    
   213  107  108 2    
   214  107  109 am   BACKBONE|DICT|INTERRES
   215  109  110 1    
   216  109  230 1    
   217  110  111 1    
   218  110  112 1    
   219  110  231 1    
   220  111  232 1    
   221  111  233 1    
   222  111  234 1    
   223  112  113 2    
   224  112  114 am   BACKBONE|DICT|INTERRES
   225  114  115 1    
   226  114  235 1    
   227  115  116 1    
   228  115  117 1    
   229  115  236 1    
   230  116  237 1    
   231  116  238 1    
   232  116  239 1    
   233  117  118 2    
   234  117  119 am   BACKBONE|DICT|INTERRES
   235  119  120 1    
   236  119  240 1    
   237  120  121 1    
   238  120  124 1    
   239  120  241 1    
   240  121  122 am   BACKBONE|DICT|INTERRES
   241  121  123 2    
   242  122  242 1    
   243  122  243 1    
   244  124  125 1    
   245  124  244 1    
   246  124  245 1    
   247  125  126 1    
   248  126  246 1    
   249  126  247 1    
@<TRIPOS>SUBSTRUCTURE
     1 UNK         1 GROUP             0       ****    0 ROOT    
