@<TRIPOS>MOLECULE
3R540
247   249    1
SMALL
USER_CHARGES


@<TRIPOS>ATOM
      1 CA         -4.8423  -17.3873  -44.3963 C.3       0 UNK        -0.1800 
      2 C          -5.6573  -16.1919  -44.8626 C.2       0 UNK         0.5000 
      3 O          -6.1796  -15.4438  -44.0364 O.2       0 UNK        -0.5000 
      4 N          -5.7554  -16.0013  -46.1842 N.am      1 UNK        -0.5000 
      5 CA         -6.4662  -14.8820  -46.8203 C.3       1 UNK         0.1400 
      6 C6         -6.8549  -15.2074  -48.2812 C.3       23 UNK        -0.0398 
      7 S7         -8.1626  -16.4761  -48.3428 S.3       23 UNK        -0.2404 
      8 C8         -7.5807  -17.5599  -49.6813 C.3       23 UNK        -0.0205 
      9 C9         -6.5359  -18.5694  -49.2254 C.ar      23 UNK        -0.0193 
     10 C10        -5.2719  -18.5938  -49.8228 C.ar      23 UNK        -0.1150 
     11 C11        -4.3589  -19.6155  -49.5240 C.ar      23 UNK        -0.0193 
     12 C12        -4.7107  -20.5760  -48.5744 C.ar      23 UNK        -0.1150 
     13 C13        -5.9476  -20.5336  -47.9274 C.ar      23 UNK        -0.0193 
     14 C14        -6.8620  -19.5343  -48.2671 C.ar      23 UNK        -0.1150 
     15 C15        -6.3063  -21.5934  -46.8955 C.3       23 UNK        -0.0205 
     16 S16        -5.8730  -21.1052  -45.1901 S.3       23 UNK        -0.2404 
     17 C17        -4.0779  -20.7693  -45.2749 C.3       23 UNK        -0.0398 
     18 CA         -3.2066  -22.0048  -45.6040 C.3       11 UNK         0.1400 
     19 N          -1.9044  -21.6232  -46.1618 N.am      11 UNK        -0.5000 
     20 C          -1.0282  -22.4718  -46.7187 C.2       10 UNK         0.5000 
     21 O          -1.2353  -23.6784  -46.8276 O.2       10 UNK        -0.5000 
     22 CA          0.3236  -21.8936  -47.1709 C.3       10 UNK         0.1400 
     23 CB          0.1857  -21.0614  -48.4556 C.3       10 UNK        -0.1800 
     24 N           0.9364  -21.0866  -46.1193 N.am      10 UNK        -0.5000 
     25 C           1.3442  -21.5671  -44.9357 C.2       9 UNK         0.5000 
     26 O           1.3604  -22.7634  -44.6492 O.2       9 UNK        -0.5000 
     27 CA          1.7501  -20.5318  -43.8742 C.3       9 UNK         0.1400 
     28 CB          3.2676  -20.2918  -43.8874 C.3       9 UNK        -0.1800 
     29 N           1.0303  -19.2666  -44.0466 N.am      9 UNK        -0.5000 
     30 C          -0.2582  -19.1026  -43.7137 C.2       8 UNK         0.5000 
     31 O          -0.9597  -20.0028  -43.2496 O.2       8 UNK        -0.5000 
     32 CA         -0.8803  -17.7192  -43.9668 C.3       8 UNK         0.1400 
     33 CB         -0.4116  -16.7006  -42.9169 C.3       8 UNK        -0.1800 
     34 N          -0.6365  -17.1909  -45.3090 N.am      8 UNK        -0.5000 
     35 C          -1.1144  -17.7353  -46.4370 C.2       7 UNK         0.5000 
     36 O          -1.6947  -18.8182  -46.4749 O.2       7 UNK        -0.5000 
     37 CA         -0.9201  -16.9422  -47.7375 C.3       7 UNK         0.1400 
     38 CB         -1.8628  -15.7301  -47.7654 C.3       7 UNK        -0.1800 
     39 N           0.4627  -16.4922  -47.8545 N.am      7 UNK        -0.5000 
     40 C           1.3692  -17.0193  -48.6893 C.2       6 UNK         0.5000 
     41 O           1.1089  -17.8589  -49.5532 O.2       6 UNK        -0.5000 
     42 CA          2.8251  -16.5310  -48.5353 C.3       6 UNK         0.1400 
     43 CB          3.1211  -15.4035  -49.5363 C.3       6 UNK        -0.1800 
     44 N           3.1689  -16.0598  -47.1935 N.am      6 UNK        -0.5000 
     45 C           3.0833  -16.7789  -46.0663 C.2       5 UNK         0.5000 
     46 O           2.7144  -17.9508  -46.0256 O.2       5 UNK        -0.5000 
     47 CA          3.3883  -16.0394  -44.7511 C.3       5 UNK         0.1400 
     48 CB          4.8671  -16.2061  -44.3737 C.3       5 UNK        -0.1800 
     49 N           3.0480  -14.6119  -44.7723 N.am      5 UNK        -0.5000 
     50 C           1.8391  -14.1038  -45.0503 C.2       4 UNK         0.5000 
     51 O           0.8699  -14.7831  -45.4017 O.2       4 UNK        -0.5000 
     52 CA          1.7097  -12.5734  -44.9821 C.3       4 UNK         0.1400 
     53 CB          1.8523  -11.9696  -46.3877 C.3       4 UNK        -0.1800 
     54 N           0.4219  -12.1710  -44.4239 N.am      4 UNK        -0.5000 
     55 C           0.0200  -12.3958  -43.1651 C.2       3 UNK         0.5000 
     56 O           0.7401  -12.8884  -42.2954 O.2       3 UNK        -0.5000 
     57 CA         -1.4252  -11.9912  -42.8104 C.3       3 UNK         0.1400 
     58 CB         -1.4343  -10.6892  -41.9940 C.3       3 UNK        -0.1800 
     59 N          -2.2864  -11.8193  -43.9844 N.am      3 UNK        -0.5000 
     60 C          -2.7670  -12.8270  -44.7222 C.2       2 UNK         0.5000 
     61 O          -2.5505  -14.0188  -44.4868 O.2       2 UNK        -0.5000 
     62 CA         -3.6211  -12.4319  -45.9338 C.3       2 UNK         0.1400 
     63 CB         -2.7467  -12.0085  -47.1268 C.3       2 UNK        -0.1800 
     64 N          -4.4349  -13.5835  -46.2964 N.am      2 UNK        -0.5000 
     65 C          -5.6988  -13.5427  -46.7286 C.2       1 UNK         0.5000 
     66 O          -6.2767  -12.4965  -47.0281 O.2       1 UNK        -0.5000 
     67 C          -3.0831  -22.9692  -44.4077 C.2       11 UNK         0.5000 
     68 O          -3.8367  -23.9409  -44.3384 O.2       11 UNK        -0.5000 
     69 N          -2.0872  -22.7451  -43.5373 N.am      12 UNK        -0.5000 
     70 CA         -1.7327  -23.6470  -42.4349 C.3       12 UNK         0.1400 
     71 CB         -0.6541  -22.9872  -41.5638 C.3       12 UNK        -0.1800 
     72 C          -1.2706  -25.0445  -42.9038 C.2       12 UNK         0.5000 
     73 O          -1.4385  -26.0166  -42.1675 O.2       12 UNK        -0.5000 
     74 N          -0.7372  -25.1234  -44.1295 N.am      13 UNK        -0.5000 
     75 CA         -0.3430  -26.3492  -44.8215 C.3       13 UNK         0.1400 
     76 CB          0.9791  -26.0840  -45.5618 C.3       13 UNK        -0.1800 
     77 C          -1.4444  -26.8667  -45.7753 C.2       13 UNK         0.5000 
     78 O          -1.1445  -27.6704  -46.6579 O.2       13 UNK        -0.5000 
     79 N          -2.6930  -26.4083  -45.5902 N.am      14 UNK        -0.5000 
     80 CA         -3.9013  -26.7741  -46.3399 C.3       14 UNK         0.1400 
     81 CB         -4.2284  -28.2739  -46.1773 C.3       14 UNK        -0.1800 
     82 C          -3.8739  -26.3080  -47.8112 C.2       14 UNK         0.5000 
     83 O          -4.3142  -27.0356  -48.7026 O.2       14 UNK        -0.5000 
     84 N          -3.3663  -25.0862  -48.0229 N.am      15 UNK        -0.5000 
     85 CA         -3.2120  -24.3792  -49.2992 C.3       15 UNK         0.1400 
     86 CB         -4.5656  -24.1675  -50.0088 C.3       15 UNK        -0.1800 
     87 C          -2.1253  -24.9891  -50.2069 C.2       15 UNK         0.5000 
     88 O          -2.1978  -24.8555  -51.4297 O.2       15 UNK        -0.5000 
     89 N          -1.1148  -25.6187  -49.5924 N.am      16 UNK        -0.5000 
     90 CA          0.1077  -26.0629  -50.2596 C.3       16 UNK         0.1400 
     91 CB          0.8394  -27.0653  -49.3569 C.3       16 UNK        -0.1800 
     92 C           1.0180  -24.8641  -50.5822 C.2       16 UNK         0.5000 
     93 O           0.9495  -23.8400  -49.8988 O.2       16 UNK        -0.5000 
     94 N           1.8557  -25.0150  -51.6162 N.am      17 UNK        -0.5000 
     95 CA          2.7852  -24.0288  -52.1883 C.3       17 UNK         0.1400 
     96 CB          3.8171  -23.5348  -51.1544 C.3       17 UNK        -0.1800 
     97 C           2.0827  -22.8516  -52.8939 C.2       17 UNK         0.5000 
     98 O           2.3764  -22.5983  -54.0625 O.2       17 UNK        -0.5000 
     99 N           1.1575  -22.1861  -52.1857 N.am      18 UNK        -0.5000 
    100 CA         0.2791  -21.1040  -52.6440 C.3       18 UNK         0.1400 
    101 CB        -0.8012  -21.6672  -53.5888 C.3       18 UNK        -0.1800 
    102 C          1.0515  -19.9171  -53.2558 C.2       18 UNK         0.5000 
    103 O          0.7607  -19.4873  -54.3735 O.2       18 UNK        -0.5000 
    104 N          2.0466  -19.4149  -52.5119 N.am      19 UNK        -0.5000 
    105 CA         2.9420  -18.3353  -52.9401 C.3       19 UNK         0.1400 
    106 CB         4.0907  -18.2036  -51.9312 C.3       19 UNK        -0.1800 
    107 C          2.2341  -16.9831  -53.1680 C.2       19 UNK         0.5000 
    108 O          2.7026  -16.1862  -53.9807 O.2       19 UNK        -0.5000 
    109 N          1.0976  -16.7684  -52.4911 N.am      20 UNK        -0.5000 
    110 CA         0.1942  -15.6305  -52.6870 C.3       20 UNK         0.1400 
    111 CB        -0.5271  -15.3382  -51.3597 C.3       20 UNK        -0.1800 
    112 C         -0.8067  -15.8365  -53.8496 C.2       20 UNK         0.5000 
    113 O         -1.7928  -15.1027  -53.9326 O.2       20 UNK        -0.5000 
    114 N         -0.5661  -16.8388  -54.7089 N.am      21 UNK        -0.5000 
    115 CA        -1.3629  -17.3080  -55.8507 C.3       21 UNK         0.1400 
    116 CB        -1.6754  -16.1848  -56.8584 C.3       21 UNK        -0.1800 
    117 C         -2.6287  -18.0701  -55.4235 C.2       21 UNK         0.5000 
    118 O         -2.8612  -19.1745  -55.9155 O.2       21 UNK        -0.5000 
    119 N         -3.3892  -17.4917  -54.4860 N.am      22 UNK        -0.5000 
    120 CA        -4.4850  -18.1300  -53.7342 C.3       22 UNK         0.1400 
    121 C         -5.7382  -18.5194  -54.5778 C.2       22 UNK         0.5000 
    122 N         -5.9194  -17.9799  -55.7769 N.am      22 UNK        -0.7600 
    123 O         -6.5807  -19.2923  -54.1300 O.2       22 UNK        -0.5000 
    124 C124       -3.9707  -19.2918  -52.8362 C.3       23 UNK        -0.0398 
    125 S125       -2.6873  -18.7145  -51.6636 S.3       23 UNK        -0.2404 
    126 C126       -2.9932  -19.7570  -50.1989 C.3       23 UNK        -0.0205 
    127 H127       -5.5044  -18.1969  -44.0907 H         1 UNK         0.0600 
    128 H128       -4.2248  -17.1089  -43.5425 H         1 UNK         0.0600 
    129 H129       -4.1848  -17.7527  -45.1849 H         1 UNK         0.0600 
    130 H130       -5.3420  -16.6724  -46.8154 H         1 UNK         0.3000 
    131 H131       -7.3924  -14.7193  -46.2642 H         1 UNK         0.0600 
    132 H132       -7.2450  -14.3252  -48.7923 H         1 UNK         0.0800 
    133 H133       -5.9809  -15.5299  -48.8496 H         1 UNK         0.0800 
    134 H134       -8.4371  -18.1102  -50.0733 H         1 UNK         0.0800 
    135 H135       -7.2114  -16.9520  -50.5087 H         1 UNK         0.0800 
    136 H136       -5.0264  -17.8396  -50.5549 H         1 UNK         0.1150 
    137 H137       -4.0115  -21.3636  -48.3386 H         1 UNK         0.1150 
    138 H138       -7.8366  -19.5166  -47.7995 H         1 UNK         0.1150 
    139 H139       -7.3793  -21.7870  -46.9335 H         1 UNK         0.0800 
    140 H140       -5.8320  -22.5432  -47.1436 H         1 UNK         0.0800 
    141 H141       -3.7590  -20.3124  -44.3363 H         1 UNK         0.0800 
    142 H142       -3.9358  -19.9970  -46.0288 H         1 UNK         0.0800 
    143 H143       -3.7021  -22.5697  -46.3927 H         1 UNK         0.0600 
    144 H144       -1.6821  -20.6299  -46.1404 H         1 UNK         0.3000 
    145 H145        0.9849  -22.7364  -47.3830 H         1 UNK         0.0600 
    146 H146       -0.3899  -21.5954  -49.2124 H         1 UNK         0.0600 
    147 H147       -0.3113  -20.1108  -48.2747 H         1 UNK         0.0600 
    148 H148        1.1634  -20.8435  -48.8854 H         1 UNK         0.0600 
    149 H149        0.9647  -20.0875  -46.2628 H         1 UNK         0.3000 
    150 H150        1.4916  -20.9369  -42.8940 H         1 UNK         0.0600 
    151 H151        3.7994  -21.1915  -43.5759 H         1 UNK         0.0600 
    152 H152        3.5514  -19.4924  -43.2029 H         1 UNK         0.0600 
    153 H153        3.6332  -20.0337  -44.8809 H         1 UNK         0.0600 
    154 H154        1.5265  -18.5271  -44.5306 H         1 UNK         0.3000 
    155 H155       -1.9595  -17.8316  -43.8552 H         1 UNK         0.0600 
    156 H156       -0.6159  -17.0571  -41.9067 H         1 UNK         0.0600 
    157 H157       -0.9284  -15.7480  -43.0358 H         1 UNK         0.0600 
    158 H158        0.6580  -16.5067  -42.9873 H         1 UNK         0.0600 
    159 H159       -0.1699  -16.2877  -45.3544 H         1 UNK         0.3000 
    160 H160       -1.1844  -17.5913  -48.5740 H         1 UNK         0.0600 
    161 H161       -1.6681  -15.0553  -46.9317 H         1 UNK         0.0600 
    162 H162       -2.9050  -16.0444  -47.7008 H         1 UNK         0.0600 
    163 H163       -1.7513  -15.1617  -48.6882 H         1 UNK         0.0600 
    164 H164        0.7749  -15.8229  -47.1600 H         1 UNK         0.3000 
    165 H165        3.4765  -17.3783  -48.7535 H         1 UNK         0.0600 
    166 H166        4.1751  -15.1258  -49.5182 H         1 UNK         0.0600 
    167 H167        2.8864  -15.7062  -50.5557 H         1 UNK         0.0600 
    168 H168        2.5335  -14.5104  -49.3195 H         1 UNK         0.0600 
    169 H169        3.4690  -15.0995  -47.1178 H         1 UNK         0.3000 
    170 H170        2.7878  -16.5075  -43.9699 H         1 UNK         0.0600 
    171 H171        5.1422  -17.2609  -44.3282 H         1 UNK         0.0600 
    172 H172        5.5248  -15.7259  -45.0993 H         1 UNK         0.0600 
    173 H173        5.0757  -15.7760  -43.3939 H         1 UNK         0.0600 
    174 H174        3.7897  -13.9779  -44.5117 H         1 UNK         0.3000 
    175 H175        2.4995  -12.1735  -44.3428 H         1 UNK         0.0600 
    176 H176        1.0751  -12.3321  -47.0625 H         1 UNK         0.0600 
    177 H177        1.7902  -10.8816  -46.3584 H         1 UNK         0.0600 
    178 H178        2.8160  -12.2268  -46.8292 H         1 UNK         0.0600 
    179 H179       -0.2487  -11.7870  -45.0711 H         1 UNK         0.3000 
    180 H180       -1.8423  -12.7866  -42.1889 H         1 UNK         0.0600 
    181 H181       -1.0344   -9.8517  -42.5670 H         1 UNK         0.0600 
    182 H182       -0.8287  -10.7886  -41.0921 H         1 UNK         0.0600 
    183 H183       -2.4445  -10.4289  -41.6772 H         1 UNK         0.0600 
    184 H184       -2.5131  -10.8685  -44.2394 H         1 UNK         0.3000 
    185 H185       -4.2654  -11.6005  -45.6394 H         1 UNK         0.0600 
    186 H186       -2.1654  -11.1171  -46.8893 H         1 UNK         0.0600 
    187 H187       -2.0435  -12.7894  -47.4151 H         1 UNK         0.0600 
    188 H188       -3.3581  -11.7726  -47.9980 H         1 UNK         0.0600 
    189 H189       -4.0511  -14.4684  -45.9898 H         1 UNK         0.3000 
    190 H190       -1.5369  -21.8962  -43.6266 H         1 UNK         0.3000 
    191 H191       -2.6261  -23.7857  -41.8228 H         1 UNK         0.0600 
    192 H192        0.2765  -22.8513  -42.1139 H         1 UNK         0.0600 
    193 H193       -0.9779  -22.0112  -41.2017 H         1 UNK         0.0600 
    194 H194       -0.4300  -23.6006  -40.6903 H         1 UNK         0.0600 
    195 H195       -0.6331  -24.2708  -44.6654 H         1 UNK         0.3000 
    196 H196       -0.1613  -27.1400  -44.0914 H         1 UNK         0.0600 
    197 H197        1.7464  -25.7220  -44.8772 H         1 UNK         0.0600 
    198 H198        0.8580  -25.3374  -46.3472 H         1 UNK         0.0600 
    199 H199        1.3632  -26.9947  -46.0223 H         1 UNK         0.0600 
    200 H200       -2.8378  -25.7086  -44.8712 H         1 UNK         0.3000 
    201 H201       -4.7156  -26.2184  -45.8728 H         1 UNK         0.0600 
    202 H202       -5.2061  -28.5073  -46.6005 H         1 UNK         0.0600 
    203 H203       -4.2550  -28.5601  -45.1259 H         1 UNK         0.0600 
    204 H204       -3.4978  -28.9079  -46.6801 H         1 UNK         0.0600 
    205 H205       -2.9101  -24.6310  -47.2391 H         1 UNK         0.3000 
    206 H206       -2.8387  -23.3882  -49.0406 H         1 UNK         0.0600 
    207 H207       -5.3028  -23.7327  -49.3343 H         1 UNK         0.0600 
    208 H208       -4.9726  -25.1014  -50.3965 H         1 UNK         0.0600 
    209 H209       -4.4597  -23.4845  -50.8525 H         1 UNK         0.0600 
    210 H210       -1.1134  -25.6453  -48.5824 H         1 UNK         0.3000 
    211 H211       -0.1638  -26.5639  -51.1912 H         1 UNK         0.0600 
    212 H212        0.2009  -27.9132  -49.1083 H         1 UNK         0.0600 
    213 H213        1.7283  -27.4612  -49.8493 H         1 UNK         0.0600 
    214 H214        1.1614  -26.6021  -48.4250 H         1 UNK         0.0600 
    215 H215        1.8203  -25.8914  -52.1183 H         1 UNK         0.3000 
    216 H216        3.3395  -24.5675  -52.9587 H         1 UNK         0.0600 
    217 H217        4.5669  -22.9017  -51.6303 H         1 UNK         0.0600 
    218 H218        3.3591  -22.9475  -50.3583 H         1 UNK         0.0600 
    219 H219        4.3430  -24.3708  -50.6933 H         1 UNK         0.0600 
    220 H220        1.0014  -22.5185  -51.2370 H         1 UNK         0.3000 
    221 H221       -0.2267  -20.7148  -51.7593 H         1 UNK         0.0600 
    222 H222       -1.4086  -22.4208  -53.0871 H         1 UNK         0.0600 
    223 H223       -1.4724  -20.8794  -53.9287 H         1 UNK         0.0600 
    224 H224       -0.3643  -22.1234  -54.4774 H         1 UNK         0.0600 
    225 H225        2.2172  -19.8104  -51.5987 H         1 UNK         0.3000 
    226 H226        3.3741  -18.6290  -53.8991 H         1 UNK         0.0600 
    227 H227        4.7037  -19.1049  -51.9155 H         1 UNK         0.0600 
    228 H228        4.7462  -17.3688  -52.1830 H         1 UNK         0.0600 
    229 H229        3.7164  -18.0395  -50.9232 H         1 UNK         0.0600 
    230 H230        0.8079  -17.4611  -51.8115 H         1 UNK         0.3000 
    231 H231        0.7851  -14.7481  -52.9402 H         1 UNK         0.0600 
    232 H232       -1.2179  -14.4997  -51.4537 H         1 UNK         0.0600 
    233 H233        0.1845  -15.0728  -50.5790 H         1 UNK         0.0600 
    234 H234       -1.0991  -16.1995  -51.0142 H         1 UNK         0.0600 
    235 H235        0.2223  -17.4399  -54.4993 H         1 UNK         0.3000 
    236 H236       -0.7251  -18.0295  -56.3639 H         1 UNK         0.0600 
    237 H237       -0.7667  -15.6673  -57.1658 H         1 UNK         0.0600 
    238 H238       -2.1372  -16.5932  -57.7579 H         1 UNK         0.0600 
    239 H239       -2.3638  -15.4437  -56.4521 H         1 UNK         0.0600 
    240 H240       -3.1000  -16.5748  -54.1609 H         1 UNK         0.3000 
    241 H241       -4.8556  -17.3537  -53.0642 H         1 UNK         0.0600 
    242 H242       -6.7356  -18.2247  -56.3153 H         1 UNK         0.3800 
    243 H243       -5.2380  -17.3424  -56.1569 H         1 UNK         0.3800 
    244 H244       -4.7944  -19.7346  -52.2762 H         1 UNK         0.0800 
    245 H245       -3.5658  -20.0998  -53.4440 H         1 UNK         0.0800 
    246 H246       -2.8409  -20.7977  -50.4899 H         1 UNK         0.0800 
    247 H247       -2.2284  -19.5291  -49.4583 H         1 UNK         0.0800 
@<TRIPOS>BOND
     1    1    2 1    
     2    1  127 1    
     3    1  128 1    
     4    1  129 1    
     5    2    3 2    
     6    2    4 am   BACKBONE|DICT|INTERRES
     7    4    5 1    
     8    4  130 1    
     9    5    6 1    
    10    5   65 1    
    11    5  131 1    
    12    6    7 1    
    13    6  132 1    
    14    6  133 1    
    15    7    8 1    
    16    8    9 1    
    17    8  134 1    
    18    8  135 1    
    19    9   10 ar   
    20    9   14 ar   
    21   10   11 ar   
    22   10  136 1    
    23   11   12 ar   
    24   11  126 1    
    25   12   13 ar   
    26   12  137 1    
    27   13   14 ar   
    28   13   15 1    
    29   14  138 1    
    30   15   16 1    
    31   15  139 1    
    32   15  140 1    
    33   16   17 1    
    34   17   18 1    
    35   17  141 1    
    36   17  142 1    
    37   18   19 1    
    38   18   67 1    
    39   18  143 1    
    40   19   20 am   BACKBONE|DICT|INTERRES
    41   19  144 1    
    42   20   21 2    
    43   20   22 1    
    44   22   23 1    
    45   22   24 1    
    46   22  145 1    
    47   23  146 1    
    48   23  147 1    
    49   23  148 1    
    50   24   25 am   BACKBONE|DICT|INTERRES
    51   24  149 1    
    52   25   26 2    
    53   25   27 1    
    54   27   28 1    
    55   27   29 1    
    56   27  150 1    
    57   28  151 1    
    58   28  152 1    
    59   28  153 1    
    60   29   30 am   BACKBONE|DICT|INTERRES
    61   29  154 1    
    62   30   31 2    
    63   30   32 1    
    64   32   33 1    
    65   32   34 1    
    66   32  155 1    
    67   33  156 1    
    68   33  157 1    
    69   33  158 1    
    70   34   35 am   BACKBONE|DICT|INTERRES
    71   34  159 1    
    72   35   36 2    
    73   35   37 1    
    74   37   38 1    
    75   37   39 1    
    76   37  160 1    
    77   38  161 1    
    78   38  162 1    
    79   38  163 1    
    80   39   40 am   BACKBONE|DICT|INTERRES
    81   39  164 1    
    82   40   41 2    
    83   40   42 1    
    84   42   43 1    
    85   42   44 1    
    86   42  165 1    
    87   43  166 1    
    88   43  167 1    
    89   43  168 1    
    90   44   45 am   BACKBONE|DICT|INTERRES
    91   44  169 1    
    92   45   46 2    
    93   45   47 1    
    94   47   48 1    
    95   47   49 1    
    96   47  170 1    
    97   48  171 1    
    98   48  172 1    
    99   48  173 1    
   100   49   50 am   BACKBONE|DICT|INTERRES
   101   49  174 1    
   102   50   51 2    
   103   50   52 1    
   104   52   53 1    
   105   52   54 1    
   106   52  175 1    
   107   53  176 1    
   108   53  177 1    
   109   53  178 1    
   110   54   55 am   BACKBONE|DICT|INTERRES
   111   54  179 1    
   112   55   56 2    
   113   55   57 1    
   114   57   58 1    
   115   57   59 1    
   116   57  180 1    
   117   58  181 1    
   118   58  182 1    
   119   58  183 1    
   120   59   60 am   BACKBONE|DICT|INTERRES
   121   59  184 1    
   122   60   61 2    
   123   60   62 1    
   124   62   63 1    
   125   62   64 1    
   126   62  185 1    
   127   63  186 1    
   128   63  187 1    
   129   63  188 1    
   130   64   65 am   BACKBONE|DICT|INTERRES
   131   64  189 1    
   132   65   66 2    
   133   67   68 2    
   134   67   69 am   BACKBONE|DICT|INTERRES
   135   69   70 1    
   136   69  190 1    
   137   70   71 1    
   138   70   72 1    
   139   70  191 1    
   140   71  192 1    
   141   71  193 1    
   142   71  194 1    
   143   72   73 2    
   144   72   74 am   BACKBONE|DICT|INTERRES
   145   74   75 1    
   146   74  195 1    
   147   75   76 1    
   148   75   77 1    
   149   75  196 1    
   150   76  197 1    
   151   76  198 1    
   152   76  199 1    
   153   77   78 2    
   154   77   79 am   BACKBONE|DICT|INTERRES
   155   79   80 1    
   156   79  200 1    
   157   80   81 1    
   158   80   82 1    
   159   80  201 1    
   160   81  202 1    
   161   81  203 1    
   162   81  204 1    
   163   82   83 2    
   164   82   84 am   BACKBONE|DICT|INTERRES
   165   84   85 1    
   166   84  205 1    
   167   85   86 1    
   168   85   87 1    
   169   85  206 1    
   170   86  207 1    
   171   86  208 1    
   172   86  209 1    
   173   87   88 2    
   174   87   89 am   BACKBONE|DICT|INTERRES
   175   89   90 1    
   176   89  210 1    
   177   90   91 1    
   178   90   92 1    
   179   90  211 1    
   180   91  212 1    
   181   91  213 1    
   182   91  214 1    
   183   92   93 2    
   184   92   94 am   BACKBONE|DICT|INTERRES
   185   94   95 1    
   186   94  215 1    
   187   95   96 1    
   188   95   97 1    
   189   95  216 1    
   190   96  217 1    
   191   96  218 1    
   192   96  219 1    
   193   97   98 2    
   194   97   99 am   BACKBONE|DICT|INTERRES
   195   99  100 1    
   196   99  220 1    
   197  100  101 1    
   198  100  102 1    
   199  100  221 1    
   200  101  222 1    
   201  101  223 1    
   202  101  224 1    
   203  102  103 2    
   204  102  104 am   BACKBONE|DICT|INTERRES
   205  104  105 1    
   206  104  225 1    
   207  105  106 1    
   208  105  107 1    
   209  105  226 1    
   210  106  227 1    
   211  106  228 1    
   212  106  229 1    
   213  107  108 2    
   214  107  109 am   BACKBONE|DICT|INTERRES
   215  109  110 1    
   216  109  230 1    
   217  110  111 1    
   218  110  112 1    
   219  110  231 1    
   220  111  232 1    
   221  111  233 1    
   222  111  234 1    
   223  112  113 2    
   224  112  114 am   BACKBONE|DICT|INTERRES
   225  114  115 1    
   226  114  235 1    
   227  115  116 1    
   228  115  117 1    
   229  115  236 1    
   230  116  237 1    
   231  116  238 1    
   232  116  239 1    
   233  117  118 2    
   234  117  119 am   BACKBONE|DICT|INTERRES
   235  119  120 1    
   236  119  240 1    
   237  120  121 1    
   238  120  124 1    
   239  120  241 1    
   240  121  122 am   BACKBONE|DICT|INTERRES
   241  121  123 2    
   242  122  242 1    
   243  122  243 1    
   244  124  125 1    
   245  124  244 1    
   246  124  245 1    
   247  125  126 1    
   248  126  246 1    
   249  126  247 1    
@<TRIPOS>SUBSTRUCTURE
     1 UNK         1 GROUP             0       ****    0 ROOT    
