@<TRIPOS>MOLECULE
3R540
247   249    1
SMALL
USER_CHARGES


@<TRIPOS>ATOM
      1 CA         -4.6283  -14.0173  -49.8909 C.3       0 UNK        -0.1800 
      2 C          -3.5450  -14.4076  -48.8959 C.2       0 UNK         0.5000 
      3 O          -2.3604  -14.2714  -49.1977 O.2       0 UNK        -0.5000 
      4 N          -3.9421  -14.8725  -47.7044 N.am      1 UNK        -0.5000 
      5 CA         -3.0489  -15.3358  -46.6321 C.3       1 UNK         0.1400 
      6 C6         -3.8307  -15.9278  -45.4317 C.3       23 UNK        -0.0398 
      7 S7         -5.0543  -17.1942  -45.9037 S.3       23 UNK        -0.2404 
      8 C8         -4.1528  -18.7415  -45.5831 C.3       23 UNK        -0.0205 
      9 C9         -3.1469  -19.0571  -46.6804 C.ar      23 UNK        -0.0193 
     10 C10        -3.5972  -19.4630  -47.9383 C.ar      23 UNK        -0.1150 
     11 C11        -2.6914  -19.7715  -48.9566 C.ar      23 UNK        -0.0193 
     12 C12        -1.3202  -19.6593  -48.7104 C.ar      23 UNK        -0.1150 
     13 C13        -0.8542  -19.2421  -47.4591 C.ar      23 UNK        -0.0193 
     14 C14        -1.7732  -18.9562  -46.4441 C.ar      23 UNK        -0.1150 
     15 C15         0.6351  -19.0311  -47.2240 C.3       23 UNK        -0.0205 
     16 S16         1.6215  -20.5563  -47.3349 S.3       23 UNK        -0.2404 
     17 C17         1.2170  -21.3613  -45.7491 C.3       23 UNK        -0.0398 
     18 CA          0.7505  -22.8294  -45.9018 C.3       11 UNK         0.1400 
     19 N           0.6603  -23.5082  -44.6071 N.am      11 UNK        -0.5000 
     20 C           0.4901  -24.8286  -44.4410 C.2       10 UNK         0.5000 
     21 O           0.4532  -25.6390  -45.3669 O.2       10 UNK        -0.5000 
     22 CA          0.2692  -25.3129  -42.9957 C.3       10 UNK         0.1400 
     23 CB          1.6123  -25.4958  -42.2738 C.3       10 UNK        -0.1800 
     24 N          -0.5753  -24.3964  -42.2263 N.am      10 UNK        -0.5000 
     25 C          -1.8716  -24.1665  -42.4828 C.2       9 UNK         0.5000 
     26 O          -2.5082  -24.7638  -43.3482 O.2       9 UNK        -0.5000 
     27 CA         -2.5583  -23.0478  -41.6761 C.3       9 UNK         0.1400 
     28 CB         -3.2017  -23.6175  -40.4035 C.3       9 UNK        -0.1800 
     29 N          -1.6466  -21.9587  -41.3150 N.am      9 UNK        -0.5000 
     30 C          -1.0368  -21.1543  -42.1957 C.2       8 UNK         0.5000 
     31 O          -1.1919  -21.2367  -43.4160 O.2       8 UNK        -0.5000 
     32 CA         -0.0120  -20.1699  -41.6031 C.3       8 UNK         0.1400 
     33 CB          1.3486  -20.8687  -41.4476 C.3       8 UNK        -0.1800 
     34 N           0.1890  -18.9528  -42.3885 N.am      8 UNK        -0.5000 
     35 C          -0.7328  -18.0296  -42.6783 C.2       7 UNK         0.5000 
     36 O          -1.9237  -18.1478  -42.3879 O.2       7 UNK        -0.5000 
     37 CA         -0.2745  -16.7356  -43.3933 C.3       7 UNK         0.1400 
     38 CB         -0.4092  -15.5214  -42.4556 C.3       7 UNK        -0.1800 
     39 N           1.0496  -16.7148  -44.0351 N.am      7 UNK        -0.5000 
     40 C           2.2664  -16.9097  -43.5032 C.2       6 UNK         0.5000 
     41 O           2.4708  -17.3384  -42.3684 O.2       6 UNK        -0.5000 
     42 CA          3.4656  -16.5291  -44.3918 C.3       6 UNK         0.1400 
     43 CB          3.8364  -17.6787  -45.3413 C.3       6 UNK        -0.1800 
     44 N           3.2302  -15.3118  -45.1711 N.am      6 UNK        -0.5000 
     45 C           3.0375  -14.0884  -44.6595 C.2       5 UNK         0.5000 
     46 O           3.0855  -13.8434  -43.4535 O.2       5 UNK        -0.5000 
     47 CA          2.7209  -12.9390  -45.6371 C.3       5 UNK         0.1400 
     48 CB          3.9857  -12.1245  -45.9676 C.3       5 UNK        -0.1800 
     49 N           2.0068  -13.3325  -46.8586 N.am      5 UNK        -0.5000 
     50 C           2.4299  -14.0597  -47.9022 C.2       4 UNK         0.5000 
     51 O           3.5352  -14.5984  -47.9593 O.2       4 UNK        -0.5000 
     52 CA          1.4368  -14.2531  -49.0650 C.3       4 UNK         0.1400 
     53 CB          0.8035  -15.6461  -48.9764 C.3       4 UNK        -0.1800 
     54 N           0.3703  -13.2525  -49.0923 N.am      4 UNK        -0.5000 
     55 C           0.5355  -11.9587  -49.4007 C.2       3 UNK         0.5000 
     56 O           1.5973  -11.4761  -49.7955 O.2       3 UNK        -0.5000 
     57 CA         -0.6826  -11.0445  -49.1790 C.3       3 UNK         0.1400 
     58 CB         -1.6061  -11.0489  -50.4070 C.3       3 UNK        -0.1800 
     59 N          -1.4427  -11.4295  -47.9867 N.am      3 UNK        -0.5000 
     60 C          -1.0191  -11.2489  -46.7267 C.2       2 UNK         0.5000 
     61 O           0.0391  -10.6924  -46.4358 O.2       2 UNK        -0.5000 
     62 CA         -1.9086  -11.8055  -45.6007 C.3       2 UNK         0.1400 
     63 CB         -2.9064  -10.7389  -45.1256 C.3       2 UNK        -0.1800 
     64 N          -2.6432  -13.0045  -46.0029 N.am      2 UNK        -0.5000 
     65 C          -2.0993  -14.2225  -46.1398 C.2       1 UNK         0.5000 
     66 O          -0.9133  -14.4739  -45.9220 O.2       1 UNK        -0.5000 
     67 C          -0.5776  -22.9462  -46.6733 C.2       11 UNK         0.5000 
     68 O          -0.5522  -23.2643  -47.8611 O.2       11 UNK        -0.5000 
     69 N          -1.7009  -22.7483  -45.9692 N.am      12 UNK        -0.5000 
     70 CA         -3.0556  -22.8908  -46.5010 C.3       12 UNK         0.1400 
     71 CB         -4.0643  -22.4135  -45.4449 C.3       12 UNK        -0.1800 
     72 C          -3.3775  -24.3307  -46.9433 C.2       12 UNK         0.5000 
     73 O          -3.9585  -24.5243  -48.0102 O.2       12 UNK        -0.5000 
     74 N          -2.9845  -25.3148  -46.1221 N.am      13 UNK        -0.5000 
     75 CA         -3.1733  -26.7426  -46.3800 C.3       13 UNK         0.1400 
     76 CB         -2.8283  -27.5431  -45.1149 C.3       13 UNK        -0.1800 
     77 C          -2.3547  -27.2455  -47.5816 C.2       13 UNK         0.5000 
     78 O          -2.8782  -28.0044  -48.3984 O.2       13 UNK        -0.5000 
     79 N          -1.0926  -26.8062  -47.6746 N.am      14 UNK        -0.5000 
     80 CA         -0.1931  -27.1268  -48.7834 C.3       14 UNK         0.1400 
     81 CB          1.2526  -26.8612  -48.3362 C.3       14 UNK        -0.1800 
     82 C          -0.5023  -26.3304  -50.0658 C.2       14 UNK         0.5000 
     83 O          -0.1461  -26.7834  -51.1541 O.2       14 UNK        -0.5000 
     84 N          -1.1122  -25.1466  -49.9038 N.am      15 UNK        -0.5000 
     85 CA         -1.2911  -24.0814  -50.8960 C.3       15 UNK         0.1400 
     86 CB         -2.2623  -24.5117  -52.0135 C.3       15 UNK        -0.1800 
     87 C           0.0627  -23.5620  -51.4231 C.2       15 UNK         0.5000 
     88 O           0.2012  -23.2831  -52.6146 O.2       15 UNK        -0.5000 
     89 N           1.0489  -23.4762  -50.5176 N.am      16 UNK        -0.5000 
     90 CA          2.4729  -23.3206  -50.8256 C.3       16 UNK         0.1400 
     91 CB          3.2910  -23.4695  -49.5340 C.3       16 UNK        -0.1800 
     92 C           2.8330  -22.0149  -51.5549 C.2       16 UNK         0.5000 
     93 O           3.6978  -22.0307  -52.4317 O.2       16 UNK        -0.5000 
     94 N           2.1558  -20.9174  -51.1958 N.am      17 UNK        -0.5000 
     95 CA          2.3331  -19.6081  -51.8285 C.3       17 UNK         0.1400 
     96 CB          1.9709  -18.5123  -50.8162 C.3       17 UNK        -0.1800 
     97 C           1.5051  -19.4402  -53.1180 C.2       17 UNK         0.5000 
     98 O           1.7452  -18.4852  -53.8572 O.2       17 UNK        -0.5000 
     99 N           0.5342  -20.3404  -53.3494 N.am      18 UNK        -0.5000 
    100 CA        -0.4298  -20.3496  -54.4592 C.3       18 UNK         0.1400 
    101 CB         0.2835  -20.6624  -55.7907 C.3       18 UNK        -0.1800 
    102 C         -1.3084  -19.0781  -54.5318 C.2       18 UNK         0.5000 
    103 O         -1.7275  -18.6751  -55.6188 O.2       18 UNK        -0.5000 
    104 N         -1.5563  -18.4604  -53.3688 N.am      19 UNK        -0.5000 
    105 CA        -2.3401  -17.2372  -53.2111 C.3       19 UNK         0.1400 
    106 CB        -2.0752  -16.6677  -51.8095 C.3       19 UNK        -0.1800 
    107 C         -3.8457  -17.4673  -53.4337 C.2       19 UNK         0.5000 
    108 O         -4.3266  -18.5951  -53.3067 O.2       19 UNK        -0.5000 
    109 N         -4.5691  -16.3745  -53.7130 N.am      20 UNK        -0.5000 
    110 CA        -5.9986  -16.3422  -54.0520 C.3       20 UNK         0.1400 
    111 CB        -6.3804  -14.8986  -54.4163 C.3       20 UNK        -0.1800 
    112 C         -6.9549  -16.8916  -52.9715 C.2       20 UNK         0.5000 
    113 O         -8.1056  -17.1988  -53.2849 O.2       20 UNK        -0.5000 
    114 N         -6.4700  -17.0140  -51.7290 N.am      21 UNK        -0.5000 
    115 CA        -7.1685  -17.6609  -50.6180 C.3       21 UNK         0.1400 
    116 CB        -6.4456  -17.3067  -49.3095 C.3       21 UNK        -0.1800 
    117 C         -7.2886  -19.1922  -50.7759 C.2       21 UNK         0.5000 
    118 O         -8.1744  -19.7889  -50.1622 O.2       21 UNK        -0.5000 
    119 N         -6.4071  -19.7955  -51.5817 N.am      22 UNK        -0.5000 
    120 CA        -6.3789  -21.2295  -51.8908 C.3       22 UNK         0.1400 
    121 C         -7.0841  -21.5196  -53.2421 C.2       22 UNK         0.5000 
    122 N         -7.7292  -22.6709  -53.3729 N.am      22 UNK        -0.7600 
    123 O         -7.0271  -20.7348  -54.1863 O.2       22 UNK        -0.5000 
    124 C124       -4.9260  -21.7675  -51.9045 C.3       23 UNK        -0.0398 
    125 S125       -4.1727  -21.7260  -50.2442 S.3       23 UNK        -0.2404 
    126 C126       -3.2043  -20.1891  -50.3263 C.3       23 UNK        -0.0205 
    127 H127       -5.6121  -13.9789  -49.4234 H         1 UNK         0.0600 
    128 H128       -4.6642  -14.7354  -50.7090 H         1 UNK         0.0600 
    129 H129       -4.4163  -13.0337  -50.3096 H         1 UNK         0.0600 
    130 H130       -4.9286  -14.9803  -47.5169 H         1 UNK         0.3000 
    131 H131       -2.4259  -16.1263  -47.0557 H         1 UNK         0.0600 
    132 H132       -4.3769  -15.1400  -44.9095 H         1 UNK         0.0800 
    133 H133       -3.1519  -16.3536  -44.6939 H         1 UNK         0.0800 
    134 H134       -3.6724  -18.7051  -44.6039 H         1 UNK         0.0800 
    135 H135       -4.8856  -19.5469  -45.5330 H         1 UNK         0.0800 
    136 H136       -4.6588  -19.5456  -48.1239 H         1 UNK         0.1150 
    137 H137       -0.6136  -19.8867  -49.4937 H         1 UNK         0.1150 
    138 H138       -1.4216  -18.6436  -45.4731 H         1 UNK         0.1150 
    139 H139        1.0057  -18.3350  -47.9720 H         1 UNK         0.0800 
    140 H140        0.8104  -18.5587  -46.2575 H         1 UNK         0.0800 
    141 H141        0.4705  -20.7679  -45.2230 H         1 UNK         0.0800 
    142 H142        2.1156  -21.3240  -45.1322 H         1 UNK         0.0800 
    143 H143        1.5087  -23.3580  -46.4842 H         1 UNK         0.0600 
    144 H144        0.6114  -22.9140  -43.7939 H         1 UNK         0.3000 
    145 H145       -0.2312  -26.2825  -43.0405 H         1 UNK         0.0600 
    146 H146        1.4696  -25.9080  -41.2747 H         1 UNK         0.0600 
    147 H147        2.2570  -26.1860  -42.8197 H         1 UNK         0.0600 
    148 H148        2.1507  -24.5524  -42.1743 H         1 UNK         0.0600 
    149 H149       -0.1312  -23.8768  -41.4843 H         1 UNK         0.3000 
    150 H150       -3.3493  -22.6286  -42.3013 H         1 UNK         0.0600 
    151 H151       -2.4554  -24.0307  -39.7238 H         1 UNK         0.0600 
    152 H152       -3.9035  -24.4167  -40.6458 H         1 UNK         0.0600 
    153 H153       -3.7588  -22.8502  -39.8656 H         1 UNK         0.0600 
    154 H154       -1.4599  -21.8393  -40.3297 H         1 UNK         0.3000 
    155 H155       -0.3637  -19.8638  -40.6159 H         1 UNK         0.0600 
    156 H156        1.7610  -21.1647  -42.4130 H         1 UNK         0.0600 
    157 H157        1.2673  -21.7668  -40.8340 H         1 UNK         0.0600 
    158 H158        2.0735  -20.2139  -40.9632 H         1 UNK         0.0600 
    159 H159        1.1511  -18.7014  -42.5859 H         1 UNK         0.3000 
    160 H160       -0.9768  -16.5941  -44.2121 H         1 UNK         0.0600 
    161 H161        0.2872  -15.5811  -41.6186 H         1 UNK         0.0600 
    162 H162       -1.4159  -15.4501  -42.0420 H         1 UNK         0.0600 
    163 H163       -0.2131  -14.5908  -42.9891 H         1 UNK         0.0600 
    164 H164        1.0367  -16.3516  -44.9778 H         1 UNK         0.3000 
    165 H165        4.3162  -16.3453  -43.7322 H         1 UNK         0.0600 
    166 H166        4.7771  -17.4745  -45.8529 H         1 UNK         0.0600 
    167 H167        3.9599  -18.6164  -44.7976 H         1 UNK         0.0600 
    168 H168        3.0746  -17.8369  -46.1036 H         1 UNK         0.0600 
    169 H169        3.2545  -15.3915  -46.1821 H         1 UNK         0.3000 
    170 H170        2.0360  -12.2739  -45.1089 H         1 UNK         0.0600 
    171 H171        4.4418  -11.7298  -45.0589 H         1 UNK         0.0600 
    172 H172        4.7400  -12.7279  -46.4731 H         1 UNK         0.0600 
    173 H173        3.7494  -11.2746  -46.6082 H         1 UNK         0.0600 
    174 H174        1.0536  -13.0005  -46.9076 H         1 UNK         0.3000 
    175 H175        1.9984  -14.1853  -49.9989 H         1 UNK         0.0600 
    176 H176        0.2316  -15.7765  -48.0570 H         1 UNK         0.0600 
    177 H177        0.1338  -15.8310  -49.8137 H         1 UNK         0.0600 
    178 H178        1.5777  -16.4111  -48.9987 H         1 UNK         0.0600 
    179 H179       -0.5643  -13.5807  -48.8648 H         1 UNK         0.3000 
    180 H180       -0.3152  -10.0259  -49.0361 H         1 UNK         0.0600 
    181 H181       -1.9891  -12.0457  -50.6253 H         1 UNK         0.0600 
    182 H182       -1.0724  -10.7045  -51.2937 H         1 UNK         0.0600 
    183 H183       -2.4586  -10.3851  -50.2630 H         1 UNK         0.0600 
    184 H184       -2.3014  -11.9360  -48.1414 H         1 UNK         0.3000 
    185 H185       -1.2593  -12.0630  -44.7608 H         1 UNK         0.0600 
    186 H186       -2.3870   -9.8382  -44.7955 H         1 UNK         0.0600 
    187 H187       -3.5956  -10.4481  -45.9194 H         1 UNK         0.0600 
    188 H188       -3.4968  -11.0991  -44.2828 H         1 UNK         0.0600 
    189 H189       -3.6235  -12.8876  -46.2145 H         1 UNK         0.3000 
    190 H190       -1.6182  -22.4401  -45.0065 H         1 UNK         0.3000 
    191 H191       -3.1316  -22.2410  -47.3739 H         1 UNK         0.0600 
    192 H192       -3.7399  -21.4846  -44.9787 H         1 UNK         0.0600 
    193 H193       -5.0410  -22.2376  -45.8967 H         1 UNK         0.0600 
    194 H194       -4.1999  -23.1451  -44.6486 H         1 UNK         0.0600 
    195 H195       -2.5806  -25.0661  -45.2230 H         1 UNK         0.3000 
    196 H196       -4.2292  -26.9048  -46.6059 H         1 UNK         0.0600 
    197 H197       -2.9668  -28.6125  -45.2781 H         1 UNK         0.0600 
    198 H198       -3.4687  -27.2561  -44.2807 H         1 UNK         0.0600 
    199 H199       -1.7929  -27.3875  -44.8100 H         1 UNK         0.0600 
    200 H200       -0.7147  -26.2248  -46.9328 H         1 UNK         0.3000 
    201 H201       -0.2882  -28.1888  -49.0194 H         1 UNK         0.0600 
    202 H202        1.9606  -27.0856  -49.1351 H         1 UNK         0.0600 
    203 H203        1.5199  -27.4808  -47.4800 H         1 UNK         0.0600 
    204 H204        1.3963  -25.8187  -48.0501 H         1 UNK         0.0600 
    205 H205       -1.3090  -24.8563  -48.9529 H         1 UNK         0.3000 
    206 H206       -1.7429  -23.2467  -50.3616 H         1 UNK         0.0600 
    207 H207       -3.2105  -24.8519  -51.5971 H         1 UNK         0.0600 
    208 H208       -2.4815  -23.6771  -52.6802 H         1 UNK         0.0600 
    209 H209       -1.8523  -25.3173  -52.6227 H         1 UNK         0.0600 
    210 H210        0.8052  -23.6510  -49.5501 H         1 UNK         0.3000 
    211 H211        2.7473  -24.1425  -51.4902 H         1 UNK         0.0600 
    212 H212        3.0161  -22.7193  -48.7933 H         1 UNK         0.0600 
    213 H213        4.3581  -23.3591  -49.7315 H         1 UNK         0.0600 
    214 H214        3.1470  -24.4521  -49.0859 H         1 UNK         0.0600 
    215 H215        1.4817  -20.9881  -50.4477 H         1 UNK         0.3000 
    216 H216        3.3841  -19.4788  -52.0957 H         1 UNK         0.0600 
    217 H217        2.1786  -17.5226  -51.2253 H         1 UNK         0.0600 
    218 H218        2.5560  -18.6128  -49.9019 H         1 UNK         0.0600 
    219 H219        0.9147  -18.5368  -50.5502 H         1 UNK         0.0600 
    220 H220        0.4729  -21.1372  -52.7275 H         1 UNK         0.3000 
    221 H221       -1.1152  -21.1734  -54.2546 H         1 UNK         0.0600 
    222 H222        0.9475  -19.8527  -56.0943 H         1 UNK         0.0600 
    223 H223        0.8779  -21.5729  -55.7127 H         1 UNK         0.0600 
    224 H224       -0.4364  -20.8151  -56.5955 H         1 UNK         0.0600 
    225 H225       -1.1768  -18.8646  -52.5281 H         1 UNK         0.3000 
    226 H226       -1.9906  -16.5145  -53.9515 H         1 UNK         0.0600 
    227 H227       -1.0100  -16.4963  -51.6612 H         1 UNK         0.0600 
    228 H228       -2.5736  -15.7080  -51.6729 H         1 UNK         0.0600 
    229 H229       -2.4215  -17.3352  -51.0200 H         1 UNK         0.0600 
    230 H230       -4.0902  -15.4873  -53.7722 H         1 UNK         0.3000 
    231 H231       -6.1349  -16.9657  -54.9380 H         1 UNK         0.0600 
    232 H232       -6.2326  -14.2205  -53.5748 H         1 UNK         0.0600 
    233 H233       -7.4285  -14.8316  -54.7114 H         1 UNK         0.0600 
    234 H234       -5.7868  -14.5314  -55.2537 H         1 UNK         0.0600 
    235 H235       -5.5138  -16.7398  -51.5674 H         1 UNK         0.3000 
    236 H236       -8.1828  -17.2596  -50.5667 H         1 UNK         0.0600 
    237 H237       -6.5229  -16.2417  -49.0956 H         1 UNK         0.0600 
    238 H238       -6.8824  -17.8356  -48.4613 H         1 UNK         0.0600 
    239 H239       -5.3871  -17.5655  -49.3487 H         1 UNK         0.0600 
    240 H240       -5.7552  -19.2312  -52.1178 H         1 UNK         0.3000 
    241 H241       -6.9238  -21.7727  -51.1159 H         1 UNK         0.0600 
    242 H242       -7.7873  -23.3363  -52.6173 H         1 UNK         0.3800 
    243 H243       -8.1819  -22.8800  -54.2495 H         1 UNK         0.3800 
    244 H244       -4.9104  -22.8074  -52.2350 H         1 UNK         0.0800 
    245 H245       -4.3059  -21.2153  -52.6127 H         1 UNK         0.0800 
    246 H246       -2.3823  -20.3252  -51.0298 H         1 UNK         0.0800 
    247 H247       -3.8254  -19.3855  -50.7202 H         1 UNK         0.0800 
@<TRIPOS>BOND
     1    1    2 1    
     2    1  127 1    
     3    1  128 1    
     4    1  129 1    
     5    2    3 2    
     6    2    4 am   BACKBONE|DICT|INTERRES
     7    4    5 1    
     8    4  130 1    
     9    5    6 1    
    10    5   65 1    
    11    5  131 1    
    12    6    7 1    
    13    6  132 1    
    14    6  133 1    
    15    7    8 1    
    16    8    9 1    
    17    8  134 1    
    18    8  135 1    
    19    9   10 ar   
    20    9   14 ar   
    21   10   11 ar   
    22   10  136 1    
    23   11   12 ar   
    24   11  126 1    
    25   12   13 ar   
    26   12  137 1    
    27   13   14 ar   
    28   13   15 1    
    29   14  138 1    
    30   15   16 1    
    31   15  139 1    
    32   15  140 1    
    33   16   17 1    
    34   17   18 1    
    35   17  141 1    
    36   17  142 1    
    37   18   19 1    
    38   18   67 1    
    39   18  143 1    
    40   19   20 am   BACKBONE|DICT|INTERRES
    41   19  144 1    
    42   20   21 2    
    43   20   22 1    
    44   22   23 1    
    45   22   24 1    
    46   22  145 1    
    47   23  146 1    
    48   23  147 1    
    49   23  148 1    
    50   24   25 am   BACKBONE|DICT|INTERRES
    51   24  149 1    
    52   25   26 2    
    53   25   27 1    
    54   27   28 1    
    55   27   29 1    
    56   27  150 1    
    57   28  151 1    
    58   28  152 1    
    59   28  153 1    
    60   29   30 am   BACKBONE|DICT|INTERRES
    61   29  154 1    
    62   30   31 2    
    63   30   32 1    
    64   32   33 1    
    65   32   34 1    
    66   32  155 1    
    67   33  156 1    
    68   33  157 1    
    69   33  158 1    
    70   34   35 am   BACKBONE|DICT|INTERRES
    71   34  159 1    
    72   35   36 2    
    73   35   37 1    
    74   37   38 1    
    75   37   39 1    
    76   37  160 1    
    77   38  161 1    
    78   38  162 1    
    79   38  163 1    
    80   39   40 am   BACKBONE|DICT|INTERRES
    81   39  164 1    
    82   40   41 2    
    83   40   42 1    
    84   42   43 1    
    85   42   44 1    
    86   42  165 1    
    87   43  166 1    
    88   43  167 1    
    89   43  168 1    
    90   44   45 am   BACKBONE|DICT|INTERRES
    91   44  169 1    
    92   45   46 2    
    93   45   47 1    
    94   47   48 1    
    95   47   49 1    
    96   47  170 1    
    97   48  171 1    
    98   48  172 1    
    99   48  173 1    
   100   49   50 am   BACKBONE|DICT|INTERRES
   101   49  174 1    
   102   50   51 2    
   103   50   52 1    
   104   52   53 1    
   105   52   54 1    
   106   52  175 1    
   107   53  176 1    
   108   53  177 1    
   109   53  178 1    
   110   54   55 am   BACKBONE|DICT|INTERRES
   111   54  179 1    
   112   55   56 2    
   113   55   57 1    
   114   57   58 1    
   115   57   59 1    
   116   57  180 1    
   117   58  181 1    
   118   58  182 1    
   119   58  183 1    
   120   59   60 am   BACKBONE|DICT|INTERRES
   121   59  184 1    
   122   60   61 2    
   123   60   62 1    
   124   62   63 1    
   125   62   64 1    
   126   62  185 1    
   127   63  186 1    
   128   63  187 1    
   129   63  188 1    
   130   64   65 am   BACKBONE|DICT|INTERRES
   131   64  189 1    
   132   65   66 2    
   133   67   68 2    
   134   67   69 am   BACKBONE|DICT|INTERRES
   135   69   70 1    
   136   69  190 1    
   137   70   71 1    
   138   70   72 1    
   139   70  191 1    
   140   71  192 1    
   141   71  193 1    
   142   71  194 1    
   143   72   73 2    
   144   72   74 am   BACKBONE|DICT|INTERRES
   145   74   75 1    
   146   74  195 1    
   147   75   76 1    
   148   75   77 1    
   149   75  196 1    
   150   76  197 1    
   151   76  198 1    
   152   76  199 1    
   153   77   78 2    
   154   77   79 am   BACKBONE|DICT|INTERRES
   155   79   80 1    
   156   79  200 1    
   157   80   81 1    
   158   80   82 1    
   159   80  201 1    
   160   81  202 1    
   161   81  203 1    
   162   81  204 1    
   163   82   83 2    
   164   82   84 am   BACKBONE|DICT|INTERRES
   165   84   85 1    
   166   84  205 1    
   167   85   86 1    
   168   85   87 1    
   169   85  206 1    
   170   86  207 1    
   171   86  208 1    
   172   86  209 1    
   173   87   88 2    
   174   87   89 am   BACKBONE|DICT|INTERRES
   175   89   90 1    
   176   89  210 1    
   177   90   91 1    
   178   90   92 1    
   179   90  211 1    
   180   91  212 1    
   181   91  213 1    
   182   91  214 1    
   183   92   93 2    
   184   92   94 am   BACKBONE|DICT|INTERRES
   185   94   95 1    
   186   94  215 1    
   187   95   96 1    
   188   95   97 1    
   189   95  216 1    
   190   96  217 1    
   191   96  218 1    
   192   96  219 1    
   193   97   98 2    
   194   97   99 am   BACKBONE|DICT|INTERRES
   195   99  100 1    
   196   99  220 1    
   197  100  101 1    
   198  100  102 1    
   199  100  221 1    
   200  101  222 1    
   201  101  223 1    
   202  101  224 1    
   203  102  103 2    
   204  102  104 am   BACKBONE|DICT|INTERRES
   205  104  105 1    
   206  104  225 1    
   207  105  106 1    
   208  105  107 1    
   209  105  226 1    
   210  106  227 1    
   211  106  228 1    
   212  106  229 1    
   213  107  108 2    
   214  107  109 am   BACKBONE|DICT|INTERRES
   215  109  110 1    
   216  109  230 1    
   217  110  111 1    
   218  110  112 1    
   219  110  231 1    
   220  111  232 1    
   221  111  233 1    
   222  111  234 1    
   223  112  113 2    
   224  112  114 am   BACKBONE|DICT|INTERRES
   225  114  115 1    
   226  114  235 1    
   227  115  116 1    
   228  115  117 1    
   229  115  236 1    
   230  116  237 1    
   231  116  238 1    
   232  116  239 1    
   233  117  118 2    
   234  117  119 am   BACKBONE|DICT|INTERRES
   235  119  120 1    
   236  119  240 1    
   237  120  121 1    
   238  120  124 1    
   239  120  241 1    
   240  121  122 am   BACKBONE|DICT|INTERRES
   241  121  123 2    
   242  122  242 1    
   243  122  243 1    
   244  124  125 1    
   245  124  244 1    
   246  124  245 1    
   247  125  126 1    
   248  126  246 1    
   249  126  247 1    
@<TRIPOS>SUBSTRUCTURE
     1 UNK         1 GROUP             0       ****    0 ROOT    
