@<TRIPOS>MOLECULE
3R540
247   249    1
SMALL
USER_CHARGES


@<TRIPOS>ATOM
      1 CA         -4.1052  -11.4271  -47.1606 C.3       0 UNK        -0.1800 
      2 C          -2.9266  -12.1128  -46.4853 C.2       0 UNK         0.5000 
      3 O          -2.1088  -11.4440  -45.8535 O.2       0 UNK        -0.5000 
      4 N          -2.8444  -13.4458  -46.6006 N.am      1 UNK        -0.5000 
      5 CA         -1.7627  -14.2863  -46.0638 C.3       1 UNK         0.1400 
      6 C6         -1.9040  -15.7636  -46.4962 C.3       23 UNK        -0.0398 
      7 S7         -1.7354  -15.9709  -48.2984 S.3       23 UNK        -0.2404 
      8 C8         -1.8095  -17.7819  -48.4239 C.3       23 UNK        -0.0205 
      9 C9         -0.7911  -18.3099  -49.4178 C.ar      23 UNK        -0.0193 
     10 C10        -1.1084  -18.3992  -50.7759 C.ar      23 UNK        -0.1150 
     11 C11        -0.1733  -18.8904  -51.6915 C.ar      23 UNK        -0.0193 
     12 C12         1.0856  -19.2943  -51.2354 C.ar      23 UNK        -0.1150 
     13 C13         1.4188  -19.1974  -49.8804 C.ar      23 UNK        -0.0193 
     14 C14         0.4738  -18.7069  -48.9759 C.ar      23 UNK        -0.1150 
     15 C15         2.8133  -19.5826  -49.4088 C.3       23 UNK        -0.0205 
     16 S16         2.9112  -21.3216  -48.8808 S.3       23 UNK        -0.2404 
     17 C17         2.4265  -21.2145  -47.1247 C.3       23 UNK        -0.0398 
     18 CA          1.4163  -22.3135  -46.7181 C.3       11 UNK         0.1400 
     19 N           1.5550  -22.6983  -45.3112 N.am      11 UNK        -0.5000 
     20 C           0.9726  -23.7614  -44.7456 C.2       10 UNK         0.5000 
     21 O           0.1972  -24.5029  -45.3495 O.2       10 UNK        -0.5000 
     22 CA          1.2917  -24.0622  -43.2677 C.3       10 UNK         0.1400 
     23 CB          2.5894  -24.8830  -43.1492 C.3       10 UNK        -0.1800 
     24 N           1.3163  -22.9038  -42.3622 N.am      10 UNK        -0.5000 
     25 C           2.1506  -21.8556  -42.3461 C.2       9 UNK         0.5000 
     26 O           3.0184  -21.6447  -43.1955 O.2       9 UNK        -0.5000 
     27 CA          1.9882  -20.8801  -41.1688 C.3       9 UNK         0.1400 
     28 CB          3.3106  -20.7169  -40.4029 C.3       9 UNK        -0.1800 
     29 N           1.5294  -19.5762  -41.6370 N.am      9 UNK        -0.5000 
     30 C           0.2736  -19.3138  -42.0234 C.2       8 UNK         0.5000 
     31 O          -0.6390  -20.1399  -41.9828 O.2       8 UNK        -0.5000 
     32 CA         -0.0113  -17.8953  -42.5511 C.3       8 UNK         0.1400 
     33 CB         -0.1628  -16.9060  -41.3858 C.3       8 UNK        -0.1800 
     34 N           1.0167  -17.4057  -43.4677 N.am      8 UNK        -0.5000 
     35 C           1.3216  -17.9611  -44.6483 C.2       7 UNK         0.5000 
     36 O           0.7586  -18.9562  -45.1007 O.2       7 UNK        -0.5000 
     37 CA          2.4548  -17.3048  -45.4514 C.3       7 UNK         0.1400 
     38 CB          1.9481  -16.0733  -46.2172 C.3       7 UNK        -0.1800 
     39 N           3.5545  -16.9203  -44.5691 N.am      7 UNK        -0.5000 
     40 C           4.5891  -17.7184  -44.2704 C.2       6 UNK         0.5000 
     41 O           4.7701  -18.8209  -44.7876 O.2       6 UNK        -0.5000 
     42 CA          5.6038  -17.2072  -43.2270 C.3       6 UNK         0.1400 
     43 CB          6.8247  -16.5897  -43.9261 C.3       6 UNK        -0.1800 
     44 N           5.0512  -16.2273  -42.2900 N.am      6 UNK        -0.5000 
     45 C           4.1381  -16.4991  -41.3478 C.2       5 UNK         0.5000 
     46 O           3.6580  -17.6156  -41.1605 O.2       5 UNK        -0.5000 
     47 CA          3.6340  -15.3066  -40.5112 C.3       5 UNK         0.1400 
     48 CB          4.5519  -15.0712  -39.3027 C.3       5 UNK        -0.1800 
     49 N           3.4948  -14.0562  -41.2679 N.am      5 UNK        -0.5000 
     50 C           2.7601  -13.9125  -42.3786 C.2       4 UNK         0.5000 
     51 O           2.1762  -14.8450  -42.9293 O.2       4 UNK        -0.5000 
     52 CA          2.6880  -12.5114  -42.9926 C.3       4 UNK         0.1400 
     53 CB          3.1429  -12.5286  -44.4614 C.3       4 UNK        -0.1800 
     54 N           1.3093  -12.0352  -42.9238 N.am      4 UNK        -0.5000 
     55 C           0.9355  -10.8614  -42.3950 C.2       3 UNK         0.5000 
     56 O           1.7276  -10.0656  -41.8875 O.2       3 UNK        -0.5000 
     57 CA         -0.5584  -10.4787  -42.4444 C.3       3 UNK         0.1400 
     58 CB         -0.7917   -9.3727  -43.4856 C.3       3 UNK        -0.1800 
     59 N          -1.4486  -11.5997  -42.7429 N.am      3 UNK        -0.5000 
     60 C          -1.8130  -12.5398  -41.8589 C.2       2 UNK         0.5000 
     61 O          -1.4529  -12.5397  -40.6813 O.2       2 UNK        -0.5000 
     62 CA         -2.7296  -13.6753  -42.3659 C.3       2 UNK         0.1400 
     63 CB         -4.1816  -13.4262  -41.9302 C.3       2 UNK        -0.1800 
     64 N          -2.7022  -13.8735  -43.8179 N.am      2 UNK        -0.5000 
     65 C          -1.6154  -14.2008  -44.5313 C.2       1 UNK         0.5000 
     66 O          -0.5125  -14.3918  -44.0277 O.2       1 UNK        -0.5000 
     67 C          -0.0397  -21.9549  -47.0778 C.2       11 UNK         0.5000 
     68 O          -0.5380  -22.4193  -48.0999 O.2       11 UNK        -0.5000 
     69 N          -0.7255  -21.2180  -46.1921 N.am      12 UNK        -0.5000 
     70 CA         -2.1495  -20.8964  -46.2998 C.3       12 UNK         0.1400 
     71 CB         -2.5390  -19.9152  -45.1831 C.3       12 UNK        -0.1800 
     72 C          -3.0649  -22.1338  -46.2699 C.2       12 UNK         0.5000 
     73 O          -4.0588  -22.1661  -46.9948 O.2       12 UNK        -0.5000 
     74 N          -2.7060  -23.1393  -45.4597 N.am      13 UNK        -0.5000 
     75 CA         -3.4257  -24.4109  -45.3698 C.3       13 UNK         0.1400 
     76 CB         -2.9899  -25.1690  -44.1064 C.3       13 UNK        -0.1800 
     77 C          -3.2369  -25.2734  -46.6308 C.2       13 UNK         0.5000 
     78 O          -4.1937  -25.9041  -47.0808 O.2       13 UNK        -0.5000 
     79 N          -2.0194  -25.2601  -47.1915 N.am      14 UNK        -0.5000 
     80 CA         -1.6810  -25.9107  -48.4572 C.3       14 UNK         0.1400 
     81 CB         -0.1532  -25.9537  -48.6167 C.3       14 UNK        -0.1800 
     82 C          -2.3447  -25.2229  -49.6661 C.2       14 UNK         0.5000 
     83 O          -2.8492  -25.9113  -50.5538 O.2       14 UNK        -0.5000 
     84 N          -2.3432  -23.8827  -49.6681 N.am      15 UNK        -0.5000 
     85 CA         -2.9742  -23.0343  -50.6783 C.3       15 UNK         0.1400 
     86 CB         -2.5620  -21.5746  -50.4403 C.3       15 UNK        -0.1800 
     87 C          -4.5066  -23.1536  -50.6888 C.2       15 UNK         0.5000 
     88 O          -5.1000  -23.1725  -51.7674 O.2       15 UNK        -0.5000 
     89 N          -5.1117  -23.2267  -49.4933 N.am      16 UNK        -0.5000 
     90 CA         -6.5469  -23.3250  -49.2219 C.3       16 UNK         0.1400 
     91 CB         -7.0951  -24.6961  -49.6747 C.3       16 UNK        -0.1800 
     92 C          -7.3140  -22.1213  -49.8044 C.2       16 UNK         0.5000 
     93 O          -7.3439  -21.0624  -49.1763 O.2       16 UNK        -0.5000 
     94 N          -7.8938  -22.2926  -50.9997 N.am      17 UNK        -0.5000 
     95 CA         -8.5435  -21.2355  -51.7765 C.3       17 UNK         0.1400 
     96 CB         -9.3708  -21.8851  -52.8967 C.3       17 UNK        -0.1800 
     97 C          -7.5499  -20.2146  -52.3699 C.2       17 UNK         0.5000 
     98 O          -7.9539  -19.0869  -52.6578 O.2       17 UNK        -0.5000 
     99 N          -6.2838  -20.6279  -52.5383 N.am      18 UNK        -0.5000 
    100 CA        -5.1760  -19.8869  -53.1461 C.3       18 UNK         0.1400 
    101 CB        -4.7869  -18.6711  -52.2769 C.3       18 UNK        -0.1800 
    102 C         -5.4368  -19.5380  -54.6279 C.2       18 UNK         0.5000 
    103 O         -6.2046  -20.2384  -55.2941 O.2       18 UNK        -0.5000 
    104 N         -4.7598  -18.4957  -55.1336 N.am      19 UNK        -0.5000 
    105 CA        -4.7856  -18.0174  -56.5197 C.3       19 UNK         0.1400 
    106 CB        -6.1477  -17.3622  -56.8418 C.3       19 UNK        -0.1800 
    107 C         -4.3762  -19.1380  -57.4964 C.2       19 UNK         0.5000 
    108 O         -3.2083  -19.5281  -57.5019 O.2       19 UNK        -0.5000 
    109 N         -5.3401  -19.6754  -58.2560 N.am      20 UNK        -0.5000 
    110 CA        -5.1662  -20.8122  -59.1620 C.3       20 UNK         0.1400 
    111 CB        -6.4729  -21.0419  -59.9359 C.3       20 UNK        -0.1800 
    112 C         -4.7226  -22.1090  -58.4548 C.2       20 UNK         0.5000 
    113 O         -4.0020  -22.9046  -59.0591 O.2       20 UNK        -0.5000 
    114 N         -5.1088  -22.2861  -57.1811 N.am      21 UNK        -0.5000 
    115 CA        -4.7084  -23.4267  -56.3502 C.3       21 UNK         0.1400 
    116 CB        -5.5769  -23.4730  -55.0849 C.3       21 UNK        -0.1800 
    117 C         -3.2094  -23.4214  -55.9850 C.2       21 UNK         0.5000 
    118 O         -2.6662  -24.4805  -55.6692 O.2       21 UNK        -0.5000 
    119 N         -2.5631  -22.2504  -56.0670 N.am      22 UNK        -0.5000 
    120 CA        -1.1050  -22.0900  -55.9568 C.3       22 UNK         0.1400 
    121 C         -0.3485  -22.3471  -57.2962 C.2       22 UNK         0.5000 
    122 N         -1.0126  -22.6471  -58.4078 N.am      22 UNK        -0.7600 
    123 O          0.8778  -22.2913  -57.3271 O.2       22 UNK        -0.5000 
    124 C124       -0.7214  -20.7169  -55.3465 C.3       23 UNK        -0.0398 
    125 S125       -1.2923  -20.5325  -53.6245 S.3       23 UNK        -0.2404 
    126 C126       -0.5031  -18.9554  -53.1757 C.3       23 UNK        -0.0205 
    127 H127       -3.7475  -10.7033  -47.8929 H         1 UNK         0.0600 
    128 H128       -4.7501  -12.1407  -47.6741 H         1 UNK         0.0600 
    129 H129       -4.7047  -10.8973  -46.4204 H         1 UNK         0.0600 
    130 H130       -3.5415  -13.9350  -47.1440 H         1 UNK         0.3000 
    131 H131       -0.8276  -13.9030  -46.4786 H         1 UNK         0.0600 
    132 H132       -2.8657  -16.1708  -46.1785 H         1 UNK         0.0800 
    133 H133       -1.1367  -16.3763  -46.0180 H         1 UNK         0.0800 
    134 H134       -1.6153  -18.2239  -47.4481 H         1 UNK         0.0800 
    135 H135       -2.8169  -18.0887  -48.7094 H         1 UNK         0.0800 
    136 H136       -2.0813  -18.0800  -51.1179 H         1 UNK         0.1150 
    137 H137        1.8139  -19.6705  -51.9400 H         1 UNK         0.1150 
    138 H138        0.7215  -18.6247  -47.9277 H         1 UNK         0.1150 
    139 H139        3.5261  -19.4305  -50.2208 H         1 UNK         0.0800 
    140 H140        3.1400  -18.9242  -48.6025 H         1 UNK         0.0800 
    141 H141        2.0464  -20.2225  -46.8924 H         1 UNK         0.0800 
    142 H142        3.3451  -21.3162  -46.5444 H         1 UNK         0.0800 
    143 H143        1.6631  -23.2136  -47.2860 H         1 UNK         0.0600 
    144 H144        2.1762  -22.1407  -44.7283 H         1 UNK         0.3000 
    145 H145        0.4785  -24.6931  -42.9053 H         1 UNK         0.0600 
    146 H146        2.7716  -25.1859  -42.1181 H         1 UNK         0.0600 
    147 H147        2.5308  -25.7923  -43.7489 H         1 UNK         0.0600 
    148 H148        3.4594  -24.3228  -43.4929 H         1 UNK         0.0600 
    149 H149        0.6057  -22.9287  -41.6436 H         1 UNK         0.3000 
    150 H150        1.2495  -21.2783  -40.4697 H         1 UNK         0.0600 
    151 H151        3.6566  -21.6752  -40.0139 H         1 UNK         0.0600 
    152 H152        3.1943  -20.0424  -39.5544 H         1 UNK         0.0600 
    153 H153        4.1003  -20.3174  -41.0408 H         1 UNK         0.0600 
    154 H154        2.2323  -18.8445  -41.6915 H         1 UNK         0.3000 
    155 H155       -0.9545  -17.9225  -43.1001 H         1 UNK         0.0600 
    156 H156       -0.9928  -17.1897  -40.7379 H         1 UNK         0.0600 
    157 H157       -0.3572  -15.8962  -41.7457 H         1 UNK         0.0600 
    158 H158        0.7370  -16.8700  -40.7718 H         1 UNK         0.0600 
    159 H159        1.4784  -16.5375  -43.2062 H         1 UNK         0.3000 
    160 H160        2.8097  -18.0266  -46.1891 H         1 UNK         0.0600 
    161 H161        1.1752  -16.3512  -46.9340 H         1 UNK         0.0600 
    162 H162        2.7534  -15.5987  -46.7777 H         1 UNK         0.0600 
    163 H163        1.5215  -15.3269  -45.5477 H         1 UNK         0.0600 
    164 H164        3.4356  -16.0555  -44.0556 H         1 UNK         0.3000 
    165 H165        5.9408  -18.0715  -42.6506 H         1 UNK         0.0600 
    166 H166        7.5881  -16.2986  -43.2042 H         1 UNK         0.0600 
    167 H167        7.2839  -17.3022  -44.6127 H         1 UNK         0.0600 
    168 H168        6.5525  -15.7056  -44.5041 H         1 UNK         0.0600 
    169 H169        5.3778  -15.2767  -42.3805 H         1 UNK         0.3000 
    170 H170        2.6435  -15.5688  -40.1356 H         1 UNK         0.0600 
    171 H171        4.1484  -14.3019  -38.6441 H         1 UNK         0.0600 
    172 H172        4.6581  -15.9808  -38.7098 H         1 UNK         0.0600 
    173 H173        5.5514  -14.7610  -39.6100 H         1 UNK         0.0600 
    174 H174        3.9526  -13.2450  -40.8777 H         1 UNK         0.3000 
    175 H175        3.3621  -11.8566  -42.4368 H         1 UNK         0.0600 
    176 H176        4.1504  -12.9354  -44.5563 H         1 UNK         0.0600 
    177 H177        2.4820  -13.1347  -45.0820 H         1 UNK         0.0600 
    178 H178        3.1569  -11.5214  -44.8779 H         1 UNK         0.0600 
    179 H179        0.6068  -12.6827  -43.2667 H         1 UNK         0.3000 
    180 H180       -0.8243  -10.0778  -41.4641 H         1 UNK         0.0600 
    181 H181       -0.5075   -9.6981  -44.4870 H         1 UNK         0.0600 
    182 H182       -0.2040   -8.4842  -43.2515 H         1 UNK         0.0600 
    183 H183       -1.8388   -9.0705  -43.5152 H         1 UNK         0.0600 
    184 H184       -1.7706  -11.6747  -43.7012 H         1 UNK         0.3000 
    185 H185       -2.3879  -14.6005  -41.8987 H         1 UNK         0.0600 
    186 H186       -4.8251  -14.2631  -42.2022 H         1 UNK         0.0600 
    187 H187       -4.2505  -13.3042  -40.8484 H         1 UNK         0.0600 
    188 H188       -4.5891  -12.5244  -42.3890 H         1 UNK         0.0600 
    189 H189       -3.5663  -13.7103  -44.3135 H         1 UNK         0.3000 
    190 H190       -0.2221  -20.7976  -45.4192 H         1 UNK         0.3000 
    191 H191       -2.3055  -20.4078  -47.2617 H         1 UNK         0.0600 
    192 H192       -2.3852  -20.3511  -44.1953 H         1 UNK         0.0600 
    193 H193       -3.5902  -19.6343  -45.2589 H         1 UNK         0.0600 
    194 H194       -1.9548  -18.9973  -45.2345 H         1 UNK         0.0600 
    195 H195       -1.8499  -23.0573  -44.9318 H         1 UNK         0.3000 
    196 H196       -4.4915  -24.1910  -45.2756 H         1 UNK         0.0600 
    197 H197       -1.9361  -25.4445  -44.1377 H         1 UNK         0.0600 
    198 H198       -3.5629  -26.0899  -43.9914 H         1 UNK         0.0600 
    199 H199       -3.1544  -24.5706  -43.2103 H         1 UNK         0.0600 
    200 H200       -1.2742  -24.7564  -46.7217 H         1 UNK         0.3000 
    201 H201       -2.0453  -26.9393  -48.4165 H         1 UNK         0.0600 
    202 H202        0.3147  -26.4832  -47.7865 H         1 UNK         0.0600 
    203 H203        0.2780  -24.9534  -48.6589 H         1 UNK         0.0600 
    204 H204        0.1282  -26.4712  -49.5346 H         1 UNK         0.0600 
    205 H205       -1.8228  -23.3971  -48.9400 H         1 UNK         0.3000 
    206 H206       -2.6053  -23.3407  -51.6594 H         1 UNK         0.0600 
    207 H207       -2.8674  -21.2230  -49.4553 H         1 UNK         0.0600 
    208 H208       -3.0159  -20.9120  -51.1755 H         1 UNK         0.0600 
    209 H209       -1.4814  -21.4523  -50.5185 H         1 UNK         0.0600 
    210 H210       -4.5364  -23.1022  -48.6658 H         1 UNK         0.3000 
    211 H211       -6.6585  -23.2690  -48.1380 H         1 UNK         0.0600 
    212 H212       -6.9464  -24.8776  -50.7394 H         1 UNK         0.0600 
    213 H213       -8.1633  -24.7776  -49.4697 H         1 UNK         0.0600 
    214 H214       -6.6009  -25.5041  -49.1348 H         1 UNK         0.0600 
    215 H215       -7.7813  -23.1858  -51.4573 H         1 UNK         0.3000 
    216 H216       -9.2235  -20.6920  -51.1172 H         1 UNK         0.0600 
    217 H217       -9.8991  -21.1297  -53.4800 H         1 UNK         0.0600 
    218 H218      -10.1205  -22.5651  -52.4918 H         1 UNK         0.0600 
    219 H219       -8.7403  -22.4487  -53.5859 H         1 UNK         0.0600 
    220 H220       -6.0646  -21.5871  -52.2838 H         1 UNK         0.3000 
    221 H221       -4.3314  -20.5761  -53.1518 H         1 UNK         0.0600 
    222 H222       -5.5467  -17.8896  -52.3074 H         1 UNK         0.0600 
    223 H223       -4.6513  -18.9616  -51.2348 H         1 UNK         0.0600 
    224 H224       -3.8472  -18.2310  -52.6091 H         1 UNK         0.0600 
    225 H225       -4.1284  -18.0014  -54.5202 H         1 UNK         0.3000 
    226 H226       -4.0196  -17.2450  -56.6014 H         1 UNK         0.0600 
    227 H227       -6.3343  -16.5160  -56.1805 H         1 UNK         0.0600 
    228 H228       -6.1684  -16.9801  -57.8632 H         1 UNK         0.0600 
    229 H229       -6.9824  -18.0545  -56.7271 H         1 UNK         0.0600 
    230 H230       -6.2798  -19.3210  -58.1526 H         1 UNK         0.3000 
    231 H231       -4.3858  -20.5477  -59.8784 H         1 UNK         0.0600 
    232 H232       -6.3697  -21.8684  -60.6403 H         1 UNK         0.0600 
    233 H233       -6.7516  -20.1592  -60.5116 H         1 UNK         0.0600 
    234 H234       -7.2996  -21.2824  -59.2662 H         1 UNK         0.0600 
    235 H235       -5.6637  -21.5670  -56.7264 H         1 UNK         0.3000 
    236 H236       -4.9009  -24.3375  -56.9210 H         1 UNK         0.0600 
    237 H237       -5.3769  -24.3764  -54.5074 H         1 UNK         0.0600 
    238 H238       -5.3767  -22.6249  -54.4326 H         1 UNK         0.0600 
    239 H239       -6.6395  -23.4686  -55.3277 H         1 UNK         0.0600 
    240 H240       -3.0686  -21.4309  -56.3781 H         1 UNK         0.3000 
    241 H241       -0.7305  -22.8537  -55.2725 H         1 UNK         0.0600 
    242 H242       -0.4950  -22.8151  -59.2560 H         1 UNK         0.3800 
    243 H243       -2.0224  -22.7176  -58.4216 H         1 UNK         0.3800 
    244 H244       -1.1205  -19.8984  -55.9462 H         1 UNK         0.0800 
    245 H245        0.3632  -20.5946  -55.3441 H         1 UNK         0.0800 
    246 H246        0.4117  -18.8163  -53.7535 H         1 UNK         0.0800 
    247 H247       -1.1641  -18.1330  -53.4526 H         1 UNK         0.0800 
@<TRIPOS>BOND
     1    1    2 1    
     2    1  127 1    
     3    1  128 1    
     4    1  129 1    
     5    2    3 2    
     6    2    4 am   BACKBONE|DICT|INTERRES
     7    4    5 1    
     8    4  130 1    
     9    5    6 1    
    10    5   65 1    
    11    5  131 1    
    12    6    7 1    
    13    6  132 1    
    14    6  133 1    
    15    7    8 1    
    16    8    9 1    
    17    8  134 1    
    18    8  135 1    
    19    9   10 ar   
    20    9   14 ar   
    21   10   11 ar   
    22   10  136 1    
    23   11   12 ar   
    24   11  126 1    
    25   12   13 ar   
    26   12  137 1    
    27   13   14 ar   
    28   13   15 1    
    29   14  138 1    
    30   15   16 1    
    31   15  139 1    
    32   15  140 1    
    33   16   17 1    
    34   17   18 1    
    35   17  141 1    
    36   17  142 1    
    37   18   19 1    
    38   18   67 1    
    39   18  143 1    
    40   19   20 am   BACKBONE|DICT|INTERRES
    41   19  144 1    
    42   20   21 2    
    43   20   22 1    
    44   22   23 1    
    45   22   24 1    
    46   22  145 1    
    47   23  146 1    
    48   23  147 1    
    49   23  148 1    
    50   24   25 am   BACKBONE|DICT|INTERRES
    51   24  149 1    
    52   25   26 2    
    53   25   27 1    
    54   27   28 1    
    55   27   29 1    
    56   27  150 1    
    57   28  151 1    
    58   28  152 1    
    59   28  153 1    
    60   29   30 am   BACKBONE|DICT|INTERRES
    61   29  154 1    
    62   30   31 2    
    63   30   32 1    
    64   32   33 1    
    65   32   34 1    
    66   32  155 1    
    67   33  156 1    
    68   33  157 1    
    69   33  158 1    
    70   34   35 am   BACKBONE|DICT|INTERRES
    71   34  159 1    
    72   35   36 2    
    73   35   37 1    
    74   37   38 1    
    75   37   39 1    
    76   37  160 1    
    77   38  161 1    
    78   38  162 1    
    79   38  163 1    
    80   39   40 am   BACKBONE|DICT|INTERRES
    81   39  164 1    
    82   40   41 2    
    83   40   42 1    
    84   42   43 1    
    85   42   44 1    
    86   42  165 1    
    87   43  166 1    
    88   43  167 1    
    89   43  168 1    
    90   44   45 am   BACKBONE|DICT|INTERRES
    91   44  169 1    
    92   45   46 2    
    93   45   47 1    
    94   47   48 1    
    95   47   49 1    
    96   47  170 1    
    97   48  171 1    
    98   48  172 1    
    99   48  173 1    
   100   49   50 am   BACKBONE|DICT|INTERRES
   101   49  174 1    
   102   50   51 2    
   103   50   52 1    
   104   52   53 1    
   105   52   54 1    
   106   52  175 1    
   107   53  176 1    
   108   53  177 1    
   109   53  178 1    
   110   54   55 am   BACKBONE|DICT|INTERRES
   111   54  179 1    
   112   55   56 2    
   113   55   57 1    
   114   57   58 1    
   115   57   59 1    
   116   57  180 1    
   117   58  181 1    
   118   58  182 1    
   119   58  183 1    
   120   59   60 am   BACKBONE|DICT|INTERRES
   121   59  184 1    
   122   60   61 2    
   123   60   62 1    
   124   62   63 1    
   125   62   64 1    
   126   62  185 1    
   127   63  186 1    
   128   63  187 1    
   129   63  188 1    
   130   64   65 am   BACKBONE|DICT|INTERRES
   131   64  189 1    
   132   65   66 2    
   133   67   68 2    
   134   67   69 am   BACKBONE|DICT|INTERRES
   135   69   70 1    
   136   69  190 1    
   137   70   71 1    
   138   70   72 1    
   139   70  191 1    
   140   71  192 1    
   141   71  193 1    
   142   71  194 1    
   143   72   73 2    
   144   72   74 am   BACKBONE|DICT|INTERRES
   145   74   75 1    
   146   74  195 1    
   147   75   76 1    
   148   75   77 1    
   149   75  196 1    
   150   76  197 1    
   151   76  198 1    
   152   76  199 1    
   153   77   78 2    
   154   77   79 am   BACKBONE|DICT|INTERRES
   155   79   80 1    
   156   79  200 1    
   157   80   81 1    
   158   80   82 1    
   159   80  201 1    
   160   81  202 1    
   161   81  203 1    
   162   81  204 1    
   163   82   83 2    
   164   82   84 am   BACKBONE|DICT|INTERRES
   165   84   85 1    
   166   84  205 1    
   167   85   86 1    
   168   85   87 1    
   169   85  206 1    
   170   86  207 1    
   171   86  208 1    
   172   86  209 1    
   173   87   88 2    
   174   87   89 am   BACKBONE|DICT|INTERRES
   175   89   90 1    
   176   89  210 1    
   177   90   91 1    
   178   90   92 1    
   179   90  211 1    
   180   91  212 1    
   181   91  213 1    
   182   91  214 1    
   183   92   93 2    
   184   92   94 am   BACKBONE|DICT|INTERRES
   185   94   95 1    
   186   94  215 1    
   187   95   96 1    
   188   95   97 1    
   189   95  216 1    
   190   96  217 1    
   191   96  218 1    
   192   96  219 1    
   193   97   98 2    
   194   97   99 am   BACKBONE|DICT|INTERRES
   195   99  100 1    
   196   99  220 1    
   197  100  101 1    
   198  100  102 1    
   199  100  221 1    
   200  101  222 1    
   201  101  223 1    
   202  101  224 1    
   203  102  103 2    
   204  102  104 am   BACKBONE|DICT|INTERRES
   205  104  105 1    
   206  104  225 1    
   207  105  106 1    
   208  105  107 1    
   209  105  226 1    
   210  106  227 1    
   211  106  228 1    
   212  106  229 1    
   213  107  108 2    
   214  107  109 am   BACKBONE|DICT|INTERRES
   215  109  110 1    
   216  109  230 1    
   217  110  111 1    
   218  110  112 1    
   219  110  231 1    
   220  111  232 1    
   221  111  233 1    
   222  111  234 1    
   223  112  113 2    
   224  112  114 am   BACKBONE|DICT|INTERRES
   225  114  115 1    
   226  114  235 1    
   227  115  116 1    
   228  115  117 1    
   229  115  236 1    
   230  116  237 1    
   231  116  238 1    
   232  116  239 1    
   233  117  118 2    
   234  117  119 am   BACKBONE|DICT|INTERRES
   235  119  120 1    
   236  119  240 1    
   237  120  121 1    
   238  120  124 1    
   239  120  241 1    
   240  121  122 am   BACKBONE|DICT|INTERRES
   241  121  123 2    
   242  122  242 1    
   243  122  243 1    
   244  124  125 1    
   245  124  244 1    
   246  124  245 1    
   247  125  126 1    
   248  126  246 1    
   249  126  247 1    
@<TRIPOS>SUBSTRUCTURE
     1 UNK         1 GROUP             0       ****    0 ROOT    
