@<TRIPOS>MOLECULE
3R540
247   249    1
SMALL
USER_CHARGES


@<TRIPOS>ATOM
      1 CA          4.1189   -9.7369  -44.6068 C.3       0 UNK        -0.1800 
      2 C           4.2949  -10.7124  -45.7618 C.2       0 UNK         0.5000 
      3 O           5.1012  -10.4665  -46.6587 O.2       0 UNK        -0.5000 
      4 N           3.5399  -11.8169  -45.7403 N.am      1 UNK        -0.5000 
      5 CA          3.6146  -12.9082  -46.7191 C.3       1 UNK         0.1400 
      6 C6          2.3228  -13.7586  -46.7284 C.3       23 UNK        -0.0398 
      7 S7          0.8958  -12.8032  -47.3395 S.3       23 UNK        -0.2404 
      8 C8          1.0400  -13.0357  -49.1402 C.3       23 UNK        -0.0205 
      9 C9          0.5413  -14.3995  -49.5951 C.ar      23 UNK        -0.0193 
     10 C10        -0.8122  -14.5874  -49.8890 C.ar      23 UNK        -0.1150 
     11 C11        -1.2867  -15.8209  -50.3459 C.ar      23 UNK        -0.0193 
     12 C12        -0.3751  -16.8726  -50.5062 C.ar      23 UNK        -0.1150 
     13 C13         0.9787  -16.7080  -50.1981 C.ar      23 UNK        -0.0193 
     14 C14         1.4321  -15.4645  -49.7531 C.ar      23 UNK        -0.1150 
     15 C15         1.9546  -17.8668  -50.3626 C.3       23 UNK        -0.0205 
     16 S16         1.9347  -18.9964  -48.9298 S.3       23 UNK        -0.2404 
     17 C17         0.3117  -19.7885  -49.1575 C.3       23 UNK        -0.0398 
     18 CA          0.1464  -21.1381  -48.4240 C.3       11 UNK         0.1400 
     19 N           0.1699  -21.0055  -46.9617 N.am      11 UNK        -0.5000 
     20 C           0.0690  -22.0273  -46.0963 C.2       10 UNK         0.5000 
     21 O           0.0341  -23.2109  -46.4323 O.2       10 UNK        -0.5000 
     22 CA         -0.0966  -21.6677  -44.6092 C.3       10 UNK         0.1400 
     23 CB          1.2558  -21.3552  -43.9507 C.3       10 UNK        -0.1800 
     24 N          -1.0236  -20.5506  -44.4222 N.am      10 UNK        -0.5000 
     25 C          -2.3425  -20.6216  -44.6562 C.2       9 UNK         0.5000 
     26 O          -2.9199  -21.6540  -44.9923 O.2       9 UNK        -0.5000 
     27 CA         -3.1475  -19.3162  -44.5406 C.3       9 UNK         0.1400 
     28 CB         -3.6458  -19.1089  -43.1031 C.3       9 UNK        -0.1800 
     29 N          -2.3737  -18.1528  -44.9728 N.am      9 UNK        -0.5000 
     30 C          -2.0556  -17.9012  -46.2525 C.2       8 UNK         0.5000 
     31 O          -2.4194  -18.6084  -47.1923 O.2       8 UNK        -0.5000 
     32 CA         -1.1430  -16.6864  -46.5202 C.3       8 UNK         0.1400 
     33 CB         -1.9964  -15.4175  -46.6508 C.3       8 UNK        -0.1800 
     34 N          -0.1346  -16.4854  -45.4754 N.am      8 UNK        -0.5000 
     35 C           0.7838  -17.3998  -45.1245 C.2       7 UNK         0.5000 
     36 O           0.9461  -18.4554  -45.7336 O.2       7 UNK        -0.5000 
     37 CA          1.5992  -17.1561  -43.8368 C.3       7 UNK         0.1400 
     38 CB          3.0478  -16.7653  -44.1521 C.3       7 UNK        -0.1800 
     39 N           1.0155  -16.1625  -42.9342 N.am      7 UNK        -0.5000 
     40 C          -0.1784  -16.2785  -42.3333 C.2       6 UNK         0.5000 
     41 O          -0.8950  -17.2734  -42.4409 O.2       6 UNK        -0.5000 
     42 CA         -0.6859  -15.0676  -41.5253 C.3       6 UNK         0.1400 
     43 CB         -0.4596  -15.2963  -40.0235 C.3       6 UNK        -0.1800 
     44 N          -0.0778  -13.7892  -41.9062 N.am      6 UNK        -0.5000 
     45 C          -0.1160  -13.2253  -43.1234 C.2       5 UNK         0.5000 
     46 O          -0.6836  -13.7318  -44.0904 O.2       5 UNK        -0.5000 
     47 CA          0.6503  -11.8984  -43.2978 C.3       5 UNK         0.1400 
     48 CB         -0.3133  -10.7052  -43.2338 C.3       5 UNK        -0.1800 
     49 N           1.7134  -11.7123  -42.3024 N.am      5 UNK        -0.5000 
     50 C           2.8406  -12.4327  -42.2456 C.2       4 UNK         0.5000 
     51 O           3.1542  -13.2737  -43.0955 O.2       4 UNK        -0.5000 
     52 CA          3.7460  -12.1865  -41.0297 C.3       4 UNK         0.1400 
     53 CB          3.0888  -12.7003  -39.7357 C.3       4 UNK        -0.1800 
     54 N           5.0078  -12.8821  -41.2411 N.am      4 UNK        -0.5000 
     55 C           6.2012  -12.5348  -40.7460 C.2       3 UNK         0.5000 
     56 O           6.3738  -11.5878  -39.9778 O.2       3 UNK        -0.5000 
     57 CA          7.4113  -13.3855  -41.1910 C.3       3 UNK         0.1400 
     58 CB          7.7849  -14.4004  -40.0996 C.3       3 UNK        -0.1800 
     59 N           7.1761  -14.1045  -42.4478 N.am      3 UNK        -0.5000 
     60 C           7.0684  -13.5185  -43.6475 C.2       2 UNK         0.5000 
     61 O           7.2569  -12.3152  -43.8334 O.2       2 UNK        -0.5000 
     62 CA          6.6092  -14.3906  -44.8255 C.3       2 UNK         0.1400 
     63 CB          6.5054  -15.8983  -44.5180 C.3       2 UNK        -0.1800 
     64 N           5.3128  -13.8660  -45.2345 N.am      2 UNK        -0.5000 
     65 C           4.8655  -13.7828  -46.4912 C.2       1 UNK         0.5000 
     66 O           5.4156  -14.3208  -47.4527 O.2       1 UNK        -0.5000 
     67 C          -1.1515  -21.8120  -48.9123 C.2       11 UNK         0.5000 
     68 O          -1.0856  -22.7239  -49.7363 O.2       11 UNK        -0.5000 
     69 N          -2.2992  -21.3629  -48.3812 N.am      12 UNK        -0.5000 
     70 CA         -3.6126  -21.9268  -48.6793 C.3       12 UNK         0.1400 
     71 CB         -4.7175  -21.0605  -48.0578 C.3       12 UNK        -0.1800 
     72 C          -3.7308  -23.3940  -48.2334 C.2       12 UNK         0.5000 
     73 O          -4.1063  -24.2409  -49.0435 O.2       12 UNK        -0.5000 
     74 N          -3.3667  -23.6762  -46.9741 N.am      13 UNK        -0.5000 
     75 CA         -3.3922  -25.0095  -46.3669 C.3       13 UNK         0.1400 
     76 CB         -3.0146  -24.9064  -44.8823 C.3       13 UNK        -0.1800 
     77 C          -2.4923  -26.0344  -47.0804 C.2       13 UNK         0.5000 
     78 O          -2.8852  -27.1948  -47.2062 O.2       13 UNK        -0.5000 
     79 N          -1.3344  -25.5852  -47.5859 N.am      14 UNK        -0.5000 
     80 CA         -0.3978  -26.3872  -48.3801 C.3       14 UNK         0.1400 
     81 CB          0.8901  -25.5827  -48.6127 C.3       14 UNK        -0.1800 
     82 C          -0.9757  -26.8877  -49.7215 C.2       14 UNK         0.5000 
     83 O          -0.4778  -27.8800  -50.2546 O.2       14 UNK        -0.5000 
     84 N          -2.0229  -26.2211  -50.2236 N.am      15 UNK        -0.5000 
     85 CA         -2.7950  -26.6079  -51.4036 C.3       15 UNK         0.1400 
     86 CB         -2.6443  -25.5187  -52.4785 C.3       15 UNK        -0.1800 
     87 C          -4.2632  -26.9052  -51.0310 C.2       15 UNK         0.5000 
     88 O          -5.1557  -26.7419  -51.8643 O.2       15 UNK        -0.5000 
     89 N          -4.4871  -27.3440  -49.7809 N.am      16 UNK        -0.5000 
     90 CA         -5.7467  -27.8348  -49.2062 C.3       16 UNK         0.1400 
     91 CB         -6.1318  -29.1791  -49.8584 C.3       16 UNK        -0.1800 
     92 C          -6.9149  -26.8233  -49.2199 C.2       16 UNK         0.5000 
     93 O          -8.0748  -27.2366  -49.1697 O.2       16 UNK        -0.5000 
     94 N          -6.5946  -25.5226  -49.2863 N.am      17 UNK        -0.5000 
     95 CA         -7.5113  -24.3825  -49.3930 C.3       17 UNK         0.1400 
     96 CB         -8.2932  -24.1863  -48.0783 C.3       17 UNK        -0.1800 
     97 C          -8.4177  -24.4388  -50.6437 C.2       17 UNK         0.5000 
     98 O          -9.5647  -23.9886  -50.5999 O.2       17 UNK        -0.5000 
     99 N          -7.8819  -24.9972  -51.7380 N.am      18 UNK        -0.5000 
    100 CA        -8.5210  -25.0816  -53.0506 C.3       18 UNK         0.1400 
    101 CB        -7.6827  -26.0263  -53.9282 C.3       18 UNK        -0.1800 
    102 C         -8.6807  -23.7067  -53.7337 C.2       18 UNK         0.5000 
    103 O         -8.1253  -22.7037  -53.2761 O.2       18 UNK        -0.5000 
    104 N         -9.4171  -23.6888  -54.8523 N.am      19 UNK        -0.5000 
    105 CA        -9.5513  -22.5276  -55.7320 C.3       19 UNK         0.1400 
    106 CB       -10.5617  -22.8454  -56.8455 C.3       19 UNK        -0.1800 
    107 C         -8.1853  -22.1236  -56.3203 C.2       19 UNK         0.5000 
    108 O         -7.5341  -22.9507  -56.9625 O.2       19 UNK        -0.5000 
    109 N         -7.7774  -20.8747  -56.0569 N.am      20 UNK        -0.5000 
    110 CA        -6.4893  -20.2725  -56.4199 C.3       20 UNK         0.1400 
    111 CB        -6.3480  -20.1458  -57.9519 C.3       20 UNK        -0.1800 
    112 C         -5.2737  -20.9588  -55.7548 C.2       20 UNK         0.5000 
    113 O         -4.1921  -20.9937  -56.3450 O.2       20 UNK        -0.5000 
    114 N         -5.4540  -21.4586  -54.5207 N.am      21 UNK        -0.5000 
    115 CA        -4.4268  -22.1217  -53.7033 C.3       21 UNK         0.1400 
    116 CB        -5.0536  -22.5731  -52.3747 C.3       21 UNK        -0.1800 
    117 C         -3.1588  -21.2808  -53.4417 C.2       21 UNK         0.5000 
    118 O         -2.0798  -21.8494  -53.2770 O.2       21 UNK        -0.5000 
    119 N         -3.3049  -19.9501  -53.4412 N.am      22 UNK        -0.5000 
    120 CA        -2.1979  -18.9814  -53.3850 C.3       22 UNK         0.1400 
    121 C         -1.3533  -18.8837  -54.6923 C.2       22 UNK         0.5000 
    122 N         -1.7566  -19.4778  -55.8098 N.am      22 UNK        -0.7600 
    123 O         -0.2976  -18.2571  -54.6897 O.2       22 UNK        -0.5000 
    124 C124       -2.6973  -17.5795  -52.9515 C.3       23 UNK        -0.0398 
    125 S125       -3.3663  -17.5759  -51.2526 S.3       23 UNK        -0.2404 
    126 C126       -2.7846  -15.9525  -50.6428 C.3       23 UNK        -0.0205 
    127 H127        4.1520   -8.7097  -44.9702 H         1 UNK         0.0600 
    128 H128        3.1650   -9.8817  -44.0997 H         1 UNK         0.0600 
    129 H129        4.9205   -9.8700  -43.8800 H         1 UNK         0.0600 
    130 H130        2.9253  -11.9819  -44.9565 H         1 UNK         0.3000 
    131 H131        3.7309  -12.4642  -47.7100 H         1 UNK         0.0600 
    132 H132        2.4403  -14.6614  -47.3267 H         1 UNK         0.0800 
    133 H133        2.0816  -14.0975  -45.7207 H         1 UNK         0.0800 
    134 H134        0.4609  -12.2555  -49.6363 H         1 UNK         0.0800 
    135 H135        2.0736  -12.8839  -49.4540 H         1 UNK         0.0800 
    136 H136       -1.5015  -13.7640  -49.7626 H         1 UNK         0.1150 
    137 H137       -0.7097  -17.8322  -50.8642 H         1 UNK         0.1150 
    138 H138        2.4818  -15.3258  -49.5362 H         1 UNK         0.1150 
    139 H139        1.7295  -18.4192  -51.2762 H         1 UNK         0.0800 
    140 H140        2.9687  -17.4843  -50.4871 H         1 UNK         0.0800 
    141 H141        0.1672  -19.9330  -50.2301 H         1 UNK         0.0800 
    142 H142       -0.4568  -19.0874  -48.8330 H         1 UNK         0.0800 
    143 H143        0.9777  -21.7878  -48.7059 H         1 UNK         0.0600 
    144 H144        0.2651  -20.0629  -46.5935 H         1 UNK         0.3000 
    145 H145       -0.5180  -22.5382  -44.1021 H         1 UNK         0.0600 
    146 H146        1.1337  -21.1006  -42.8978 H         1 UNK         0.0600 
    147 H147        1.9166  -22.2214  -44.0009 H         1 UNK         0.0600 
    148 H148        1.7709  -20.5289  -44.4391 H         1 UNK         0.0600 
    149 H149       -0.6217  -19.6550  -44.1879 H         1 UNK         0.3000 
    150 H150       -4.0218  -19.4028  -45.1890 H         1 UNK         0.0600 
    151 H151       -4.3030  -19.9252  -42.8005 H         1 UNK         0.0600 
    152 H152       -4.2130  -18.1827  -43.0098 H         1 UNK         0.0600 
    153 H153       -2.8228  -19.0735  -42.3890 H         1 UNK         0.0600 
    154 H154       -1.9927  -17.5652  -44.2405 H         1 UNK         0.3000 
    155 H155       -0.6208  -16.8563  -47.4638 H         1 UNK         0.0600 
    156 H156       -1.3873  -14.5579  -46.9244 H         1 UNK         0.0600 
    157 H157       -2.5087  -15.1788  -45.7181 H         1 UNK         0.0600 
    158 H158       -2.7573  -15.5346  -47.4221 H         1 UNK         0.0600 
    159 H159       -0.2195  -15.6351  -44.9296 H         1 UNK         0.3000 
    160 H160        1.6231  -18.1070  -43.3006 H         1 UNK         0.0600 
    161 H161        3.1157  -15.7816  -44.6120 H         1 UNK         0.0600 
    162 H162        3.5116  -17.4809  -44.8324 H         1 UNK         0.0600 
    163 H163        3.6443  -16.7487  -43.2406 H         1 UNK         0.0600 
    164 H164        1.5363  -15.3060  -42.8076 H         1 UNK         0.3000 
    165 H165       -1.7600  -14.9878  -41.7043 H         1 UNK         0.0600 
    166 H166        0.6024  -15.3550  -39.7812 H         1 UNK         0.0600 
    167 H167       -0.8962  -14.4922  -39.4307 H         1 UNK         0.0600 
    168 H168       -0.9232  -16.2276  -39.6952 H         1 UNK         0.0600 
    169 H169        0.4101  -13.2947  -41.1751 H         1 UNK         0.3000 
    170 H170        1.1010  -11.9137  -44.2909 H         1 UNK         0.0600 
    171 H171       -1.1017  -10.8004  -43.9819 H         1 UNK         0.0600 
    172 H172       -0.7938  -10.6261  -42.2579 H         1 UNK         0.0600 
    173 H173        0.2070   -9.7676  -43.4305 H         1 UNK         0.0600 
    174 H174        1.5323  -11.0292  -41.5802 H         1 UNK         0.3000 
    175 H175        3.9277  -11.1123  -40.9544 H         1 UNK         0.0600 
    176 H176        3.7377  -12.5402  -38.8744 H         1 UNK         0.0600 
    177 H177        2.1521  -12.1813  -39.5303 H         1 UNK         0.0600 
    178 H178        2.8704  -13.7675  -39.7928 H         1 UNK         0.0600 
    179 H179        4.9512  -13.6478  -41.8987 H         1 UNK         0.3000 
    180 H180        8.2561  -12.7083  -41.3336 H         1 UNK         0.0600 
    181 H181        6.9788  -15.1127  -39.9191 H         1 UNK         0.0600 
    182 H182        7.9964  -13.8979  -39.1548 H         1 UNK         0.0600 
    183 H183        8.6773  -14.9636  -40.3731 H         1 UNK         0.0600 
    184 H184        7.0121  -15.0984  -42.3765 H         1 UNK         0.3000 
    185 H185        7.3350  -14.2459  -45.6285 H         1 UNK         0.0600 
    186 H186        6.1482  -16.4499  -45.3878 H         1 UNK         0.0600 
    187 H187        7.4798  -16.3116  -44.2548 H         1 UNK         0.0600 
    188 H188        5.8221  -16.1031  -43.6953 H         1 UNK         0.0600 
    189 H189        4.7872  -13.3864  -44.5131 H         1 UNK         0.3000 
    190 H190       -2.2757  -20.5679  -47.7509 H         1 UNK         0.3000 
    191 H191       -3.7373  -21.8924  -49.7611 H         1 UNK         0.0600 
    192 H192       -4.6634  -20.0342  -48.4224 H         1 UNK         0.0600 
    193 H193       -5.7049  -21.4457  -48.3149 H         1 UNK         0.0600 
    194 H194       -4.6500  -21.0326  -46.9708 H         1 UNK         0.0600 
    195 H195       -3.0867  -22.9128  -46.3623 H         1 UNK         0.3000 
    196 H196       -4.4186  -25.3764  -46.4319 H         1 UNK         0.0600 
    197 H197       -3.0380  -25.8855  -44.4022 H         1 UNK         0.0600 
    198 H198       -3.7103  -24.2637  -44.3425 H         1 UNK         0.0600 
    199 H199       -2.0116  -24.4987  -44.7518 H         1 UNK         0.0600 
    200 H200       -1.0591  -24.6263  -47.3965 H         1 UNK         0.3000 
    201 H201       -0.1421  -27.2707  -47.7918 H         1 UNK         0.0600 
    202 H202        1.3627  -25.3135  -47.6681 H         1 UNK         0.0600 
    203 H203        0.6954  -24.6629  -49.1643 H         1 UNK         0.0600 
    204 H204        1.6166  -26.1613  -49.1845 H         1 UNK         0.0600 
    205 H205       -2.3782  -25.4197  -49.7140 H         1 UNK         0.3000 
    206 H206       -2.4099  -27.5385  -51.8242 H         1 UNK         0.0600 
    207 H207       -1.6156  -25.4673  -52.8350 H         1 UNK         0.0600 
    208 H208       -3.2769  -25.7104  -53.3459 H         1 UNK         0.0600 
    209 H209       -2.8986  -24.5378  -52.0849 H         1 UNK         0.0600 
    210 H210       -3.6946  -27.3860  -49.1501 H         1 UNK         0.3000 
    211 H211       -5.5372  -28.0286  -48.1534 H         1 UNK         0.0600 
    212 H212       -6.4136  -29.0525  -50.9043 H         1 UNK         0.0600 
    213 H213       -6.9763  -29.6401  -49.3449 H         1 UNK         0.0600 
    214 H214       -5.3053  -29.8886  -49.8169 H         1 UNK         0.0600 
    215 H215       -5.6070  -25.2756  -49.3098 H         1 UNK         0.3000 
    216 H216       -6.8789  -23.5042  -49.5294 H         1 UNK         0.0600 
    217 H217       -7.6174  -24.1237  -47.2252 H         1 UNK         0.0600 
    218 H218       -8.9906  -25.0042  -47.8959 H         1 UNK         0.0600 
    219 H219       -8.8713  -23.2619  -48.1006 H         1 UNK         0.0600 
    220 H220       -6.9418  -25.3691  -51.6767 H         1 UNK         0.3000 
    221 H221       -9.5154  -25.5122  -52.9179 H         1 UNK         0.0600 
    222 H222       -6.6812  -25.6285  -54.0997 H         1 UNK         0.0600 
    223 H223       -7.5756  -27.0060  -53.4615 H         1 UNK         0.0600 
    224 H224       -8.1447  -26.1838  -54.9033 H         1 UNK         0.0600 
    225 H225       -9.8201  -24.5515  -55.1871 H         1 UNK         0.3000 
    226 H226       -9.9473  -21.7001  -55.1393 H         1 UNK         0.0600 
    227 H227      -11.5418  -23.0853  -56.4329 H         1 UNK         0.0600 
    228 H228      -10.6897  -21.9901  -57.5102 H         1 UNK         0.0600 
    229 H229      -10.2380  -23.6896  -57.4557 H         1 UNK         0.0600 
    230 H230       -8.3840  -20.2868  -55.5018 H         1 UNK         0.3000 
    231 H231       -6.5097  -19.2596  -56.0153 H         1 UNK         0.0600 
    232 H232       -5.4706  -19.5543  -58.2161 H         1 UNK         0.0600 
    233 H233       -7.2145  -19.6492  -58.3886 H         1 UNK         0.0600 
    234 H234       -6.2405  -21.1185  -58.4326 H         1 UNK         0.0600 
    235 H235       -6.3854  -21.4355  -54.1241 H         1 UNK         0.3000 
    236 H236       -4.1046  -23.0135  -54.2447 H         1 UNK         0.0600 
    237 H237       -4.2987  -22.9088  -51.6675 H         1 UNK         0.0600 
    238 H238       -5.6139  -21.7703  -51.8945 H         1 UNK         0.0600 
    239 H239       -5.7261  -23.4140  -52.5315 H         1 UNK         0.0600 
    240 H240       -4.2291  -19.5676  -53.5704 H         1 UNK         0.3000 
    241 H241       -1.5019  -19.3324  -52.6207 H         1 UNK         0.0600 
    242 H242       -1.1865  -19.4011  -56.6369 H         1 UNK         0.3800 
    243 H243       -2.6177  -20.0155  -55.8508 H         1 UNK         0.3800 
    244 H244       -1.8861  -16.8512  -53.0055 H         1 UNK         0.0800 
    245 H245       -3.4692  -17.2190  -53.6332 H         1 UNK         0.0800 
    246 H246       -3.0726  -15.1869  -51.3648 H         1 UNK         0.0800 
    247 H247       -3.3352  -15.7298  -49.7286 H         1 UNK         0.0800 
@<TRIPOS>BOND
     1    1    2 1    
     2    1  127 1    
     3    1  128 1    
     4    1  129 1    
     5    2    3 2    
     6    2    4 am   BACKBONE|DICT|INTERRES
     7    4    5 1    
     8    4  130 1    
     9    5    6 1    
    10    5   65 1    
    11    5  131 1    
    12    6    7 1    
    13    6  132 1    
    14    6  133 1    
    15    7    8 1    
    16    8    9 1    
    17    8  134 1    
    18    8  135 1    
    19    9   10 ar   
    20    9   14 ar   
    21   10   11 ar   
    22   10  136 1    
    23   11   12 ar   
    24   11  126 1    
    25   12   13 ar   
    26   12  137 1    
    27   13   14 ar   
    28   13   15 1    
    29   14  138 1    
    30   15   16 1    
    31   15  139 1    
    32   15  140 1    
    33   16   17 1    
    34   17   18 1    
    35   17  141 1    
    36   17  142 1    
    37   18   19 1    
    38   18   67 1    
    39   18  143 1    
    40   19   20 am   BACKBONE|DICT|INTERRES
    41   19  144 1    
    42   20   21 2    
    43   20   22 1    
    44   22   23 1    
    45   22   24 1    
    46   22  145 1    
    47   23  146 1    
    48   23  147 1    
    49   23  148 1    
    50   24   25 am   BACKBONE|DICT|INTERRES
    51   24  149 1    
    52   25   26 2    
    53   25   27 1    
    54   27   28 1    
    55   27   29 1    
    56   27  150 1    
    57   28  151 1    
    58   28  152 1    
    59   28  153 1    
    60   29   30 am   BACKBONE|DICT|INTERRES
    61   29  154 1    
    62   30   31 2    
    63   30   32 1    
    64   32   33 1    
    65   32   34 1    
    66   32  155 1    
    67   33  156 1    
    68   33  157 1    
    69   33  158 1    
    70   34   35 am   BACKBONE|DICT|INTERRES
    71   34  159 1    
    72   35   36 2    
    73   35   37 1    
    74   37   38 1    
    75   37   39 1    
    76   37  160 1    
    77   38  161 1    
    78   38  162 1    
    79   38  163 1    
    80   39   40 am   BACKBONE|DICT|INTERRES
    81   39  164 1    
    82   40   41 2    
    83   40   42 1    
    84   42   43 1    
    85   42   44 1    
    86   42  165 1    
    87   43  166 1    
    88   43  167 1    
    89   43  168 1    
    90   44   45 am   BACKBONE|DICT|INTERRES
    91   44  169 1    
    92   45   46 2    
    93   45   47 1    
    94   47   48 1    
    95   47   49 1    
    96   47  170 1    
    97   48  171 1    
    98   48  172 1    
    99   48  173 1    
   100   49   50 am   BACKBONE|DICT|INTERRES
   101   49  174 1    
   102   50   51 2    
   103   50   52 1    
   104   52   53 1    
   105   52   54 1    
   106   52  175 1    
   107   53  176 1    
   108   53  177 1    
   109   53  178 1    
   110   54   55 am   BACKBONE|DICT|INTERRES
   111   54  179 1    
   112   55   56 2    
   113   55   57 1    
   114   57   58 1    
   115   57   59 1    
   116   57  180 1    
   117   58  181 1    
   118   58  182 1    
   119   58  183 1    
   120   59   60 am   BACKBONE|DICT|INTERRES
   121   59  184 1    
   122   60   61 2    
   123   60   62 1    
   124   62   63 1    
   125   62   64 1    
   126   62  185 1    
   127   63  186 1    
   128   63  187 1    
   129   63  188 1    
   130   64   65 am   BACKBONE|DICT|INTERRES
   131   64  189 1    
   132   65   66 2    
   133   67   68 2    
   134   67   69 am   BACKBONE|DICT|INTERRES
   135   69   70 1    
   136   69  190 1    
   137   70   71 1    
   138   70   72 1    
   139   70  191 1    
   140   71  192 1    
   141   71  193 1    
   142   71  194 1    
   143   72   73 2    
   144   72   74 am   BACKBONE|DICT|INTERRES
   145   74   75 1    
   146   74  195 1    
   147   75   76 1    
   148   75   77 1    
   149   75  196 1    
   150   76  197 1    
   151   76  198 1    
   152   76  199 1    
   153   77   78 2    
   154   77   79 am   BACKBONE|DICT|INTERRES
   155   79   80 1    
   156   79  200 1    
   157   80   81 1    
   158   80   82 1    
   159   80  201 1    
   160   81  202 1    
   161   81  203 1    
   162   81  204 1    
   163   82   83 2    
   164   82   84 am   BACKBONE|DICT|INTERRES
   165   84   85 1    
   166   84  205 1    
   167   85   86 1    
   168   85   87 1    
   169   85  206 1    
   170   86  207 1    
   171   86  208 1    
   172   86  209 1    
   173   87   88 2    
   174   87   89 am   BACKBONE|DICT|INTERRES
   175   89   90 1    
   176   89  210 1    
   177   90   91 1    
   178   90   92 1    
   179   90  211 1    
   180   91  212 1    
   181   91  213 1    
   182   91  214 1    
   183   92   93 2    
   184   92   94 am   BACKBONE|DICT|INTERRES
   185   94   95 1    
   186   94  215 1    
   187   95   96 1    
   188   95   97 1    
   189   95  216 1    
   190   96  217 1    
   191   96  218 1    
   192   96  219 1    
   193   97   98 2    
   194   97   99 am   BACKBONE|DICT|INTERRES
   195   99  100 1    
   196   99  220 1    
   197  100  101 1    
   198  100  102 1    
   199  100  221 1    
   200  101  222 1    
   201  101  223 1    
   202  101  224 1    
   203  102  103 2    
   204  102  104 am   BACKBONE|DICT|INTERRES
   205  104  105 1    
   206  104  225 1    
   207  105  106 1    
   208  105  107 1    
   209  105  226 1    
   210  106  227 1    
   211  106  228 1    
   212  106  229 1    
   213  107  108 2    
   214  107  109 am   BACKBONE|DICT|INTERRES
   215  109  110 1    
   216  109  230 1    
   217  110  111 1    
   218  110  112 1    
   219  110  231 1    
   220  111  232 1    
   221  111  233 1    
   222  111  234 1    
   223  112  113 2    
   224  112  114 am   BACKBONE|DICT|INTERRES
   225  114  115 1    
   226  114  235 1    
   227  115  116 1    
   228  115  117 1    
   229  115  236 1    
   230  116  237 1    
   231  116  238 1    
   232  116  239 1    
   233  117  118 2    
   234  117  119 am   BACKBONE|DICT|INTERRES
   235  119  120 1    
   236  119  240 1    
   237  120  121 1    
   238  120  124 1    
   239  120  241 1    
   240  121  122 am   BACKBONE|DICT|INTERRES
   241  121  123 2    
   242  122  242 1    
   243  122  243 1    
   244  124  125 1    
   245  124  244 1    
   246  124  245 1    
   247  125  126 1    
   248  126  246 1    
   249  126  247 1    
@<TRIPOS>SUBSTRUCTURE
     1 UNK         1 GROUP             0       ****    0 ROOT    
