@<TRIPOS>MOLECULE
3R540
247   249    1
SMALL
USER_CHARGES


@<TRIPOS>ATOM
      1 CA         -0.1750  -10.5949  -46.4949 C.3       0 UNK        -0.1800 
      2 C          -1.1947  -10.3464  -47.6056 C.2       0 UNK         0.5000 
      3 O          -1.7526   -9.2537  -47.6787 O.2       0 UNK        -0.5000 
      4 N          -1.4655  -11.3114  -48.4971 N.am      1 UNK        -0.5000 
      5 CA         -0.9298  -12.6793  -48.5069 C.3       1 UNK         0.1400 
      6 C6         -1.0696  -13.3309  -49.9082 C.3       23 UNK        -0.0398 
      7 S7          0.3487  -14.3938  -50.3269 S.3       23 UNK        -0.2404 
      8 C8         -0.3891  -16.0493  -50.1960 C.3       23 UNK        -0.0205 
      9 C9          0.6584  -17.1273  -50.4218 C.ar      23 UNK        -0.0193 
     10 C10         1.0946  -17.4180  -51.7186 C.ar      23 UNK        -0.1150 
     11 C11         2.0799  -18.3851  -51.9353 C.ar      23 UNK        -0.0193 
     12 C12         2.6253  -19.0653  -50.8427 C.ar      23 UNK        -0.1150 
     13 C13         2.1935  -18.7892  -49.5424 C.ar      23 UNK        -0.0193 
     14 C14         1.2053  -17.8214  -49.3378 C.ar      23 UNK        -0.1150 
     15 C15         2.8281  -19.5132  -48.3644 C.3       23 UNK        -0.0205 
     16 S16         2.0753  -21.1411  -48.0648 S.3       23 UNK        -0.2404 
     17 C17         0.5481  -20.6808  -47.1829 C.3       23 UNK        -0.0398 
     18 CA         -0.3200  -21.9216  -46.8789 C.3       11 UNK         0.1400 
     19 N           0.3387  -22.8649  -45.9771 N.am      11 UNK        -0.5000 
     20 C          -0.0159  -24.1493  -45.8346 C.2       10 UNK         0.5000 
     21 O          -0.9160  -24.6881  -46.4776 O.2       10 UNK        -0.5000 
     22 CA          0.7324  -24.9432  -44.7478 C.3       10 UNK         0.1400 
     23 CB          2.0477  -25.5126  -45.2990 C.3       10 UNK        -0.1800 
     24 N           1.0155  -24.1245  -43.5673 N.am      10 UNK        -0.5000 
     25 C           0.0810  -23.5776  -42.7807 C.2       9 UNK         0.5000 
     26 O          -1.1268  -23.7673  -42.9267 O.2       9 UNK        -0.5000 
     27 CA          0.5620  -22.5963  -41.7027 C.3       9 UNK         0.1400 
     28 CB          1.0626  -23.3278  -40.4432 C.3       9 UNK        -0.1800 
     29 N           1.5294  -21.6106  -42.2005 N.am      9 UNK        -0.5000 
     30 C           2.8302  -21.7589  -42.4989 C.2       8 UNK         0.5000 
     31 O           3.4063  -22.8473  -42.4956 O.2       8 UNK        -0.5000 
     32 CA          3.6248  -20.4876  -42.8877 C.3       8 UNK         0.1400 
     33 CB          3.9750  -20.5202  -44.3840 C.3       8 UNK        -0.1800 
     34 N           2.9246  -19.2309  -42.6008 N.am      8 UNK        -0.5000 
     35 C           2.5495  -18.8027  -41.3850 C.2       7 UNK         0.5000 
     36 O           2.9456  -19.3185  -40.3392 O.2       7 UNK        -0.5000 
     37 CA          1.5138  -17.6558  -41.3073 C.3       7 UNK         0.1400 
     38 CB          2.1617  -16.3875  -40.7308 C.3       7 UNK        -0.1800 
     39 N           0.8421  -17.3130  -42.5671 N.am      7 UNK        -0.5000 
     40 C           0.1709  -18.1366  -43.3863 C.2       6 UNK         0.5000 
     41 O          -0.0147  -19.3320  -43.1557 O.2       6 UNK        -0.5000 
     42 CA         -0.2824  -17.5532  -44.7405 C.3       6 UNK         0.1400 
     43 CB         -1.7301  -17.0545  -44.6713 C.3       6 UNK        -0.1800 
     44 N           0.5842  -16.4871  -45.2576 N.am      6 UNK        -0.5000 
     45 C           1.9051  -16.5971  -45.4740 C.2       5 UNK         0.5000 
     46 O           2.5437  -17.6301  -45.2738 O.2       5 UNK        -0.5000 
     47 CA          2.6404  -15.3311  -45.9419 C.3       5 UNK         0.1400 
     48 CB          2.4327  -15.0863  -47.4408 C.3       5 UNK        -0.1800 
     49 N           2.2075  -14.1584  -45.1795 N.am      5 UNK        -0.5000 
     50 C           2.7420  -13.8139  -43.9997 C.2       4 UNK         0.5000 
     51 O           3.6782  -14.4156  -43.4730 O.2       4 UNK        -0.5000 
     52 CA          2.1381  -12.5955  -43.2753 C.3       4 UNK         0.1400 
     53 CB          2.8066  -11.3005  -43.7619 C.3       4 UNK        -0.1800 
     54 N           0.6845  -12.4518  -43.3928 N.am      4 UNK        -0.5000 
     55 C          -0.2281  -13.3591  -43.0194 C.2       3 UNK         0.5000 
     56 O           0.0470  -14.5013  -42.6560 O.2       3 UNK        -0.5000 
     57 CA         -1.6993  -12.9310  -43.0949 C.3       3 UNK         0.1400 
     58 CB         -1.9218  -11.4172  -42.8826 C.3       3 UNK        -0.1800 
     59 N          -2.2046  -13.3533  -44.3913 N.am      3 UNK        -0.5000 
     60 C          -3.4829  -13.4966  -44.7466 C.2       2 UNK         0.5000 
     61 O          -4.4292  -13.2505  -43.9972 O.2       2 UNK        -0.5000 
     62 CA         -3.7337  -13.9984  -46.1878 C.3       2 UNK         0.1400 
     63 CB         -5.2059  -13.8636  -46.6159 C.3       2 UNK        -0.1800 
     64 N          -2.8925  -13.3381  -47.1920 N.am      2 UNK        -0.5000 
     65 C          -1.5851  -13.5436  -47.4084 C.2       1 UNK         0.5000 
     66 O          -0.8950  -14.3065  -46.7279 O.2       1 UNK        -0.5000 
     67 C          -1.7161  -21.5318  -46.3559 C.2       11 UNK         0.5000 
     68 O          -2.6458  -21.4702  -47.1581 O.2       11 UNK        -0.5000 
     69 N          -1.8741  -21.3269  -45.0371 N.am      12 UNK        -0.5000 
     70 CA         -3.1738  -21.0690  -44.4003 C.3       12 UNK         0.1400 
     71 CB         -2.9997  -20.7137  -42.9162 C.3       12 UNK        -0.1800 
     72 C          -4.1559  -22.2434  -44.5549 C.2       12 UNK         0.5000 
     73 O          -5.3204  -22.0176  -44.8842 O.2       12 UNK        -0.5000 
     74 N          -3.6541  -23.4752  -44.3853 N.am      13 UNK        -0.5000 
     75 CA         -4.3941  -24.7208  -44.6141 C.3       13 UNK         0.1400 
     76 CB         -3.5324  -25.9083  -44.1596 C.3       13 UNK        -0.1800 
     77 C          -4.8476  -24.9056  -46.0781 C.2       13 UNK         0.5000 
     78 O          -5.8690  -25.5474  -46.3229 O.2       13 UNK        -0.5000 
     79 N          -4.1035  -24.3040  -47.0141 N.am      14 UNK        -0.5000 
     80 CA         -4.4032  -24.2345  -48.4430 C.3       14 UNK         0.1400 
     81 CB         -3.0795  -24.3522  -49.2178 C.3       14 UNK        -0.1800 
     82 C          -5.1905  -22.9605  -48.8267 C.2       14 UNK         0.5000 
     83 O          -5.2352  -22.6208  -50.0095 O.2       14 UNK        -0.5000 
     84 N          -5.7937  -22.2793  -47.8384 N.am      15 UNK        -0.5000 
     85 CA         -6.6311  -21.0797  -47.9580 C.3       15 UNK         0.1400 
     86 CB         -7.9116  -21.3832  -48.7652 C.3       15 UNK        -0.1800 
     87 C          -5.8490  -19.8646  -48.4942 C.2       15 UNK         0.5000 
     88 O          -6.2608  -19.2420  -49.4723 O.2       15 UNK        -0.5000 
     89 N          -4.7051  -19.5791  -47.8556 N.am      16 UNK        -0.5000 
     90 CA         -3.6874  -18.5984  -48.2601 C.3       16 UNK         0.1400 
     91 CB         -4.2334  -17.1566  -48.2129 C.3       16 UNK        -0.1800 
     92 C          -3.0599  -18.9782  -49.6168 C.2       16 UNK         0.5000 
     93 O          -2.8881  -18.1299  -50.4907 O.2       16 UNK        -0.5000 
     94 N          -2.7797  -20.2811  -49.7584 N.am      17 UNK        -0.5000 
     95 CA         -2.2448  -20.9845  -50.9268 C.3       17 UNK         0.1400 
     96 CB         -0.8182  -20.5058  -51.2425 C.3       17 UNK        -0.1800 
     97 C          -3.1547  -20.9758  -52.1743 C.2       17 UNK         0.5000 
     98 O          -2.7312  -21.4670  -53.2205 O.2       17 UNK        -0.5000 
     99 N          -4.3953  -20.4791  -52.0546 N.am      18 UNK        -0.5000 
    100 CA        -5.3793  -20.3974  -53.1357 C.3       18 UNK         0.1400 
    101 CB        -6.6106  -19.6177  -52.6561 C.3       18 UNK        -0.1800 
    102 C         -5.7992  -21.7685  -53.6939 C.2       18 UNK         0.5000 
    103 O         -6.0933  -21.8639  -54.8855 O.2       18 UNK        -0.5000 
    104 N         -5.7626  -22.8158  -52.8565 N.am      19 UNK        -0.5000 
    105 CA        -6.0062  -24.2058  -53.2554 C.3       19 UNK         0.1400 
    106 CB        -6.1153  -25.0820  -51.9987 C.3       19 UNK        -0.1800 
    107 C         -4.9352  -24.7674  -54.2156 C.2       19 UNK         0.5000 
    108 O         -5.2229  -25.7097  -54.9541 O.2       19 UNK        -0.5000 
    109 N         -3.7359  -24.1700  -54.2044 N.am      20 UNK        -0.5000 
    110 CA        -2.6250  -24.4685  -55.1092 C.3       20 UNK         0.1400 
    111 CB        -1.3470  -24.6164  -54.2649 C.3       20 UNK        -0.1800 
    112 C         -2.4480  -23.3702  -56.1794 C.2       20 UNK         0.5000 
    113 O         -1.4743  -23.4186  -56.9334 O.2       20 UNK        -0.5000 
    114 N         -3.3608  -22.3857  -56.2093 N.am      21 UNK        -0.5000 
    115 CA        -3.3558  -21.1309  -56.9707 C.3       21 UNK         0.1400 
    116 CB        -3.3510  -21.3780  -58.4919 C.3       21 UNK        -0.1800 
    117 C         -2.2338  -20.1662  -56.5385 C.2       21 UNK         0.5000 
    118 O         -2.5252  -19.0465  -56.1181 O.2       21 UNK        -0.5000 
    119 N         -0.9818  -20.6281  -56.6347 N.am      22 UNK        -0.5000 
    120 CA         0.2520  -19.9445  -56.2139 C.3       22 UNK         0.1400 
    121 C          0.6141  -18.6577  -57.0198 C.2       22 UNK         0.5000 
    122 N          0.0518  -18.4432  -58.2032 N.am      22 UNK        -0.7600 
    123 O          1.4364  -17.8537  -56.5902 O.2       22 UNK        -0.5000 
    124 C124        0.3214  -19.7589  -54.6681 C.3       23 UNK        -0.0398 
    125 S125        1.9449  -20.2474  -53.9894 S.3       23 UNK        -0.2404 
    126 C126        2.5884  -18.6740  -53.3398 C.3       23 UNK        -0.0205 
    127 H127       -0.4801  -11.4249  -45.8616 H         1 UNK         0.0600 
    128 H128        0.8084  -10.8113  -46.9120 H         1 UNK         0.0600 
    129 H129       -0.0785   -9.7131  -45.8611 H         1 UNK         0.0600 
    130 H130       -2.1247  -11.1003  -49.2329 H         1 UNK         0.3000 
    131 H131        0.1338  -12.6104  -48.2712 H         1 UNK         0.0600 
    132 H132       -1.0922  -12.5589  -50.6789 H         1 UNK         0.0800 
    133 H133       -2.0087  -13.8765  -50.0226 H         1 UNK         0.0800 
    134 H134       -1.1832  -16.1495  -50.9371 H         1 UNK         0.0800 
    135 H135       -0.8556  -16.1684  -49.2167 H         1 UNK         0.0800 
    136 H136        0.6759  -16.8782  -52.5562 H         1 UNK         0.1150 
    137 H137        3.3921  -19.8097  -51.0056 H         1 UNK         0.1150 
    138 H138        0.8750  -17.5955  -48.3340 H         1 UNK         0.1150 
    139 H139        3.8925  -19.6532  -48.5579 H         1 UNK         0.0800 
    140 H140        2.7671  -18.9075  -47.4621 H         1 UNK         0.0800 
    141 H141        0.8256  -20.1676  -46.2620 H         1 UNK         0.0800 
    142 H142       -0.0027  -19.9670  -47.7980 H         1 UNK         0.0800 
    143 H143       -0.4829  -22.4365  -47.8286 H         1 UNK         0.0600 
    144 H144        1.1025  -22.5112  -45.4219 H         1 UNK         0.3000 
    145 H145        0.0950  -25.7751  -44.4410 H         1 UNK         0.0600 
    146 H146        2.5511  -26.1308  -44.5556 H         1 UNK         0.0600 
    147 H147        1.8657  -26.1389  -46.1733 H         1 UNK         0.0600 
    148 H148        2.7361  -24.7211  -45.5985 H         1 UNK         0.0600 
    149 H149        1.9865  -23.9071  -43.3646 H         1 UNK         0.3000 
    150 H150       -0.3083  -22.0110  -41.4035 H         1 UNK         0.0600 
    151 H151        0.2720  -23.9463  -40.0168 H         1 UNK         0.0600 
    152 H152        1.3724  -22.6199  -39.6743 H         1 UNK         0.0600 
    153 H153        1.9064  -23.9846  -40.6553 H         1 UNK         0.0600 
    154 H154        1.1338  -20.6860  -42.3472 H         1 UNK         0.3000 
    155 H155        4.5527  -20.4952  -42.3129 H         1 UNK         0.0600 
    156 H156        4.5296  -21.4236  -44.6412 H         1 UNK         0.0600 
    157 H157        4.5965  -19.6688  -44.6624 H         1 UNK         0.0600 
    158 H158        3.0799  -20.4952  -45.0064 H         1 UNK         0.0600 
    159 H159        2.5917  -18.7171  -43.4090 H         1 UNK         0.3000 
    160 H160        0.7367  -17.9845  -40.6148 H         1 UNK         0.0600 
    161 H161        2.9259  -15.9916  -41.3997 H         1 UNK         0.0600 
    162 H162        1.4218  -15.6048  -40.5641 H         1 UNK         0.0600 
    163 H163        2.6383  -16.5892  -39.7707 H         1 UNK         0.0600 
    164 H164        0.8707  -16.3313  -42.8240 H         1 UNK         0.3000 
    165 H165       -0.2552  -18.3659  -45.4648 H         1 UNK         0.0600 
    166 H166       -2.0822  -16.7632  -45.6597 H         1 UNK         0.0600 
    167 H167       -2.3992  -17.8350  -44.3086 H         1 UNK         0.0600 
    168 H168       -1.8293  -16.1985  -44.0037 H         1 UNK         0.0600 
    169 H169        0.1293  -15.6152  -45.4991 H         1 UNK         0.3000 
    170 H170        3.7100  -15.4886  -45.7861 H         1 UNK         0.0600 
    171 H171        2.8782  -15.8892  -48.0287 H         1 UNK         0.0600 
    172 H172        1.3768  -15.0405  -47.6980 H         1 UNK         0.0600 
    173 H173        2.8984  -14.1545  -47.7616 H         1 UNK         0.0600 
    174 H174        1.4322  -13.6266  -45.5450 H         1 UNK         0.3000 
    175 H175        2.3621  -12.7127  -42.2129 H         1 UNK         0.0600 
    176 H176        2.5808  -11.1002  -44.8100 H         1 UNK         0.0600 
    177 H177        2.4776  -10.4414  -43.1769 H         1 UNK         0.0600 
    178 H178        3.8916  -11.3597  -43.6655 H         1 UNK         0.0600 
    179 H179        0.3546  -11.5407  -43.6736 H         1 UNK         0.3000 
    180 H180       -2.2325  -13.4749  -42.3124 H         1 UNK         0.0600 
    181 H181       -1.4394  -11.0739  -41.9665 H         1 UNK         0.0600 
    182 H182       -1.5353  -10.8211  -43.7092 H         1 UNK         0.0600 
    183 H183       -2.9832  -11.1889  -42.7866 H         1 UNK         0.0600 
    184 H184       -1.5061  -13.6365  -45.0717 H         1 UNK         0.3000 
    185 H185       -3.4914  -15.0603  -46.1907 H         1 UNK         0.0600 
    186 H186       -5.8638  -14.4142  -45.9423 H         1 UNK         0.0600 
    187 H187       -5.5301  -12.8223  -46.6164 H         1 UNK         0.0600 
    188 H188       -5.3643  -14.2653  -47.6169 H         1 UNK         0.0600 
    189 H189       -3.3544  -12.6338  -47.7488 H         1 UNK         0.3000 
    190 H190       -1.0763  -21.3941  -44.4225 H         1 UNK         0.3000 
    191 H191       -3.6206  -20.2049  -44.8964 H         1 UNK         0.0600 
    192 H192       -3.9676  -20.6124  -42.4233 H         1 UNK         0.0600 
    193 H193       -2.4865  -19.7630  -42.7910 H         1 UNK         0.0600 
    194 H194       -2.4403  -21.4769  -42.3773 H         1 UNK         0.0600 
    195 H195       -2.6957  -23.5704  -44.0601 H         1 UNK         0.3000 
    196 H196       -5.2921  -24.6925  -43.9937 H         1 UNK         0.0600 
    197 H197       -4.0683  -26.8503  -44.2814 H         1 UNK         0.0600 
    198 H198       -3.2634  -25.8202  -43.1068 H         1 UNK         0.0600 
    199 H199       -2.6091  -25.9782  -44.7353 H         1 UNK         0.0600 
    200 H200       -3.2760  -23.8062  -46.7143 H         1 UNK         0.3000 
    201 H201       -5.0297  -25.0821  -48.7269 H         1 UNK         0.0600 
    202 H202       -2.5968  -25.3088  -49.0174 H         1 UNK         0.0600 
    203 H203       -2.3799  -23.5684  -48.9316 H         1 UNK         0.0600 
    204 H204       -3.2312  -24.2889  -50.2956 H         1 UNK         0.0600 
    205 H205       -5.6515  -22.6020  -46.8886 H         1 UNK         0.3000 
    206 H206       -6.9397  -20.8197  -46.9445 H         1 UNK         0.0600 
    207 H207       -8.4561  -22.2248  -48.3373 H         1 UNK         0.0600 
    208 H208       -8.5854  -20.5257  -48.7626 H         1 UNK         0.0600 
    209 H209       -7.6927  -21.6209  -49.8065 H         1 UNK         0.0600 
    210 H210       -4.4113  -20.2221  -47.1315 H         1 UNK         0.3000 
    211 H211       -2.8856  -18.6654  -47.5234 H         1 UNK         0.0600 
    212 H212       -4.9817  -16.9767  -48.9849 H         1 UNK         0.0600 
    213 H213       -3.4316  -16.4329  -48.3644 H         1 UNK         0.0600 
    214 H214       -4.6910  -16.9425  -47.2474 H         1 UNK         0.0600 
    215 H215       -2.9657  -20.8697  -48.9517 H         1 UNK         0.3000 
    216 H216       -2.1702  -22.0293  -50.6321 H         1 UNK         0.0600 
    217 H217       -0.1988  -20.4783  -50.3466 H         1 UNK         0.0600 
    218 H218       -0.8203  -19.5088  -51.6820 H         1 UNK         0.0600 
    219 H219       -0.3285  -21.1771  -51.9477 H         1 UNK         0.0600 
    220 H220       -4.6905  -20.1361  -51.1503 H         1 UNK         0.3000 
    221 H221       -4.9182  -19.8378  -53.9523 H         1 UNK         0.0600 
    222 H222       -7.1308  -20.1449  -51.8558 H         1 UNK         0.0600 
    223 H223       -6.3345  -18.6303  -52.2852 H         1 UNK         0.0600 
    224 H224       -7.3225  -19.4731  -53.4697 H         1 UNK         0.0600 
    225 H225       -5.5217  -22.6556  -51.8800 H         1 UNK         0.3000 
    226 H226       -6.9646  -24.2396  -53.7776 H         1 UNK         0.0600 
    227 H227       -6.8872  -24.7120  -51.3236 H         1 UNK         0.0600 
    228 H228       -6.3756  -26.1085  -52.2598 H         1 UNK         0.0600 
    229 H229       -5.1748  -25.1131  -51.4493 H         1 UNK         0.0600 
    230 H230       -3.5916  -23.3756  -53.5911 H         1 UNK         0.3000 
    231 H231       -2.7995  -25.4090  -55.6352 H         1 UNK         0.0600 
    232 H232       -1.0899  -23.6851  -53.7582 H         1 UNK         0.0600 
    233 H233       -1.4638  -25.3897  -53.5055 H         1 UNK         0.0600 
    234 H234       -0.4953  -24.8986  -54.8850 H         1 UNK         0.0600 
    235 H235       -4.1256  -22.4581  -55.5504 H         1 UNK         0.3000 
    236 H236       -4.2996  -20.6400  -56.7282 H         1 UNK         0.0600 
    237 H237       -4.1867  -22.0118  -58.7882 H         1 UNK         0.0600 
    238 H238       -3.4480  -20.4378  -59.0359 H         1 UNK         0.0600 
    239 H239       -2.4324  -21.8558  -58.8326 H         1 UNK         0.0600 
    240 H240       -0.8718  -21.5855  -56.9569 H         1 UNK         0.3000 
    241 H241        1.0304  -20.6524  -56.5000 H         1 UNK         0.0600 
    242 H242        0.2953  -17.6163  -58.7257 H         1 UNK         0.3800 
    243 H243       -0.6173  -19.0961  -58.5782 H         1 UNK         0.3800 
    244 H244       -0.4143  -20.3986  -54.1812 H         1 UNK         0.0800 
    245 H245        0.0588  -18.7432  -54.3680 H         1 UNK         0.0800 
    246 H246        3.6778  -18.7275  -53.3177 H         1 UNK         0.0800 
    247 H247        2.3422  -17.8583  -54.0209 H         1 UNK         0.0800 
@<TRIPOS>BOND
     1    1    2 1    
     2    1  127 1    
     3    1  128 1    
     4    1  129 1    
     5    2    3 2    
     6    2    4 am   BACKBONE|DICT|INTERRES
     7    4    5 1    
     8    4  130 1    
     9    5    6 1    
    10    5   65 1    
    11    5  131 1    
    12    6    7 1    
    13    6  132 1    
    14    6  133 1    
    15    7    8 1    
    16    8    9 1    
    17    8  134 1    
    18    8  135 1    
    19    9   10 ar   
    20    9   14 ar   
    21   10   11 ar   
    22   10  136 1    
    23   11   12 ar   
    24   11  126 1    
    25   12   13 ar   
    26   12  137 1    
    27   13   14 ar   
    28   13   15 1    
    29   14  138 1    
    30   15   16 1    
    31   15  139 1    
    32   15  140 1    
    33   16   17 1    
    34   17   18 1    
    35   17  141 1    
    36   17  142 1    
    37   18   19 1    
    38   18   67 1    
    39   18  143 1    
    40   19   20 am   BACKBONE|DICT|INTERRES
    41   19  144 1    
    42   20   21 2    
    43   20   22 1    
    44   22   23 1    
    45   22   24 1    
    46   22  145 1    
    47   23  146 1    
    48   23  147 1    
    49   23  148 1    
    50   24   25 am   BACKBONE|DICT|INTERRES
    51   24  149 1    
    52   25   26 2    
    53   25   27 1    
    54   27   28 1    
    55   27   29 1    
    56   27  150 1    
    57   28  151 1    
    58   28  152 1    
    59   28  153 1    
    60   29   30 am   BACKBONE|DICT|INTERRES
    61   29  154 1    
    62   30   31 2    
    63   30   32 1    
    64   32   33 1    
    65   32   34 1    
    66   32  155 1    
    67   33  156 1    
    68   33  157 1    
    69   33  158 1    
    70   34   35 am   BACKBONE|DICT|INTERRES
    71   34  159 1    
    72   35   36 2    
    73   35   37 1    
    74   37   38 1    
    75   37   39 1    
    76   37  160 1    
    77   38  161 1    
    78   38  162 1    
    79   38  163 1    
    80   39   40 am   BACKBONE|DICT|INTERRES
    81   39  164 1    
    82   40   41 2    
    83   40   42 1    
    84   42   43 1    
    85   42   44 1    
    86   42  165 1    
    87   43  166 1    
    88   43  167 1    
    89   43  168 1    
    90   44   45 am   BACKBONE|DICT|INTERRES
    91   44  169 1    
    92   45   46 2    
    93   45   47 1    
    94   47   48 1    
    95   47   49 1    
    96   47  170 1    
    97   48  171 1    
    98   48  172 1    
    99   48  173 1    
   100   49   50 am   BACKBONE|DICT|INTERRES
   101   49  174 1    
   102   50   51 2    
   103   50   52 1    
   104   52   53 1    
   105   52   54 1    
   106   52  175 1    
   107   53  176 1    
   108   53  177 1    
   109   53  178 1    
   110   54   55 am   BACKBONE|DICT|INTERRES
   111   54  179 1    
   112   55   56 2    
   113   55   57 1    
   114   57   58 1    
   115   57   59 1    
   116   57  180 1    
   117   58  181 1    
   118   58  182 1    
   119   58  183 1    
   120   59   60 am   BACKBONE|DICT|INTERRES
   121   59  184 1    
   122   60   61 2    
   123   60   62 1    
   124   62   63 1    
   125   62   64 1    
   126   62  185 1    
   127   63  186 1    
   128   63  187 1    
   129   63  188 1    
   130   64   65 am   BACKBONE|DICT|INTERRES
   131   64  189 1    
   132   65   66 2    
   133   67   68 2    
   134   67   69 am   BACKBONE|DICT|INTERRES
   135   69   70 1    
   136   69  190 1    
   137   70   71 1    
   138   70   72 1    
   139   70  191 1    
   140   71  192 1    
   141   71  193 1    
   142   71  194 1    
   143   72   73 2    
   144   72   74 am   BACKBONE|DICT|INTERRES
   145   74   75 1    
   146   74  195 1    
   147   75   76 1    
   148   75   77 1    
   149   75  196 1    
   150   76  197 1    
   151   76  198 1    
   152   76  199 1    
   153   77   78 2    
   154   77   79 am   BACKBONE|DICT|INTERRES
   155   79   80 1    
   156   79  200 1    
   157   80   81 1    
   158   80   82 1    
   159   80  201 1    
   160   81  202 1    
   161   81  203 1    
   162   81  204 1    
   163   82   83 2    
   164   82   84 am   BACKBONE|DICT|INTERRES
   165   84   85 1    
   166   84  205 1    
   167   85   86 1    
   168   85   87 1    
   169   85  206 1    
   170   86  207 1    
   171   86  208 1    
   172   86  209 1    
   173   87   88 2    
   174   87   89 am   BACKBONE|DICT|INTERRES
   175   89   90 1    
   176   89  210 1    
   177   90   91 1    
   178   90   92 1    
   179   90  211 1    
   180   91  212 1    
   181   91  213 1    
   182   91  214 1    
   183   92   93 2    
   184   92   94 am   BACKBONE|DICT|INTERRES
   185   94   95 1    
   186   94  215 1    
   187   95   96 1    
   188   95   97 1    
   189   95  216 1    
   190   96  217 1    
   191   96  218 1    
   192   96  219 1    
   193   97   98 2    
   194   97   99 am   BACKBONE|DICT|INTERRES
   195   99  100 1    
   196   99  220 1    
   197  100  101 1    
   198  100  102 1    
   199  100  221 1    
   200  101  222 1    
   201  101  223 1    
   202  101  224 1    
   203  102  103 2    
   204  102  104 am   BACKBONE|DICT|INTERRES
   205  104  105 1    
   206  104  225 1    
   207  105  106 1    
   208  105  107 1    
   209  105  226 1    
   210  106  227 1    
   211  106  228 1    
   212  106  229 1    
   213  107  108 2    
   214  107  109 am   BACKBONE|DICT|INTERRES
   215  109  110 1    
   216  109  230 1    
   217  110  111 1    
   218  110  112 1    
   219  110  231 1    
   220  111  232 1    
   221  111  233 1    
   222  111  234 1    
   223  112  113 2    
   224  112  114 am   BACKBONE|DICT|INTERRES
   225  114  115 1    
   226  114  235 1    
   227  115  116 1    
   228  115  117 1    
   229  115  236 1    
   230  116  237 1    
   231  116  238 1    
   232  116  239 1    
   233  117  118 2    
   234  117  119 am   BACKBONE|DICT|INTERRES
   235  119  120 1    
   236  119  240 1    
   237  120  121 1    
   238  120  124 1    
   239  120  241 1    
   240  121  122 am   BACKBONE|DICT|INTERRES
   241  121  123 2    
   242  122  242 1    
   243  122  243 1    
   244  124  125 1    
   245  124  244 1    
   246  124  245 1    
   247  125  126 1    
   248  126  246 1    
   249  126  247 1    
@<TRIPOS>SUBSTRUCTURE
     1 UNK         1 GROUP             0       ****    0 ROOT    
