@<TRIPOS>MOLECULE
3R540
247   249    1
SMALL
USER_CHARGES


@<TRIPOS>ATOM
      1 CA          6.5409  -13.0436  -46.2551 C.3       0 UNK        -0.1800 
      2 C           5.0310  -13.1193  -46.0907 C.2       0 UNK         0.5000 
      3 O           4.4544  -12.3166  -45.3570 O.2       0 UNK        -0.5000 
      4 N           4.3836  -14.0631  -46.7870 N.am      1 UNK        -0.5000 
      5 CA          2.9412  -14.3549  -46.7380 C.3       1 UNK         0.1400 
      6 C6          2.5875  -15.6397  -47.5262 C.3       23 UNK        -0.0398 
      7 S7          3.1363  -15.6225  -49.2704 S.3       23 UNK        -0.2404 
      8 C8          1.5546  -15.4662  -50.1670 C.3       23 UNK        -0.0205 
      9 C9          0.6536  -16.6827  -49.9906 C.ar      23 UNK        -0.0193 
     10 C10        -0.6458  -16.5337  -49.4957 C.ar      23 UNK        -0.1150 
     11 C11        -1.4752  -17.6472  -49.3264 C.ar      23 UNK        -0.0193 
     12 C12        -0.9851  -18.9194  -49.6286 C.ar      23 UNK        -0.1150 
     13 C13         0.3035  -19.0811  -50.1452 C.ar      23 UNK        -0.0193 
     14 C14         1.1119  -17.9573  -50.3357 C.ar      23 UNK        -0.1150 
     15 C15         0.8179  -20.4697  -50.5005 C.3       23 UNK        -0.0205 
     16 S16         2.3251  -20.9305  -49.5785 S.3       23 UNK        -0.2404 
     17 C17         1.7913  -20.7505  -47.8413 C.3       23 UNK        -0.0398 
     18 CA          1.3740  -22.0791  -47.1709 C.3       11 UNK         0.1400 
     19 N           1.2572  -21.9293  -45.7204 N.am      11 UNK        -0.5000 
     20 C           1.0410  -22.9265  -44.8524 C.2       10 UNK         0.5000 
     21 O           0.9717  -24.1130  -45.1729 O.2       10 UNK        -0.5000 
     22 CA          0.8142  -22.5211  -43.3847 C.3       10 UNK         0.1400 
     23 CB          2.1497  -22.2299  -42.6845 C.3       10 UNK        -0.1800 
     24 N          -0.0760  -21.3655  -43.2524 N.am      10 UNK        -0.5000 
     25 C          -1.3618  -21.3557  -43.6342 C.2       9 UNK         0.5000 
     26 O          -1.9428  -22.3345  -44.1020 O.2       9 UNK        -0.5000 
     27 CA         -2.1170  -20.0205  -43.5140 C.3       9 UNK         0.1400 
     28 CB         -2.5536  -19.7676  -42.0634 C.3       9 UNK        -0.1800 
     29 N          -1.3372  -18.8828  -44.0008 N.am      9 UNK        -0.5000 
     30 C          -0.9261  -18.7268  -45.2672 C.2       8 UNK         0.5000 
     31 O          -1.1869  -19.5159  -46.1737 O.2       8 UNK        -0.5000 
     32 CA         -0.0249  -17.5142  -45.5586 C.3       8 UNK         0.1400 
     33 CB         -0.8478  -16.2205  -45.6280 C.3       8 UNK        -0.1800 
     34 N           1.0387  -17.3572  -44.5668 N.am      8 UNK        -0.5000 
     35 C           1.9928  -18.2664  -44.3213 C.2       7 UNK         0.5000 
     36 O           2.1206  -19.3149  -44.9501 O.2       7 UNK        -0.5000 
     37 CA          2.9289  -17.9792  -43.1380 C.3       7 UNK         0.1400 
     38 CB          4.0635  -17.0332  -43.5589 C.3       7 UNK        -0.1800 
     39 N           2.1983  -17.4192  -42.0003 N.am      7 UNK        -0.5000 
     40 C           1.3255  -18.1136  -41.2546 C.2       6 UNK         0.5000 
     41 O           1.0794  -19.3078  -41.4250 O.2       6 UNK        -0.5000 
     42 CA          0.5689  -17.3313  -40.1651 C.3       6 UNK         0.1400 
     43 CB          1.4247  -17.2030  -38.8962 C.3       6 UNK        -0.1800 
     44 N           0.1600  -15.9990  -40.6128 N.am      6 UNK        -0.5000 
     45 C          -0.7421  -15.7683  -41.5776 C.2       5 UNK         0.5000 
     46 O          -1.3647  -16.6595  -42.1527 O.2       5 UNK        -0.5000 
     47 CA         -0.9490  -14.3018  -42.0052 C.3       5 UNK         0.1400 
     48 CB         -2.0691  -13.6528  -41.1793 C.3       5 UNK        -0.1800 
     49 N           0.2641  -13.4854  -41.9027 N.am      5 UNK        -0.5000 
     50 C           1.3987  -13.7170  -42.5746 C.2       4 UNK         0.5000 
     51 O           1.5416  -14.6461  -43.3724 O.2       4 UNK        -0.5000 
     52 CA          2.5695  -12.7655  -42.2828 C.3       4 UNK         0.1400 
     53 CB          3.9099  -13.5163  -42.2168 C.3       4 UNK        -0.1800 
     54 N           2.6546  -11.7240  -43.3005 N.am      4 UNK        -0.5000 
     55 C           1.9117  -10.6098  -43.3177 C.2       3 UNK         0.5000 
     56 O           1.0499  -10.3559  -42.4748 O.2       3 UNK        -0.5000 
     57 CA          2.1772   -9.6048  -44.4505 C.3       3 UNK         0.1400 
     58 CB          3.4345   -8.7732  -44.1496 C.3       3 UNK        -0.1800 
     59 N           2.3452  -10.2770  -45.7385 N.am      3 UNK        -0.5000 
     60 C           1.5947  -10.0526  -46.8269 C.2       2 UNK         0.5000 
     61 O           0.6837   -9.2247  -46.8717 O.2       2 UNK        -0.5000 
     62 CA          1.9059  -10.8873  -48.0887 C.3       2 UNK         0.1400 
     63 CB          2.7760  -10.0817  -49.0654 C.3       2 UNK        -0.1800 
     64 N           2.5766  -12.1537  -47.7959 N.am      2 UNK        -0.5000 
     65 C           2.0202  -13.1776  -47.1351 C.2       1 UNK         0.5000 
     66 O           0.8324  -13.2042  -46.8150 O.2       1 UNK        -0.5000 
     67 C           0.0816  -22.6548  -47.7824 C.2       11 UNK         0.5000 
     68 O           0.1540  -23.6278  -48.5322 O.2       11 UNK        -0.5000 
     69 N          -1.0751  -22.0805  -47.4202 N.am      12 UNK        -0.5000 
     70 CA         -2.3938  -22.5365  -47.8579 C.3       12 UNK         0.1400 
     71 CB         -3.4768  -21.5752  -47.3505 C.3       12 UNK        -0.1800 
     72 C          -2.7009  -23.9776  -47.4211 C.2       12 UNK         0.5000 
     73 O          -3.2025  -24.7538  -48.2323 O.2       12 UNK        -0.5000 
     74 N          -2.3590  -24.3245  -46.1726 N.am      13 UNK        -0.5000 
     75 CA         -2.4897  -25.6747  -45.6246 C.3       13 UNK         0.1400 
     76 CB         -2.1846  -25.6546  -44.1193 C.3       13 UNK        -0.1800 
     77 C          -1.6031  -26.7032  -46.3512 C.2       13 UNK         0.5000 
     78 O          -2.0725  -27.8035  -46.6426 O.2       13 UNK        -0.5000 
     79 N          -0.3552  -26.3202  -46.6567 N.am      14 UNK        -0.5000 
     80 CA          0.6018  -27.1352  -47.4070 C.3       14 UNK         0.1400 
     81 CB          1.9996  -26.5049  -47.3095 C.3       14 UNK        -0.1800 
     82 C           0.1926  -27.3349  -48.8787 C.2       14 UNK         0.5000 
     83 O           0.3140  -28.4451  -49.3980 O.2       14 UNK        -0.5000 
     84 N          -0.2956  -26.2638  -49.5181 N.am      15 UNK        -0.5000 
     85 CA         -0.7696  -26.2604  -50.9036 C.3       15 UNK         0.1400 
     86 CB         -0.8626  -24.8047  -51.3912 C.3       15 UNK        -0.1800 
     87 C          -2.1269  -26.9647  -51.0952 C.2       15 UNK         0.5000 
     88 O          -2.4296  -27.3817  -52.2134 O.2       15 UNK        -0.5000 
     89 N          -2.9174  -27.0553  -50.0147 N.am      16 UNK        -0.5000 
     90 CA         -4.3367  -27.4269  -49.9741 C.3       16 UNK         0.1400 
     91 CB         -4.5648  -28.8761  -50.4530 C.3       16 UNK        -0.1800 
     92 C          -5.2122  -26.3830  -50.7033 C.2       16 UNK         0.5000 
     93 O          -6.1524  -26.7416  -51.4157 O.2       16 UNK        -0.5000 
     94 N          -4.8638  -25.1046  -50.4922 N.am      17 UNK        -0.5000 
     95 CA         -5.4137  -23.8876  -51.0941 C.3       17 UNK         0.1400 
     96 CB         -6.8753  -23.6808  -50.6412 C.3       17 UNK        -0.1800 
     97 C          -5.2468  -23.8224  -52.6305 C.2       17 UNK         0.5000 
     98 O          -4.5433  -24.6404  -53.2273 O.2       17 UNK        -0.5000 
     99 N          -5.8892  -22.8239  -53.2438 N.am      18 UNK        -0.5000 
    100 CA        -5.9503  -22.5931  -54.6812 C.3       18 UNK         0.1400 
    101 CB        -4.6186  -22.0281  -55.2109 C.3       18 UNK        -0.1800 
    102 C         -7.0912  -21.6006  -54.9161 C.2       18 UNK         0.5000 
    103 O         -7.0921  -20.5385  -54.2880 O.2       18 UNK        -0.5000 
    104 N         -8.0370  -21.9526  -55.7926 N.am      19 UNK        -0.5000 
    105 CA        -9.1697  -21.1112  -56.1770 C.3       19 UNK         0.1400 
    106 CB       -10.2333  -21.9928  -56.8537 C.3       19 UNK        -0.1800 
    107 C         -8.6954  -19.9906  -57.1296 C.2       19 UNK         0.5000 
    108 O         -8.3050  -20.3124  -58.2522 O.2       19 UNK        -0.5000 
    109 N         -8.6908  -18.7057  -56.7517 N.am      20 UNK        -0.5000 
    110 CA        -8.9764  -18.1060  -55.4474 C.3       20 UNK         0.1400 
    111 CB       -10.3342  -17.3843  -55.5069 C.3       20 UNK        -0.1800 
    112 C         -7.8010  -17.1742  -55.1137 C.2       20 UNK         0.5000 
    113 O         -7.9556  -15.9523  -55.0752 O.2       20 UNK        -0.5000 
    114 N         -6.6262  -17.7895  -54.9459 N.am      21 UNK        -0.5000 
    115 CA        -5.3359  -17.1297  -54.7430 C.3       21 UNK         0.1400 
    116 CB        -4.5751  -17.1185  -56.0813 C.3       21 UNK        -0.1800 
    117 C         -4.4987  -17.7888  -53.6291 C.2       21 UNK         0.5000 
    118 O         -3.3599  -17.3685  -53.4252 O.2       21 UNK        -0.5000 
    119 N         -5.0555  -18.8082  -52.9559 N.am      22 UNK        -0.5000 
    120 CA        -4.5194  -19.6198  -51.8402 C.3       22 UNK         0.1400 
    121 C         -3.1295  -20.3065  -52.0051 C.2       22 UNK         0.5000 
    122 N         -2.2746  -19.8915  -52.9258 N.am      22 UNK        -0.7600 
    123 O         -2.8491  -21.2770  -51.3083 O.2       22 UNK        -0.5000 
    124 C124       -4.7243  -18.9898  -50.4303 C.3       23 UNK        -0.0398 
    125 S125       -4.0897  -17.2919  -50.1819 S.3       23 UNK        -0.2404 
    126 C126       -2.8975  -17.4712  -48.8164 C.3       23 UNK        -0.0205 
    127 H127        7.0286  -13.1915  -45.2917 H         1 UNK         0.0600 
    128 H128        6.9125  -13.8012  -46.9455 H         1 UNK         0.0600 
    129 H129        6.8273  -12.0637  -46.6367 H         1 UNK         0.0600 
    130 H130        4.9138  -14.6642  -47.4025 H         1 UNK         0.3000 
    131 H131        2.7131  -14.5549  -45.6905 H         1 UNK         0.0600 
    132 H132        1.5162  -15.8328  -47.4790 H         1 UNK         0.0800 
    133 H133        3.0552  -16.4987  -47.0432 H         1 UNK         0.0800 
    134 H134        1.0502  -14.5549  -49.8416 H         1 UNK         0.0800 
    135 H135        1.7646  -15.3385  -51.2296 H         1 UNK         0.0800 
    136 H136       -1.0170  -15.5492  -49.2476 H         1 UNK         0.1150 
    137 H137       -1.6156  -19.7834  -49.4760 H         1 UNK         0.1150 
    138 H138        2.1104  -18.0785  -50.7320 H         1 UNK         0.1150 
    139 H139        0.0466  -21.2233  -50.3339 H         1 UNK         0.0800 
    140 H140        1.0396  -20.4975  -51.5679 H         1 UNK         0.0800 
    141 H141        1.0052  -20.0013  -47.7481 H         1 UNK         0.0800 
    142 H142        2.6481  -20.3359  -47.3097 H         1 UNK         0.0800 
    143 H143        2.1691  -22.8070  -47.3461 H         1 UNK         0.0600 
    144 H144        1.3453  -20.9818  -45.3615 H         1 UNK         0.3000 
    145 H145        0.3421  -23.3648  -42.8773 H         1 UNK         0.0600 
    146 H146        2.0010  -22.0207  -41.6251 H         1 UNK         0.0600 
    147 H147        2.8229  -23.0850  -42.7563 H         1 UNK         0.0600 
    148 H148        2.6582  -21.3725  -43.1258 H         1 UNK         0.0600 
    149 H149        0.3205  -20.5294  -42.8350 H         1 UNK         0.3000 
    150 H150       -3.0156  -20.0928  -44.1300 H         1 UNK         0.0600 
    151 H151       -3.1462  -20.6002  -41.6825 H         1 UNK         0.0600 
    152 H152       -3.1678  -18.8701  -41.9887 H         1 UNK         0.0600 
    153 H153       -1.6973  -19.6418  -41.4003 H         1 UNK         0.0600 
    154 H154       -1.1246  -18.1561  -43.3228 H         1 UNK         0.3000 
    155 H155        0.4459  -17.6794  -46.5295 H         1 UNK         0.0600 
    156 H156       -1.4502  -16.0711  -44.7331 H         1 UNK         0.0600 
    157 H157       -1.5286  -16.2391  -46.4761 H         1 UNK         0.0600 
    158 H158       -0.2078  -15.3477  -45.7439 H         1 UNK         0.0600 
    159 H159        1.0343  -16.5028  -44.0190 H         1 UNK         0.3000 
    160 H160        3.3760  -18.9243  -42.8226 H         1 UNK         0.0600 
    161 H161        4.7159  -16.7951  -42.7187 H         1 UNK         0.0600 
    162 H162        3.6814  -16.0982  -43.9662 H         1 UNK         0.0600 
    163 H163        4.6815  -17.4920  -44.3316 H         1 UNK         0.0600 
    164 H164        2.2976  -16.4280  -41.8401 H         1 UNK         0.3000 
    165 H165       -0.3314  -17.8963  -39.9143 H         1 UNK         0.0600 
    166 H166        0.8687  -16.7185  -38.0934 H         1 UNK         0.0600 
    167 H167        1.7304  -18.1847  -38.5317 H         1 UNK         0.0600 
    168 H168        2.3305  -16.6226  -39.0757 H         1 UNK         0.0600 
    169 H169        0.6201  -15.2093  -40.1850 H         1 UNK         0.3000 
    170 H170       -1.2560  -14.3048  -43.0527 H         1 UNK         0.0600 
    171 H171       -2.9937  -14.2266  -41.2567 H         1 UNK         0.0600 
    172 H172       -1.8073  -13.5922  -40.1222 H         1 UNK         0.0600 
    173 H173       -2.2843  -12.6436  -41.5311 H         1 UNK         0.0600 
    174 H174        0.2149  -12.6761  -41.2996 H         1 UNK         0.3000 
    175 H175        2.4082  -12.3024  -41.3069 H         1 UNK         0.0600 
    176 H176        4.1786  -13.9517  -43.1787 H         1 UNK         0.0600 
    177 H177        4.7184  -12.8479  -41.9209 H         1 UNK         0.0600 
    178 H178        3.8724  -14.3256  -41.4867 H         1 UNK         0.0600 
    179 H179        3.3362  -11.8845  -44.0393 H         1 UNK         0.3000 
    180 H180        1.3236   -8.9246  -44.4798 H         1 UNK         0.0600 
    181 H181        4.3308   -9.3942  -44.1181 H         1 UNK         0.0600 
    182 H182        3.3487   -8.2678  -43.1869 H         1 UNK         0.0600 
    183 H183        3.5869   -8.0051  -44.9079 H         1 UNK         0.0600 
    184 H184        3.0656  -10.9907  -45.7826 H         1 UNK         0.3000 
    185 H185        0.9561  -11.1111  -48.5788 H         1 UNK         0.0600 
    186 H186        2.2941   -9.1403  -49.3328 H         1 UNK         0.0600 
    187 H187        3.7485   -9.8417  -48.6336 H         1 UNK         0.0600 
    188 H188        2.9449  -10.6329  -49.9907 H         1 UNK         0.0600 
    189 H189        3.5574  -12.2147  -48.0270 H         1 UNK         0.3000 
    190 H190       -1.0567  -21.2578  -46.8214 H         1 UNK         0.3000 
    191 H191       -2.4016  -22.5126  -48.9491 H         1 UNK         0.0600 
    192 H192       -3.5210  -21.5552  -46.2613 H         1 UNK         0.0600 
    193 H193       -4.4617  -21.8670  -47.7173 H         1 UNK         0.0600 
    194 H194       -3.2885  -20.5597  -47.6924 H         1 UNK         0.0600 
    195 H195       -1.9962  -23.6108  -45.5460 H         1 UNK         0.3000 
    196 H196       -3.5287  -25.9846  -45.7541 H         1 UNK         0.0600 
    197 H197       -1.1688  -25.3137  -43.9181 H         1 UNK         0.0600 
    198 H198       -2.2902  -26.6496  -43.6854 H         1 UNK         0.0600 
    199 H199       -2.8694  -24.9934  -43.5881 H         1 UNK         0.0600 
    200 H200       -0.0309  -25.4101  -46.3438 H         1 UNK         0.3000 
    201 H201        0.6435  -28.1205  -46.9382 H         1 UNK         0.0600 
    202 H202        2.0197  -25.4997  -47.7315 H         1 UNK         0.0600 
    203 H203        2.7367  -27.1026  -47.8471 H         1 UNK         0.0600 
    204 H204        2.3288  -26.4371  -46.2725 H         1 UNK         0.0600 
    205 H205       -0.2951  -25.3657  -49.0385 H         1 UNK         0.3000 
    206 H206       -0.0351  -26.7820  -51.5206 H         1 UNK         0.0600 
    207 H207        0.1046  -24.3049  -51.3336 H         1 UNK         0.0600 
    208 H208       -1.1927  -24.7578  -52.4298 H         1 UNK         0.0600 
    209 H209       -1.5726  -24.2266  -50.7976 H         1 UNK         0.0600 
    210 H210       -2.5666  -26.6393  -49.1607 H         1 UNK         0.3000 
    211 H211       -4.6256  -27.3828  -48.9230 H         1 UNK         0.0600 
    212 H212       -4.3857  -28.9875  -51.5224 H         1 UNK         0.0600 
    213 H213       -5.5921  -29.1887  -50.2630 H         1 UNK         0.0600 
    214 H214       -3.9110  -29.5720  -49.9274 H         1 UNK         0.0600 
    215 H215       -4.1006  -24.9498  -49.8378 H         1 UNK         0.3000 
    216 H216       -4.8202  -23.0685  -50.6864 H         1 UNK         0.0600 
    217 H217       -6.9700  -23.7910  -49.5607 H         1 UNK         0.0600 
    218 H218       -7.2355  -22.6821  -50.8889 H         1 UNK         0.0600 
    219 H219       -7.5488  -24.3996  -51.1093 H         1 UNK         0.0600 
    220 H220       -6.4664  -22.1947  -52.7025 H         1 UNK         0.3000 
    221 H221       -6.1737  -23.5356  -55.1855 H         1 UNK         0.0600 
    222 H222       -4.3592  -21.0852  -54.7293 H         1 UNK         0.0600 
    223 H223       -3.7944  -22.7219  -55.0470 H         1 UNK         0.0600 
    224 H224       -4.6757  -21.8418  -56.2839 H         1 UNK         0.0600 
    225 H225       -7.9471  -22.8279  -56.2880 H         1 UNK         0.3000 
    226 H226       -9.6366  -20.7107  -55.2797 H         1 UNK         0.0600 
    227 H227      -10.5965  -22.7634  -56.1733 H         1 UNK         0.0600 
    228 H228      -11.0949  -21.3971  -57.1579 H         1 UNK         0.0600 
    229 H229       -9.8467  -22.4898  -57.7445 H         1 UNK         0.0600 
    230 H230       -8.3464  -18.0389  -57.4278 H         1 UNK         0.3000 
    231 H231       -9.0144  -18.8340  -54.6401 H         1 UNK         0.0600 
    232 H232      -11.1427  -18.0864  -55.7109 H         1 UNK         0.0600 
    233 H233      -10.3522  -16.6197  -56.2846 H         1 UNK         0.0600 
    234 H234      -10.5591  -16.8959  -54.5579 H         1 UNK         0.0600 
    235 H235       -6.6176  -18.8047  -54.9738 H         1 UNK         0.3000 
    236 H236       -5.4934  -16.0964  -54.4273 H         1 UNK         0.0600 
    237 H237       -4.3689  -18.1305  -56.4318 H         1 UNK         0.0600 
    238 H238       -5.1471  -16.6059  -56.8549 H         1 UNK         0.0600 
    239 H239       -3.6202  -16.5994  -55.9902 H         1 UNK         0.0600 
    240 H240       -5.9775  -19.0973  -53.2571 H         1 UNK         0.3000 
    241 H241       -5.1922  -20.4769  -51.8523 H         1 UNK         0.0600 
    242 H242       -1.3882  -20.3531  -53.0374 H         1 UNK         0.3800 
    243 H243       -2.4657  -19.0117  -53.3948 H         1 UNK         0.3800 
    244 H244       -5.7952  -18.9435  -50.2291 H         1 UNK         0.0800 
    245 H245       -4.3265  -19.6489  -49.6584 H         1 UNK         0.0800 
    246 H246       -2.9602  -16.5686  -48.2090 H         1 UNK         0.0800 
    247 H247       -3.1758  -18.2919  -48.1558 H         1 UNK         0.0800 
@<TRIPOS>BOND
     1    1    2 1    
     2    1  127 1    
     3    1  128 1    
     4    1  129 1    
     5    2    3 2    
     6    2    4 am   BACKBONE|DICT|INTERRES
     7    4    5 1    
     8    4  130 1    
     9    5    6 1    
    10    5   65 1    
    11    5  131 1    
    12    6    7 1    
    13    6  132 1    
    14    6  133 1    
    15    7    8 1    
    16    8    9 1    
    17    8  134 1    
    18    8  135 1    
    19    9   10 ar   
    20    9   14 ar   
    21   10   11 ar   
    22   10  136 1    
    23   11   12 ar   
    24   11  126 1    
    25   12   13 ar   
    26   12  137 1    
    27   13   14 ar   
    28   13   15 1    
    29   14  138 1    
    30   15   16 1    
    31   15  139 1    
    32   15  140 1    
    33   16   17 1    
    34   17   18 1    
    35   17  141 1    
    36   17  142 1    
    37   18   19 1    
    38   18   67 1    
    39   18  143 1    
    40   19   20 am   BACKBONE|DICT|INTERRES
    41   19  144 1    
    42   20   21 2    
    43   20   22 1    
    44   22   23 1    
    45   22   24 1    
    46   22  145 1    
    47   23  146 1    
    48   23  147 1    
    49   23  148 1    
    50   24   25 am   BACKBONE|DICT|INTERRES
    51   24  149 1    
    52   25   26 2    
    53   25   27 1    
    54   27   28 1    
    55   27   29 1    
    56   27  150 1    
    57   28  151 1    
    58   28  152 1    
    59   28  153 1    
    60   29   30 am   BACKBONE|DICT|INTERRES
    61   29  154 1    
    62   30   31 2    
    63   30   32 1    
    64   32   33 1    
    65   32   34 1    
    66   32  155 1    
    67   33  156 1    
    68   33  157 1    
    69   33  158 1    
    70   34   35 am   BACKBONE|DICT|INTERRES
    71   34  159 1    
    72   35   36 2    
    73   35   37 1    
    74   37   38 1    
    75   37   39 1    
    76   37  160 1    
    77   38  161 1    
    78   38  162 1    
    79   38  163 1    
    80   39   40 am   BACKBONE|DICT|INTERRES
    81   39  164 1    
    82   40   41 2    
    83   40   42 1    
    84   42   43 1    
    85   42   44 1    
    86   42  165 1    
    87   43  166 1    
    88   43  167 1    
    89   43  168 1    
    90   44   45 am   BACKBONE|DICT|INTERRES
    91   44  169 1    
    92   45   46 2    
    93   45   47 1    
    94   47   48 1    
    95   47   49 1    
    96   47  170 1    
    97   48  171 1    
    98   48  172 1    
    99   48  173 1    
   100   49   50 am   BACKBONE|DICT|INTERRES
   101   49  174 1    
   102   50   51 2    
   103   50   52 1    
   104   52   53 1    
   105   52   54 1    
   106   52  175 1    
   107   53  176 1    
   108   53  177 1    
   109   53  178 1    
   110   54   55 am   BACKBONE|DICT|INTERRES
   111   54  179 1    
   112   55   56 2    
   113   55   57 1    
   114   57   58 1    
   115   57   59 1    
   116   57  180 1    
   117   58  181 1    
   118   58  182 1    
   119   58  183 1    
   120   59   60 am   BACKBONE|DICT|INTERRES
   121   59  184 1    
   122   60   61 2    
   123   60   62 1    
   124   62   63 1    
   125   62   64 1    
   126   62  185 1    
   127   63  186 1    
   128   63  187 1    
   129   63  188 1    
   130   64   65 am   BACKBONE|DICT|INTERRES
   131   64  189 1    
   132   65   66 2    
   133   67   68 2    
   134   67   69 am   BACKBONE|DICT|INTERRES
   135   69   70 1    
   136   69  190 1    
   137   70   71 1    
   138   70   72 1    
   139   70  191 1    
   140   71  192 1    
   141   71  193 1    
   142   71  194 1    
   143   72   73 2    
   144   72   74 am   BACKBONE|DICT|INTERRES
   145   74   75 1    
   146   74  195 1    
   147   75   76 1    
   148   75   77 1    
   149   75  196 1    
   150   76  197 1    
   151   76  198 1    
   152   76  199 1    
   153   77   78 2    
   154   77   79 am   BACKBONE|DICT|INTERRES
   155   79   80 1    
   156   79  200 1    
   157   80   81 1    
   158   80   82 1    
   159   80  201 1    
   160   81  202 1    
   161   81  203 1    
   162   81  204 1    
   163   82   83 2    
   164   82   84 am   BACKBONE|DICT|INTERRES
   165   84   85 1    
   166   84  205 1    
   167   85   86 1    
   168   85   87 1    
   169   85  206 1    
   170   86  207 1    
   171   86  208 1    
   172   86  209 1    
   173   87   88 2    
   174   87   89 am   BACKBONE|DICT|INTERRES
   175   89   90 1    
   176   89  210 1    
   177   90   91 1    
   178   90   92 1    
   179   90  211 1    
   180   91  212 1    
   181   91  213 1    
   182   91  214 1    
   183   92   93 2    
   184   92   94 am   BACKBONE|DICT|INTERRES
   185   94   95 1    
   186   94  215 1    
   187   95   96 1    
   188   95   97 1    
   189   95  216 1    
   190   96  217 1    
   191   96  218 1    
   192   96  219 1    
   193   97   98 2    
   194   97   99 am   BACKBONE|DICT|INTERRES
   195   99  100 1    
   196   99  220 1    
   197  100  101 1    
   198  100  102 1    
   199  100  221 1    
   200  101  222 1    
   201  101  223 1    
   202  101  224 1    
   203  102  103 2    
   204  102  104 am   BACKBONE|DICT|INTERRES
   205  104  105 1    
   206  104  225 1    
   207  105  106 1    
   208  105  107 1    
   209  105  226 1    
   210  106  227 1    
   211  106  228 1    
   212  106  229 1    
   213  107  108 2    
   214  107  109 am   BACKBONE|DICT|INTERRES
   215  109  110 1    
   216  109  230 1    
   217  110  111 1    
   218  110  112 1    
   219  110  231 1    
   220  111  232 1    
   221  111  233 1    
   222  111  234 1    
   223  112  113 2    
   224  112  114 am   BACKBONE|DICT|INTERRES
   225  114  115 1    
   226  114  235 1    
   227  115  116 1    
   228  115  117 1    
   229  115  236 1    
   230  116  237 1    
   231  116  238 1    
   232  116  239 1    
   233  117  118 2    
   234  117  119 am   BACKBONE|DICT|INTERRES
   235  119  120 1    
   236  119  240 1    
   237  120  121 1    
   238  120  124 1    
   239  120  241 1    
   240  121  122 am   BACKBONE|DICT|INTERRES
   241  121  123 2    
   242  122  242 1    
   243  122  243 1    
   244  124  125 1    
   245  124  244 1    
   246  124  245 1    
   247  125  126 1    
   248  126  246 1    
   249  126  247 1    
@<TRIPOS>SUBSTRUCTURE
     1 UNK         1 GROUP             0       ****    0 ROOT    
