@<TRIPOS>MOLECULE
3R540
247   249    1
SMALL
USER_CHARGES


@<TRIPOS>ATOM
      1 CA          4.3170  -16.1475  -42.7225 C.3       0 UNK        -0.1800 
      2 C           3.8260  -14.7063  -42.7149 C.2       0 UNK         0.5000 
      3 O           4.6066  -13.7908  -42.4553 O.2       0 UNK        -0.5000 
      4 N           2.5353  -14.5041  -43.0049 N.am      1 UNK        -0.5000 
      5 CA          1.8813  -13.2027  -43.1542 C.3       1 UNK         0.1400 
      6 C6          0.3379  -13.3157  -43.0396 C.3       23 UNK        -0.0398 
      7 S7         -0.4238  -14.6417  -44.0426 S.3       23 UNK        -0.2404 
      8 C8         -2.1616  -14.4281  -43.5533 C.3       23 UNK        -0.0205 
      9 C9         -3.0786  -15.3819  -44.3014 C.ar      23 UNK        -0.0193 
     10 C10        -3.8603  -14.9242  -45.3664 C.ar      23 UNK        -0.1150 
     11 C11        -4.7138  -15.7978  -46.0466 C.ar      23 UNK        -0.0193 
     12 C12        -4.7841  -17.1371  -45.6522 C.ar      23 UNK        -0.1150 
     13 C13        -4.0064  -17.6071  -44.5898 C.ar      23 UNK        -0.0193 
     14 C14        -3.1593  -16.7228  -43.9164 C.ar      23 UNK        -0.1150 
     15 C15        -4.0833  -19.0663  -44.1671 C.3       23 UNK        -0.0205 
     16 S16        -3.3760  -20.1520  -45.4404 S.3       23 UNK        -0.2404 
     17 C17        -2.9387  -21.6207  -44.4575 C.3       23 UNK        -0.0398 
     18 CA         -2.4091  -22.7589  -45.3578 C.3       11 UNK         0.1400 
     19 N          -1.1660  -22.4060  -46.0651 N.am      11 UNK        -0.5000 
     20 C          -0.5544  -23.1581  -46.9939 C.2       10 UNK         0.5000 
     21 O          -0.9882  -24.2475  -47.3703 O.2       10 UNK        -0.5000 
     22 CA          0.7520  -22.6261  -47.6027 C.3       10 UNK         0.1400 
     23 CB          0.4644  -21.8612  -48.9025 C.3       10 UNK        -0.1800 
     24 N           1.4747  -21.7621  -46.6717 N.am      10 UNK        -0.5000 
     25 C           2.3109  -22.2031  -45.7217 C.2       9 UNK         0.5000 
     26 O           2.5975  -23.3899  -45.5638 O.2       9 UNK        -0.5000 
     27 CA          2.9147  -21.1479  -44.7741 C.3       9 UNK         0.1400 
     28 CB          4.2577  -20.6372  -45.3173 C.3       9 UNK        -0.1800 
     29 N           2.0197  -20.0119  -44.5500 N.am      9 UNK        -0.5000 
     30 C           0.8946  -20.0775  -43.8222 C.2       8 UNK         0.5000 
     31 O           0.5276  -21.0914  -43.2274 O.2       8 UNK        -0.5000 
     32 CA          0.0078  -18.8163  -43.7718 C.3       8 UNK         0.1400 
     33 CB          0.3693  -17.9721  -42.5398 C.3       8 UNK        -0.1800 
     34 N           0.0641  -17.9732  -44.9704 N.am      8 UNK        -0.5000 
     35 C          -0.1462  -18.3826  -46.2309 C.2       7 UNK         0.5000 
     36 O          -0.3920  -19.5472  -46.5400 O.2       7 UNK        -0.5000 
     37 CA          0.0336  -17.3353  -47.3443 C.3       7 UNK         0.1400 
     38 CB         -1.2798  -16.5747  -47.5726 C.3       7 UNK        -0.1800 
     39 N           1.1219  -16.3803  -47.1041 N.am      7 UNK        -0.5000 
     40 C           2.3947  -16.6954  -46.8151 C.2       6 UNK         0.5000 
     41 O           2.7996  -17.8514  -46.6795 O.2       6 UNK        -0.5000 
     42 CA          3.3591  -15.5148  -46.5968 C.3       6 UNK         0.1400 
     43 CB          4.8480  -15.9185  -46.6223 C.3       6 UNK        -0.1800 
     44 N           3.0913  -14.3749  -47.4776 N.am      6 UNK        -0.5000 
     45 C           3.2432  -14.3184  -48.8090 C.2       5 UNK         0.5000 
     46 O           3.6472  -15.2583  -49.4955 O.2       5 UNK        -0.5000 
     47 CA          2.8942  -12.9677  -49.4723 C.3       5 UNK         0.1400 
     48 CB          2.7219  -13.0680  -51.0027 C.3       5 UNK        -0.1800 
     49 N           1.7402  -12.3005  -48.8582 N.am      5 UNK        -0.5000 
     50 C           0.4785  -12.7569  -48.7962 C.2       4 UNK         0.5000 
     51 O           0.1243  -13.8326  -49.2768 O.2       4 UNK        -0.5000 
     52 CA         -0.5558  -11.8769  -48.0645 C.3       4 UNK         0.1400 
     53 CB         -1.5444  -12.7232  -47.2452 C.3       4 UNK        -0.1800 
     54 N           0.1020  -10.9262  -47.1678 N.am      4 UNK        -0.5000 
     55 C           0.1303   -9.5962  -47.3254 C.2       3 UNK         0.5000 
     56 O          -0.4604   -9.0010  -48.2271 O.2       3 UNK        -0.5000 
     57 CA          0.9777   -8.7865  -46.3200 C.3       3 UNK         0.1400 
     58 CB          0.0811   -8.1955  -45.2213 C.3       3 UNK        -0.1800 
     59 N           2.0526   -9.5566  -45.6875 N.am      3 UNK        -0.5000 
     60 C           3.0942  -10.1078  -46.3265 C.2       2 UNK         0.5000 
     61 O           3.2899   -9.9966  -47.5368 O.2       2 UNK        -0.5000 
     62 CA          4.0359  -10.9929  -45.4858 C.3       2 UNK         0.1400 
     63 CB          5.2176  -10.1680  -44.9557 C.3       2 UNK        -0.1800 
     64 N           3.3853  -11.6790  -44.3623 N.am      2 UNK        -0.5000 
     65 C           2.3382  -12.5099  -44.4565 C.2       1 UNK         0.5000 
     66 O           1.7657  -12.7507  -45.5217 O.2       1 UNK        -0.5000 
     67 C          -2.3073  -24.0841  -44.5728 C.2       11 UNK         0.5000 
     68 O          -3.3088  -24.7903  -44.4535 O.2       11 UNK        -0.5000 
     69 N          -1.0926  -24.4403  -44.1313 N.am      12 UNK        -0.5000 
     70 CA         -0.7528  -25.7360  -43.5360 C.3       12 UNK         0.1400 
     71 CB          0.6913  -25.6712  -43.0162 C.3       12 UNK        -0.1800 
     72 C          -0.9258  -26.9344  -44.4976 C.2       12 UNK         0.5000 
     73 O          -1.0862  -28.0620  -44.0302 O.2       12 UNK        -0.5000 
     74 N          -0.9100  -26.6707  -45.8109 N.am      13 UNK        -0.5000 
     75 CA         -1.1274  -27.6301  -46.8924 C.3       13 UNK         0.1400 
     76 CB          0.0943  -27.5958  -47.8291 C.3       13 UNK        -0.1800 
     77 C          -2.4398  -27.3172  -47.6413 C.2       13 UNK         0.5000 
     78 O          -2.5225  -27.5408  -48.8502 O.2       13 UNK        -0.5000 
     79 N          -3.4372  -26.7764  -46.9225 N.am      14 UNK        -0.5000 
     80 CA         -4.7665  -26.3854  -47.4113 C.3       14 UNK         0.1400 
     81 CB         -5.5806  -27.6263  -47.8346 C.3       14 UNK        -0.1800 
     82 C          -4.6983  -25.3071  -48.5126 C.2       14 UNK         0.5000 
     83 O          -5.3640  -25.4213  -49.5426 O.2       14 UNK        -0.5000 
     84 N          -3.8471  -24.2982  -48.2812 N.am      15 UNK        -0.5000 
     85 CA         -3.5005  -23.2011  -49.1917 C.3       15 UNK         0.1400 
     86 CB         -4.7152  -22.2927  -49.4609 C.3       15 UNK        -0.1800 
     87 C          -2.8183  -23.7260  -50.4687 C.2       15 UNK         0.5000 
     88 O          -3.1517  -23.2929  -51.5711 O.2       15 UNK        -0.5000 
     89 N          -1.9020  -24.6889  -50.2798 N.am      16 UNK        -0.5000 
     90 CA         -1.2228  -25.4867  -51.3072 C.3       16 UNK         0.1400 
     91 CB         -0.2185  -24.6183  -52.0924 C.3       16 UNK        -0.1800 
     92 C          -2.2291  -26.2168  -52.2215 C.2       16 UNK         0.5000 
     93 O          -2.1540  -26.0985  -53.4443 O.2       16 UNK        -0.5000 
     94 N          -3.1970  -26.9066  -51.5996 N.am      17 UNK        -0.5000 
     95 CA         -4.3724  -27.5289  -52.2236 C.3       17 UNK         0.1400 
     96 CB         -3.9595  -28.7734  -53.0359 C.3       17 UNK        -0.1800 
     97 C          -5.2040  -26.5146  -53.0434 C.2       17 UNK         0.5000 
     98 O          -5.5637  -26.7792  -54.1918 O.2       17 UNK        -0.5000 
     99 N          -5.4479  -25.3491  -52.4294 N.am      18 UNK        -0.5000 
    100 CA        -6.1292  -24.1575  -52.9459 C.3       18 UNK         0.1400 
    101 CB        -7.5925  -24.4749  -53.3141 C.3       18 UNK        -0.1800 
    102 C         -5.3979  -23.4040  -54.0803 C.2       18 UNK         0.5000 
    103 O         -5.9391  -22.4129  -54.5731 O.2       18 UNK        -0.5000 
    104 N         -4.1884  -23.8324  -54.4712 N.am      19 UNK        -0.5000 
    105 CA        -3.4006  -23.1992  -55.5335 C.3       19 UNK         0.1400 
    106 CB        -2.3183  -24.1729  -56.0220 C.3       19 UNK        -0.1800 
    107 C         -2.7614  -21.8613  -55.1129 C.2       19 UNK         0.5000 
    108 O         -2.4736  -21.0370  -55.9816 O.2       19 UNK        -0.5000 
    109 N         -2.5504  -21.6672  -53.8055 N.am      20 UNK        -0.5000 
    110 CA        -1.9453  -20.4776  -53.2058 C.3       20 UNK         0.1400 
    111 CB        -0.6787  -20.8986  -52.4397 C.3       20 UNK        -0.1800 
    112 C         -2.9449  -19.7325  -52.2998 C.2       20 UNK         0.5000 
    113 O         -2.5237  -18.9875  -51.4136 O.2       20 UNK        -0.5000 
    114 N         -4.2503  -19.9404  -52.5249 N.am      21 UNK        -0.5000 
    115 CA        -5.3340  -19.2414  -51.8337 C.3       21 UNK         0.1400 
    116 CB        -6.6673  -19.9216  -52.1785 C.3       21 UNK        -0.1800 
    117 C         -5.3695  -17.7428  -52.1909 C.2       21 UNK         0.5000 
    118 O         -5.0945  -17.3778  -53.3373 O.2       21 UNK        -0.5000 
    119 N         -5.7062  -16.9108  -51.1995 N.am      22 UNK        -0.5000 
    120 CA        -5.7837  -15.4461  -51.3137 C.3       22 UNK         0.1400 
    121 C         -6.9069  -14.9707  -52.2780 C.2       22 UNK         0.5000 
    122 N         -6.6731  -13.9100  -53.0389 N.am      22 UNK        -0.7600 
    123 O         -8.0030  -15.5263  -52.3085 O.2       22 UNK        -0.5000 
    124 C124       -5.9488  -14.7706  -49.9279 C.3       23 UNK        -0.0398 
    125 S125       -4.6274  -15.2223  -48.7502 S.3       23 UNK        -0.2404 
    126 C126       -5.5704  -15.2936  -47.1967 C.3       23 UNK        -0.0205 
    127 H127        4.4409  -16.5079  -41.7014 H         1 UNK         0.0600 
    128 H128        5.2807  -16.2135  -43.2277 H         1 UNK         0.0600 
    129 H129        3.6227  -16.8093  -43.2405 H         1 UNK         0.0600 
    130 H130        1.9368  -15.2934  -43.1962 H         1 UNK         0.3000 
    131 H131        2.2070  -12.5717  -42.3242 H         1 UNK         0.0600 
    132 H132       -0.1364  -12.3650  -43.2902 H         1 UNK         0.0800 
    133 H133        0.0782  -13.5067  -41.9975 H         1 UNK         0.0800 
    134 H134       -2.2595  -14.5951  -42.4796 H         1 UNK         0.0800 
    135 H135       -2.4622  -13.3951  -43.7352 H         1 UNK         0.0800 
    136 H136       -3.8044  -13.8886  -45.6701 H         1 UNK         0.1150 
    137 H137       -5.4387  -17.8196  -46.1759 H         1 UNK         0.1150 
    138 H138       -2.5596  -17.0761  -43.0907 H         1 UNK         0.1150 
    139 H139       -3.5570  -19.2159  -43.2232 H         1 UNK         0.0800 
    140 H140       -5.1232  -19.3444  -43.9904 H         1 UNK         0.0800 
    141 H141       -3.8332  -21.9383  -43.9177 H         1 UNK         0.0800 
    142 H142       -2.1989  -21.3475  -43.7040 H         1 UNK         0.0800 
    143 H143       -3.1660  -22.9237  -46.1236 H         1 UNK         0.0600 
    144 H144       -0.8018  -21.4749  -45.8936 H         1 UNK         0.3000 
    145 H145        1.3758  -23.4870  -47.8527 H         1 UNK         0.0600 
    146 H146       -0.2041  -21.0148  -48.7422 H         1 UNK         0.0600 
    147 H147        1.3831  -21.4832  -49.3510 H         1 UNK         0.0600 
    148 H148       -0.0074  -22.5155  -49.6344 H         1 UNK         0.0600 
    149 H149        1.2251  -20.7796  -46.6893 H         1 UNK         0.3000 
    150 H150        3.1008  -21.6319  -43.8130 H         1 UNK         0.0600 
    151 H151        4.9694  -21.4563  -45.4278 H         1 UNK         0.0600 
    152 H152        4.7047  -19.9056  -44.6439 H         1 UNK         0.0600 
    153 H153        4.1448  -20.1681  -46.2952 H         1 UNK         0.0600 
    154 H154        2.2308  -19.1615  -45.0600 H         1 UNK         0.3000 
    155 H155       -1.0243  -19.1511  -43.6642 H         1 UNK         0.0600 
    156 H156        0.3220  -18.5707  -41.6291 H         1 UNK         0.0600 
    157 H157       -0.3185  -17.1383  -42.4080 H         1 UNK         0.0600 
    158 H158        1.3786  -17.5676  -42.6122 H         1 UNK         0.0600 
    159 H159        0.2342  -16.9889  -44.8228 H         1 UNK         0.3000 
    160 H160        0.2753  -17.8780  -48.2602 H         1 UNK         0.0600 
    161 H161       -1.5072  -15.9091  -46.7406 H         1 UNK         0.0600 
    162 H162       -2.1215  -17.2609  -47.6803 H         1 UNK         0.0600 
    163 H163       -1.2388  -15.9745  -48.4806 H         1 UNK         0.0600 
    164 H164        0.8875  -15.4040  -47.2162 H         1 UNK         0.3000 
    165 H165        3.1484  -15.1613  -45.5904 H         1 UNK         0.0600 
    166 H166        5.1374  -16.3488  -47.5812 H         1 UNK         0.0600 
    167 H167        5.4918  -15.0605  -46.4289 H         1 UNK         0.0600 
    168 H168        5.0636  -16.6633  -45.8554 H         1 UNK         0.0600 
    169 H169        2.6807  -13.5718  -47.0103 H         1 UNK         0.3000 
    170 H170        3.7493  -12.3166  -49.2851 H         1 UNK         0.0600 
    171 H171        1.9228  -13.7569  -51.2775 H         1 UNK         0.0600 
    172 H172        2.4917  -12.0956  -51.4379 H         1 UNK         0.0600 
    173 H173        3.6370  -13.4251  -51.4763 H         1 UNK         0.0600 
    174 H174        1.9430  -11.4061  -48.4274 H         1 UNK         0.3000 
    175 H175       -1.1213  -11.3507  -48.8356 H         1 UNK         0.0600 
    176 H176       -1.0238  -13.3431  -46.5174 H         1 UNK         0.0600 
    177 H177       -2.2529  -12.0945  -46.7063 H         1 UNK         0.0600 
    178 H178       -2.1238  -13.3883  -47.8867 H         1 UNK         0.0600 
    179 H179        0.6433  -11.3460  -46.4188 H         1 UNK         0.3000 
    180 H180        1.4370   -7.9623  -46.8696 H         1 UNK         0.0600 
    181 H181       -0.7163   -7.5881  -45.6516 H         1 UNK         0.0600 
    182 H182        0.6503   -7.5524  -44.5498 H         1 UNK         0.0600 
    183 H183       -0.3885   -8.9770  -44.6224 H         1 UNK         0.0600 
    184 H184        1.9727   -9.7088  -44.6930 H         1 UNK         0.3000 
    185 H185        4.4313  -11.7640  -46.1503 H         1 UNK         0.0600 
    186 H186        5.9445  -10.8020  -44.4474 H         1 UNK         0.0600 
    187 H187        5.7409   -9.6649  -45.7700 H         1 UNK         0.0600 
    188 H188        4.8896   -9.4016  -44.2523 H         1 UNK         0.0600 
    189 H189        3.8372  -11.5836  -43.4629 H         1 UNK         0.3000 
    190 H190       -0.3269  -23.7964  -44.2736 H         1 UNK         0.3000 
    191 H191       -1.4186  -25.8996  -42.6862 H         1 UNK         0.0600 
    192 H192        1.4006  -25.4872  -43.8245 H         1 UNK         0.0600 
    193 H193        0.8105  -24.8773  -42.2785 H         1 UNK         0.0600 
    194 H194        0.9771  -26.6072  -42.5345 H         1 UNK         0.0600 
    195 H195       -0.8049  -25.7083  -46.1160 H         1 UNK         0.3000 
    196 H196       -1.2245  -28.6421  -46.4952 H         1 UNK         0.0600 
    197 H197        1.0119  -27.8197  -47.2851 H         1 UNK         0.0600 
    198 H198        0.2144  -26.6182  -48.2976 H         1 UNK         0.0600 
    199 H199        0.0031  -28.3354  -48.6255 H         1 UNK         0.0600 
    200 H200       -3.2642  -26.5886  -45.9430 H         1 UNK         0.3000 
    201 H201       -5.2820  -25.9254  -46.5670 H         1 UNK         0.0600 
    202 H202       -6.6060  -27.3526  -48.0860 H         1 UNK         0.0600 
    203 H203       -5.6295  -28.3586  -47.0289 H         1 UNK         0.0600 
    204 H204       -5.1516  -28.1174  -48.7083 H         1 UNK         0.0600 
    205 H205       -3.2731  -24.3650  -47.4529 H         1 UNK         0.3000 
    206 H206       -2.7587  -22.5836  -48.6873 H         1 UNK         0.0600 
    207 H207       -5.1202  -21.8945  -48.5307 H         1 UNK         0.0600 
    208 H208       -5.5176  -22.8160  -49.9782 H         1 UNK         0.0600 
    209 H209       -4.4258  -21.4432  -50.0766 H         1 UNK         0.0600 
    210 H210       -1.7070  -24.9574  -49.3231 H         1 UNK         0.3000 
    211 H211       -0.6592  -26.2598  -50.7831 H         1 UNK         0.0600 
    212 H212        0.4831  -24.1202  -51.4241 H         1 UNK         0.0600 
    213 H213        0.3672  -25.2285  -52.7806 H         1 UNK         0.0600 
    214 H214       -0.7214  -23.8544  -52.6850 H         1 UNK         0.0600 
    215 H215       -3.1442  -26.9805  -50.5866 H         1 UNK         0.3000 
    216 H216       -5.0135  -27.8630  -51.4066 H         1 UNK         0.0600 
    217 H217       -4.8360  -29.3014  -53.4130 H         1 UNK         0.0600 
    218 H218       -3.3409  -28.5110  -53.8947 H         1 UNK         0.0600 
    219 H219       -3.3978  -29.4757  -52.4201 H         1 UNK         0.0600 
    220 H220       -5.1368  -25.2675  -51.4648 H         1 UNK         0.3000 
    221 H221       -6.1541  -23.4595  -52.1099 H         1 UNK         0.0600 
    222 H222       -7.6603  -25.1193  -54.1909 H         1 UNK         0.0600 
    223 H223       -8.1075  -24.9702  -52.4910 H         1 UNK         0.0600 
    224 H224       -8.1466  -23.5627  -53.5384 H         1 UNK         0.0600 
    225 H225       -3.7709  -24.6289  -54.0050 H         1 UNK         0.3000 
    226 H226       -4.0683  -22.9959  -56.3734 H         1 UNK         0.0600 
    227 H227       -2.7424  -25.1429  -56.2822 H         1 UNK         0.0600 
    228 H228       -1.8205  -23.7847  -56.9114 H         1 UNK         0.0600 
    229 H229       -1.5499  -24.3317  -55.2651 H         1 UNK         0.0600 
    230 H230       -2.8403  -22.3867  -53.1441 H         1 UNK         0.3000 
    231 H231       -1.6469  -19.7688  -53.9803 H         1 UNK         0.0600 
    232 H232       -0.1542  -20.0330  -52.0335 H         1 UNK         0.0600 
    233 H233        0.0204  -21.4231  -53.0910 H         1 UNK         0.0600 
    234 H234       -0.9207  -21.5570  -51.6066 H         1 UNK         0.0600 
    235 H235       -4.5142  -20.5458  -53.2890 H         1 UNK         0.3000 
    236 H236       -5.1670  -19.3341  -50.7588 H         1 UNK         0.0600 
    237 H237       -6.6687  -20.9666  -51.8685 H         1 UNK         0.0600 
    238 H238       -7.4997  -19.4311  -51.6723 H         1 UNK         0.0600 
    239 H239       -6.8690  -19.8895  -53.2501 H         1 UNK         0.0600 
    240 H240       -5.9226  -17.2889  -50.2896 H         1 UNK         0.3000 
    241 H241       -4.8296  -15.1158  -51.7299 H         1 UNK         0.0600 
    242 H242       -7.3989  -13.5819  -53.6574 H         1 UNK         0.3800 
    243 H243       -5.7844  -13.4332  -53.0260 H         1 UNK         0.3800 
    244 H244       -5.9411  -13.6841  -50.0313 H         1 UNK         0.0800 
    245 H245       -6.9199  -15.0279  -49.5013 H         1 UNK         0.0800 
    246 H246       -6.4387  -15.9417  -47.3253 H         1 UNK         0.0800 
    247 H247       -5.9571  -14.3006  -46.9624 H         1 UNK         0.0800 
@<TRIPOS>BOND
     1    1    2 1    
     2    1  127 1    
     3    1  128 1    
     4    1  129 1    
     5    2    3 2    
     6    2    4 am   BACKBONE|DICT|INTERRES
     7    4    5 1    
     8    4  130 1    
     9    5    6 1    
    10    5   65 1    
    11    5  131 1    
    12    6    7 1    
    13    6  132 1    
    14    6  133 1    
    15    7    8 1    
    16    8    9 1    
    17    8  134 1    
    18    8  135 1    
    19    9   10 ar   
    20    9   14 ar   
    21   10   11 ar   
    22   10  136 1    
    23   11   12 ar   
    24   11  126 1    
    25   12   13 ar   
    26   12  137 1    
    27   13   14 ar   
    28   13   15 1    
    29   14  138 1    
    30   15   16 1    
    31   15  139 1    
    32   15  140 1    
    33   16   17 1    
    34   17   18 1    
    35   17  141 1    
    36   17  142 1    
    37   18   19 1    
    38   18   67 1    
    39   18  143 1    
    40   19   20 am   BACKBONE|DICT|INTERRES
    41   19  144 1    
    42   20   21 2    
    43   20   22 1    
    44   22   23 1    
    45   22   24 1    
    46   22  145 1    
    47   23  146 1    
    48   23  147 1    
    49   23  148 1    
    50   24   25 am   BACKBONE|DICT|INTERRES
    51   24  149 1    
    52   25   26 2    
    53   25   27 1    
    54   27   28 1    
    55   27   29 1    
    56   27  150 1    
    57   28  151 1    
    58   28  152 1    
    59   28  153 1    
    60   29   30 am   BACKBONE|DICT|INTERRES
    61   29  154 1    
    62   30   31 2    
    63   30   32 1    
    64   32   33 1    
    65   32   34 1    
    66   32  155 1    
    67   33  156 1    
    68   33  157 1    
    69   33  158 1    
    70   34   35 am   BACKBONE|DICT|INTERRES
    71   34  159 1    
    72   35   36 2    
    73   35   37 1    
    74   37   38 1    
    75   37   39 1    
    76   37  160 1    
    77   38  161 1    
    78   38  162 1    
    79   38  163 1    
    80   39   40 am   BACKBONE|DICT|INTERRES
    81   39  164 1    
    82   40   41 2    
    83   40   42 1    
    84   42   43 1    
    85   42   44 1    
    86   42  165 1    
    87   43  166 1    
    88   43  167 1    
    89   43  168 1    
    90   44   45 am   BACKBONE|DICT|INTERRES
    91   44  169 1    
    92   45   46 2    
    93   45   47 1    
    94   47   48 1    
    95   47   49 1    
    96   47  170 1    
    97   48  171 1    
    98   48  172 1    
    99   48  173 1    
   100   49   50 am   BACKBONE|DICT|INTERRES
   101   49  174 1    
   102   50   51 2    
   103   50   52 1    
   104   52   53 1    
   105   52   54 1    
   106   52  175 1    
   107   53  176 1    
   108   53  177 1    
   109   53  178 1    
   110   54   55 am   BACKBONE|DICT|INTERRES
   111   54  179 1    
   112   55   56 2    
   113   55   57 1    
   114   57   58 1    
   115   57   59 1    
   116   57  180 1    
   117   58  181 1    
   118   58  182 1    
   119   58  183 1    
   120   59   60 am   BACKBONE|DICT|INTERRES
   121   59  184 1    
   122   60   61 2    
   123   60   62 1    
   124   62   63 1    
   125   62   64 1    
   126   62  185 1    
   127   63  186 1    
   128   63  187 1    
   129   63  188 1    
   130   64   65 am   BACKBONE|DICT|INTERRES
   131   64  189 1    
   132   65   66 2    
   133   67   68 2    
   134   67   69 am   BACKBONE|DICT|INTERRES
   135   69   70 1    
   136   69  190 1    
   137   70   71 1    
   138   70   72 1    
   139   70  191 1    
   140   71  192 1    
   141   71  193 1    
   142   71  194 1    
   143   72   73 2    
   144   72   74 am   BACKBONE|DICT|INTERRES
   145   74   75 1    
   146   74  195 1    
   147   75   76 1    
   148   75   77 1    
   149   75  196 1    
   150   76  197 1    
   151   76  198 1    
   152   76  199 1    
   153   77   78 2    
   154   77   79 am   BACKBONE|DICT|INTERRES
   155   79   80 1    
   156   79  200 1    
   157   80   81 1    
   158   80   82 1    
   159   80  201 1    
   160   81  202 1    
   161   81  203 1    
   162   81  204 1    
   163   82   83 2    
   164   82   84 am   BACKBONE|DICT|INTERRES
   165   84   85 1    
   166   84  205 1    
   167   85   86 1    
   168   85   87 1    
   169   85  206 1    
   170   86  207 1    
   171   86  208 1    
   172   86  209 1    
   173   87   88 2    
   174   87   89 am   BACKBONE|DICT|INTERRES
   175   89   90 1    
   176   89  210 1    
   177   90   91 1    
   178   90   92 1    
   179   90  211 1    
   180   91  212 1    
   181   91  213 1    
   182   91  214 1    
   183   92   93 2    
   184   92   94 am   BACKBONE|DICT|INTERRES
   185   94   95 1    
   186   94  215 1    
   187   95   96 1    
   188   95   97 1    
   189   95  216 1    
   190   96  217 1    
   191   96  218 1    
   192   96  219 1    
   193   97   98 2    
   194   97   99 am   BACKBONE|DICT|INTERRES
   195   99  100 1    
   196   99  220 1    
   197  100  101 1    
   198  100  102 1    
   199  100  221 1    
   200  101  222 1    
   201  101  223 1    
   202  101  224 1    
   203  102  103 2    
   204  102  104 am   BACKBONE|DICT|INTERRES
   205  104  105 1    
   206  104  225 1    
   207  105  106 1    
   208  105  107 1    
   209  105  226 1    
   210  106  227 1    
   211  106  228 1    
   212  106  229 1    
   213  107  108 2    
   214  107  109 am   BACKBONE|DICT|INTERRES
   215  109  110 1    
   216  109  230 1    
   217  110  111 1    
   218  110  112 1    
   219  110  231 1    
   220  111  232 1    
   221  111  233 1    
   222  111  234 1    
   223  112  113 2    
   224  112  114 am   BACKBONE|DICT|INTERRES
   225  114  115 1    
   226  114  235 1    
   227  115  116 1    
   228  115  117 1    
   229  115  236 1    
   230  116  237 1    
   231  116  238 1    
   232  116  239 1    
   233  117  118 2    
   234  117  119 am   BACKBONE|DICT|INTERRES
   235  119  120 1    
   236  119  240 1    
   237  120  121 1    
   238  120  124 1    
   239  120  241 1    
   240  121  122 am   BACKBONE|DICT|INTERRES
   241  121  123 2    
   242  122  242 1    
   243  122  243 1    
   244  124  125 1    
   245  124  244 1    
   246  124  245 1    
   247  125  126 1    
   248  126  246 1    
   249  126  247 1    
@<TRIPOS>SUBSTRUCTURE
     1 UNK         1 GROUP             0       ****    0 ROOT    
