@<TRIPOS>MOLECULE
3R540
247   249    1
SMALL
USER_CHARGES


@<TRIPOS>ATOM
      1 CA         -1.4757   -9.2192  -45.2181 C.3       0 UNK        -0.1800 
      2 C          -1.2207  -10.7088  -45.3984 C.2       0 UNK         0.5000 
      3 O          -1.8742  -11.5216  -44.7464 O.2       0 UNK        -0.5000 
      4 N          -0.2615  -11.0616  -46.2668 N.am      1 UNK        -0.5000 
      5 CA          0.1383  -12.4291  -46.6473 C.3       1 UNK         0.1400 
      6 C6         -1.0136  -13.2798  -47.2523 C.3       23 UNK        -0.0398 
      7 S7         -1.7853  -12.4936  -48.7101 S.3       23 UNK        -0.2404 
      8 C8         -0.8525  -13.2392  -50.0856 C.3       23 UNK        -0.0205 
      9 C9         -1.2283  -14.6962  -50.3108 C.ar      23 UNK        -0.0193 
     10 C10        -2.3866  -15.0249  -51.0192 C.ar      23 UNK        -0.1150 
     11 C11        -2.7360  -16.3625  -51.2282 C.ar      23 UNK        -0.0193 
     12 C12        -1.9148  -17.3759  -50.7210 C.ar      23 UNK        -0.1150 
     13 C13        -0.7501  -17.0587  -50.0138 C.ar      23 UNK        -0.0193 
     14 C14        -0.4121  -15.7177  -49.8211 C.ar      23 UNK        -0.1150 
     15 C15         0.1600  -18.1533  -49.4726 C.3       23 UNK        -0.0205 
     16 S16        -0.0296  -18.3843  -47.6733 S.3       23 UNK        -0.2404 
     17 C17        -1.6586  -19.1976  -47.5769 C.3       23 UNK        -0.0398 
     18 CA         -1.5833  -20.6306  -46.9988 C.3       11 UNK         0.1400 
     19 N          -1.1133  -20.6696  -45.6095 N.am      11 UNK        -0.5000 
     20 C          -0.8142  -21.7950  -44.9427 C.2       10 UNK         0.5000 
     21 O          -0.8724  -22.9181  -45.4430 O.2       10 UNK        -0.5000 
     22 CA         -0.4753  -21.6609  -43.4482 C.3       10 UNK         0.1400 
     23 CB          1.0348  -21.5142  -43.2310 C.3       10 UNK        -0.1800 
     24 N          -1.1905  -20.5599  -42.8003 N.am      10 UNK        -0.5000 
     25 C          -2.5201  -20.5450  -42.6156 C.2       9 UNK         0.5000 
     26 O          -3.2610  -21.4609  -42.9722 O.2       9 UNK        -0.5000 
     27 CA         -3.1371  -19.2915  -41.9671 C.3       9 UNK         0.1400 
     28 CB         -3.2120  -19.4593  -40.4425 C.3       9 UNK        -0.1800 
     29 N          -2.4103  -18.0612  -42.2776 N.am      9 UNK        -0.5000 
     30 C          -2.2725  -17.5326  -43.5022 C.2       8 UNK         0.5000 
     31 O          -2.8005  -18.0038  -44.5089 O.2       8 UNK        -0.5000 
     32 CA         -1.3592  -16.2954  -43.6251 C.3       8 UNK         0.1400 
     33 CB         -2.1916  -15.0059  -43.6543 C.3       8 UNK        -0.1800 
     34 N          -0.3634  -16.1996  -42.5509 N.am      8 UNK        -0.5000 
     35 C           0.6408  -17.0700  -42.3806 C.2       7 UNK         0.5000 
     36 O           0.8029  -18.0526  -43.1071 O.2       7 UNK        -0.5000 
     37 CA          1.5952  -16.7888  -41.2021 C.3       7 UNK         0.1400 
     38 CB          0.8795  -16.9023  -39.8394 C.3       7 UNK        -0.1800 
     39 N           2.8014  -17.6207  -41.2698 N.am      7 UNK        -0.5000 
     40 C           2.9240  -18.9354  -41.0360 C.2       6 UNK         0.5000 
     41 O           2.0551  -19.6336  -40.5109 O.2       6 UNK        -0.5000 
     42 CA          4.2360  -19.5793  -41.5368 C.3       6 UNK         0.1400 
     43 CB          4.4375  -21.0106  -41.0070 C.3       6 UNK        -0.1800 
     44 N           4.2743  -19.6104  -43.0023 N.am      6 UNK        -0.5000 
     45 C           4.5023  -18.5496  -43.7869 C.2       5 UNK         0.5000 
     46 O           4.8174  -17.4425  -43.3417 O.2       5 UNK        -0.5000 
     47 CA          4.3460  -18.7427  -45.3059 C.3       5 UNK         0.1400 
     48 CB          3.1034  -19.5733  -45.6902 C.3       5 UNK        -0.1800 
     49 N           4.2649  -17.4240  -45.9215 N.am      5 UNK        -0.5000 
     50 C           4.5289  -17.1233  -47.1952 C.2       4 UNK         0.5000 
     51 O           4.8933  -17.9498  -48.0325 O.2       4 UNK        -0.5000 
     52 CA          4.3480  -15.6514  -47.6129 C.3       4 UNK         0.1400 
     53 CB          3.0237  -15.4794  -48.3680 C.3       4 UNK        -0.1800 
     54 N           4.3740  -14.7110  -46.4878 N.am      4 UNK        -0.5000 
     55 C           5.4918  -14.3178  -45.8593 C.2       3 UNK         0.5000 
     56 O           6.6091  -14.7578  -46.1335 O.2       3 UNK        -0.5000 
     57 CA          5.3632  -13.2340  -44.7694 C.3       3 UNK         0.1400 
     58 CB          6.0302  -11.9282  -45.2321 C.3       3 UNK        -0.1800 
     59 N           3.9760  -12.9384  -44.4067 N.am      3 UNK        -0.5000 
     60 C           3.2829  -13.5802  -43.4581 C.2       2 UNK         0.5000 
     61 O           3.7401  -14.4963  -42.7772 O.2       2 UNK        -0.5000 
     62 CA          1.8284  -13.1275  -43.2303 C.3       2 UNK         0.1400 
     63 CB          1.7451  -12.1370  -42.0600 C.3       2 UNK        -0.1800 
     64 N           1.1929  -12.5327  -44.4078 N.am      2 UNK        -0.5000 
     65 C           0.8860  -13.1972  -45.5308 C.2       1 UNK         0.5000 
     66 O           1.2067  -14.3712  -45.7150 O.2       1 UNK        -0.5000 
     67 C          -2.9435  -21.3357  -47.1732 C.2       11 UNK         0.5000 
     68 O          -3.1716  -21.9351  -48.2232 O.2       11 UNK        -0.5000 
     69 N          -3.8058  -21.2692  -46.1510 N.am      12 UNK        -0.5000 
     70 CA         -5.1088  -21.9317  -46.1296 C.3       12 UNK         0.1400 
     71 CB         -6.0553  -21.1333  -45.2203 C.3       12 UNK        -0.1800 
     72 C          -5.0258  -23.3991  -45.6664 C.2       12 UNK         0.5000 
     73 O          -5.9087  -24.1835  -46.0123 O.2       12 UNK        -0.5000 
     74 N          -3.9962  -23.7439  -44.8816 N.am      13 UNK        -0.5000 
     75 CA         -3.8077  -25.0761  -44.3062 C.3       13 UNK         0.1400 
     76 CB         -3.0549  -24.9465  -42.9733 C.3       13 UNK        -0.1800 
     77 C          -3.0615  -26.0387  -45.2469 C.2       13 UNK         0.5000 
     78 O          -3.4247  -27.2132  -45.3142 O.2       13 UNK        -0.5000 
     79 N          -2.0190  -25.5369  -45.9241 N.am      14 UNK        -0.5000 
     80 CA         -1.1081  -26.3033  -46.7805 C.3       14 UNK         0.1400 
     81 CB          0.0457  -25.4079  -47.2618 C.3       14 UNK        -0.1800 
     82 C          -1.7454  -27.0989  -47.9479 C.2       14 UNK         0.5000 
     83 O          -1.4201  -28.2778  -48.0818 O.2       14 UNK        -0.5000 
     84 N          -2.6283  -26.5448  -48.7929 N.am      15 UNK        -0.5000 
     85 CA         -3.0619  -25.1582  -48.9092 C.3       15 UNK         0.1400 
     86 CB         -4.5969  -25.1275  -48.9543 C.3       15 UNK        -0.1800 
     87 C          -2.4633  -24.5642  -50.1900 C.2       15 UNK         0.5000 
     88 O          -2.8880  -24.9147  -51.2935 O.2       15 UNK        -0.5000 
     89 N          -1.5024  -23.6493  -50.0220 N.am      16 UNK        -0.5000 
     90 CA         -0.8974  -22.8703  -51.1010 C.3       16 UNK         0.1400 
     91 CB          0.2933  -22.0762  -50.5471 C.3       16 UNK        -0.1800 
     92 C          -1.9075  -21.9368  -51.7943 C.2       16 UNK         0.5000 
     93 O          -1.7871  -21.7082  -52.9961 O.2       16 UNK        -0.5000 
     94 N          -2.9173  -21.4668  -51.0461 N.am      17 UNK        -0.5000 
     95 CA         -4.0385  -20.6812  -51.5610 C.3       17 UNK         0.1400 
     96 CB         -4.8637  -20.1424  -50.3829 C.3       17 UNK        -0.1800 
     97 C          -4.9383  -21.4718  -52.5269 C.2       17 UNK         0.5000 
     98 O          -5.4911  -20.8783  -53.4530 O.2       17 UNK        -0.5000 
     99 N          -5.0589  -22.7893  -52.3124 N.am      18 UNK        -0.5000 
    100 CA        -5.7830  -23.6938  -53.2044 C.3       18 UNK         0.1400 
    101 CB        -6.1997  -24.9599  -52.4421 C.3       18 UNK        -0.1800 
    102 C         -4.9395  -24.0507  -54.4390 C.2       18 UNK         0.5000 
    103 O         -5.4799  -24.0988  -55.5434 O.2       18 UNK        -0.5000 
    104 N         -3.6300  -24.2614  -54.2363 N.am      19 UNK        -0.5000 
    105 CA        -2.6605  -24.5657  -55.2916 C.3       19 UNK         0.1400 
    106 CB        -1.3205  -24.9672  -54.6571 C.3       19 UNK        -0.1800 
    107 C         -2.4716  -23.4018  -56.2834 C.2       19 UNK         0.5000 
    108 O         -2.4689  -23.6279  -57.4939 O.2       19 UNK        -0.5000 
    109 N         -2.3502  -22.1764  -55.7545 N.am      20 UNK        -0.5000 
    110 CA        -2.2748  -20.9363  -56.5317 C.3       20 UNK         0.1400 
    111 CB        -1.6309  -19.8470  -55.6612 C.3       20 UNK        -0.1800 
    112 C         -3.6479  -20.4655  -57.0532 C.2       20 UNK         0.5000 
    113 O         -3.6944  -19.6143  -57.9416 O.2       20 UNK        -0.5000 
    114 N         -4.7301  -21.0169  -56.4843 N.am      21 UNK        -0.5000 
    115 CA        -6.1447  -20.7492  -56.7667 C.3       21 UNK         0.1400 
    116 CB        -6.4999  -21.1217  -58.2211 C.3       21 UNK        -0.1800 
    117 C         -6.6096  -19.3277  -56.3805 C.2       21 UNK         0.5000 
    118 O         -7.6545  -18.8784  -56.8555 O.2       21 UNK        -0.5000 
    119 N         -5.8477  -18.6545  -55.5105 N.am      22 UNK        -0.5000 
    120 CA        -6.1905  -17.3567  -54.9114 C.3       22 UNK         0.1400 
    121 C         -7.0847  -17.4598  -53.6419 C.2       22 UNK         0.5000 
    122 N         -7.2633  -18.6323  -53.0454 N.am      22 UNK        -0.7600 
    123 O         -7.6406  -16.4578  -53.2006 O.2       22 UNK        -0.5000 
    124 C124       -4.9356  -16.4780  -54.6718 C.3       23 UNK        -0.0398 
    125 S125       -3.6163  -17.2712  -53.6849 S.3       23 UNK        -0.2404 
    126 C126       -4.0020  -16.7040  -51.9985 C.3       23 UNK        -0.0205 
    127 H127       -2.5069   -8.9821  -45.4799 H         1 UNK         0.0600 
    128 H128       -0.8187   -8.6156  -45.8449 H         1 UNK         0.0600 
    129 H129       -1.3121   -8.9333  -44.1791 H         1 UNK         0.0600 
    130 H130        0.2327  -10.3286  -46.7568 H         1 UNK         0.3000 
    131 H131        0.8827  -12.2998  -47.4342 H         1 UNK         0.0600 
    132 H132       -1.7935  -13.4537  -46.5103 H         1 UNK         0.0800 
    133 H133       -0.6589  -14.2716  -47.5304 H         1 UNK         0.0800 
    134 H134       -1.0548  -12.6710  -50.9947 H         1 UNK         0.0800 
    135 H135        0.2179  -13.1398  -49.8986 H         1 UNK         0.0800 
    136 H136       -3.0169  -14.2359  -51.4048 H         1 UNK         0.1150 
    137 H137       -2.1773  -18.4102  -50.8873 H         1 UNK         0.1150 
    138 H138        0.4858  -15.4681  -49.2793 H         1 UNK         0.1150 
    139 H139       -0.0246  -19.0942  -49.9902 H         1 UNK         0.0800 
    140 H140        1.1984  -17.8932  -49.6822 H         1 UNK         0.0800 
    141 H141       -2.3215  -18.5701  -46.9809 H         1 UNK         0.0800 
    142 H142       -2.0957  -19.2208  -48.5753 H         1 UNK         0.0800 
    143 H143       -0.8619  -21.1948  -47.5917 H         1 UNK         0.0600 
    144 H144       -1.0616  -19.7838  -45.1257 H         1 UNK         0.3000 
    145 H145       -0.7841  -22.5884  -42.9637 H         1 UNK         0.0600 
    146 H146        1.2834  -21.6064  -42.1744 H         1 UNK         0.0600 
    147 H147        1.5885  -22.2891  -43.7629 H         1 UNK         0.0600 
    148 H148        1.3980  -20.5488  -43.5767 H         1 UNK         0.0600 
    149 H149       -0.6387  -19.7554  -42.5299 H         1 UNK         0.3000 
    150 H150       -4.1535  -19.1879  -42.3527 H         1 UNK         0.0600 
    151 H151       -3.7674  -20.3596  -40.1759 H         1 UNK         0.0600 
    152 H152       -3.7212  -18.6154  -39.9767 H         1 UNK         0.0600 
    153 H153       -2.2196  -19.5416  -39.9971 H         1 UNK         0.0600 
    154 H154       -1.9420  -17.6058  -41.5089 H         1 UNK         0.3000 
    155 H155       -0.8238  -16.3766  -44.5742 H         1 UNK         0.0600 
    156 H156       -1.5579  -14.1308  -43.7980 H         1 UNK         0.0600 
    157 H157       -2.7526  -14.8662  -42.7296 H         1 UNK         0.0600 
    158 H158       -2.9092  -15.0229  -44.4756 H         1 UNK         0.0600 
    159 H159       -0.4631  -15.4235  -41.9132 H         1 UNK         0.3000 
    160 H160        1.9415  -15.7612  -41.3065 H         1 UNK         0.0600 
    161 H161        0.3570  -17.8526  -39.7268 H         1 UNK         0.0600 
    162 H162        0.1372  -16.1127  -39.7206 H         1 UNK         0.0600 
    163 H163        1.5847  -16.8064  -39.0137 H         1 UNK         0.0600 
    164 H164        3.5665  -17.1949  -41.7856 H         1 UNK         0.3000 
    165 H165        5.0653  -18.9707  -41.1700 H         1 UNK         0.0600 
    166 H166        3.6612  -21.6887  -41.3630 H         1 UNK         0.0600 
    167 H167        5.4015  -21.4131  -41.3186 H         1 UNK         0.0600 
    168 H168        4.4159  -21.0293  -39.9167 H         1 UNK         0.0600 
    169 H169        4.0024  -20.4813  -43.4330 H         1 UNK         0.3000 
    170 H170        5.2448  -19.2483  -45.6639 H         1 UNK         0.0600 
    171 H171        3.1634  -20.5904  -45.3037 H         1 UNK         0.0600 
    172 H172        2.1880  -19.1188  -45.3092 H         1 UNK         0.0600 
    173 H173        2.9996  -19.6561  -46.7722 H         1 UNK         0.0600 
    174 H174        4.0499  -16.6752  -45.2754 H         1 UNK         0.3000 
    175 H175        5.1624  -15.3982  -48.2950 H         1 UNK         0.0600 
    176 H176        2.1779  -15.7894  -47.7533 H         1 UNK         0.0600 
    177 H177        2.8647  -14.4435  -48.6681 H         1 UNK         0.0600 
    178 H178        3.0101  -16.0874  -49.2733 H         1 UNK         0.0600 
    179 H179        3.4816  -14.3480  -46.1801 H         1 UNK         0.3000 
    180 H180        5.9006  -13.5938  -43.8893 H         1 UNK         0.0600 
    181 H181        5.5466  -11.5216  -46.1212 H         1 UNK         0.0600 
    182 H182        7.0816  -12.0885  -45.4747 H         1 UNK         0.0600 
    183 H183        5.9923  -11.1682  -44.4514 H         1 UNK         0.0600 
    184 H184        3.5217  -12.1922  -44.9125 H         1 UNK         0.3000 
    185 H185        1.2543  -14.0142  -42.9627 H         1 UNK         0.0600 
    186 H186        0.7099  -11.8821  -41.8320 H         1 UNK         0.0600 
    187 H187        2.1805  -12.5630  -41.1550 H         1 UNK         0.0600 
    188 H188        2.2797  -11.2116  -42.2777 H         1 UNK         0.0600 
    189 H189        0.9011  -11.5693  -44.3322 H         1 UNK         0.3000 
    190 H190       -3.5376  -20.7684  -45.3149 H         1 UNK         0.3000 
    191 H191       -5.5289  -21.9278  -47.1380 H         1 UNK         0.0600 
    192 H192       -7.0519  -21.5764  -45.2091 H         1 UNK         0.0600 
    193 H193       -6.1609  -20.1052  -45.5673 H         1 UNK         0.0600 
    194 H194       -5.6977  -21.1046  -44.1905 H         1 UNK         0.0600 
    195 H195       -3.3498  -23.0233  -44.5892 H         1 UNK         0.3000 
    196 H196       -4.7860  -25.5116  -44.0905 H         1 UNK         0.0600 
    197 H197       -2.9599  -25.9166  -42.4838 H         1 UNK         0.0600 
    198 H198       -3.5805  -24.2843  -42.2848 H         1 UNK         0.0600 
    199 H199       -2.0489  -24.5527  -43.1157 H         1 UNK         0.0600 
    200 H200       -1.7645  -24.5649  -45.7692 H         1 UNK         0.3000 
    201 H201       -0.6584  -27.0543  -46.1276 H         1 UNK         0.0600 
    202 H202        0.6804  -25.1127  -46.4261 H         1 UNK         0.0600 
    203 H203       -0.3119  -24.4955  -47.7338 H         1 UNK         0.0600 
    204 H204        0.6807  -25.9277  -47.9805 H         1 UNK         0.0600 
    205 H205       -2.9724  -27.1332  -49.5375 H         1 UNK         0.3000 
    206 H206       -2.7441  -24.5481  -48.0687 H         1 UNK         0.0600 
    207 H207       -5.0187  -25.5642  -48.0501 H         1 UNK         0.0600 
    208 H208       -4.9678  -24.1044  -49.0305 H         1 UNK         0.0600 
    209 H209       -4.9933  -25.6912  -49.7983 H         1 UNK         0.0600 
    210 H210       -1.2388  -23.3906  -49.0835 H         1 UNK         0.3000 
    211 H211       -0.5210  -23.5687  -51.8501 H         1 UNK         0.0600 
    212 H212       -0.0106  -21.4008  -49.7493 H         1 UNK         0.0600 
    213 H213        0.7611  -21.4755  -51.3283 H         1 UNK         0.0600 
    214 H214        1.0585  -22.7421  -50.1477 H         1 UNK         0.0600 
    215 H215       -2.9578  -21.7166  -50.0609 H         1 UNK         0.3000 
    216 H216       -3.6310  -19.8361  -52.1172 H         1 UNK         0.0600 
    217 H217       -5.7060  -19.5453  -50.7334 H         1 UNK         0.0600 
    218 H218       -4.2622  -19.5044  -49.7361 H         1 UNK         0.0600 
    219 H219       -5.2688  -20.9507  -49.7728 H         1 UNK         0.0600 
    220 H220       -4.5441  -23.2118  -51.5537 H         1 UNK         0.3000 
    221 H221       -6.6929  -23.1960  -53.5474 H         1 UNK         0.0600 
    222 H222       -5.3378  -25.5573  -52.1455 H         1 UNK         0.0600 
    223 H223       -6.7672  -24.7140  -51.5445 H         1 UNK         0.0600 
    224 H224       -6.8331  -25.5935  -53.0642 H         1 UNK         0.0600 
    225 H225       -3.2799  -24.2490  -53.2855 H         1 UNK         0.3000 
    226 H226       -3.0395  -25.4233  -55.8514 H         1 UNK         0.0600 
    227 H227       -1.4446  -25.7940  -53.9573 H         1 UNK         0.0600 
    228 H228       -0.6109  -25.2890  -55.4204 H         1 UNK         0.0600 
    229 H229       -0.8649  -24.1366  -54.1188 H         1 UNK         0.0600 
    230 H230       -2.2949  -22.0770  -54.7427 H         1 UNK         0.3000 
    231 H231       -1.6331  -21.1020  -57.3994 H         1 UNK         0.0600 
    232 H232       -1.5499  -18.9035  -56.2024 H         1 UNK         0.0600 
    233 H233       -0.6257  -20.1331  -55.3513 H         1 UNK         0.0600 
    234 H234       -2.2154  -19.6606  -54.7602 H         1 UNK         0.0600 
    235 H235       -4.5668  -21.6940  -55.7527 H         1 UNK         0.3000 
    236 H236       -6.7022  -21.4240  -56.1155 H         1 UNK         0.0600 
    237 H237       -6.1698  -22.1330  -58.4593 H         1 UNK         0.0600 
    238 H238       -7.5780  -21.0884  -58.3820 H         1 UNK         0.0600 
    239 H239       -6.0427  -20.4401  -58.9385 H         1 UNK         0.0600 
    240 H240       -5.0367  -19.1185  -55.1266 H         1 UNK         0.3000 
    241 H241       -6.8003  -16.8122  -55.6349 H         1 UNK         0.0600 
    242 H242       -6.7632  -19.4559  -53.3664 H         1 UNK         0.3800 
    243 H243       -7.8618  -18.6899  -52.2378 H         1 UNK         0.3800 
    244 H244       -4.4968  -16.2313  -55.6393 H         1 UNK         0.0800 
    245 H245       -5.2078  -15.5164  -54.2341 H         1 UNK         0.0800 
    246 H246       -4.5564  -17.4824  -51.4751 H         1 UNK         0.0800 
    247 H247       -4.6630  -15.8370  -52.0296 H         1 UNK         0.0800 
@<TRIPOS>BOND
     1    1    2 1    
     2    1  127 1    
     3    1  128 1    
     4    1  129 1    
     5    2    3 2    
     6    2    4 am   BACKBONE|DICT|INTERRES
     7    4    5 1    
     8    4  130 1    
     9    5    6 1    
    10    5   65 1    
    11    5  131 1    
    12    6    7 1    
    13    6  132 1    
    14    6  133 1    
    15    7    8 1    
    16    8    9 1    
    17    8  134 1    
    18    8  135 1    
    19    9   10 ar   
    20    9   14 ar   
    21   10   11 ar   
    22   10  136 1    
    23   11   12 ar   
    24   11  126 1    
    25   12   13 ar   
    26   12  137 1    
    27   13   14 ar   
    28   13   15 1    
    29   14  138 1    
    30   15   16 1    
    31   15  139 1    
    32   15  140 1    
    33   16   17 1    
    34   17   18 1    
    35   17  141 1    
    36   17  142 1    
    37   18   19 1    
    38   18   67 1    
    39   18  143 1    
    40   19   20 am   BACKBONE|DICT|INTERRES
    41   19  144 1    
    42   20   21 2    
    43   20   22 1    
    44   22   23 1    
    45   22   24 1    
    46   22  145 1    
    47   23  146 1    
    48   23  147 1    
    49   23  148 1    
    50   24   25 am   BACKBONE|DICT|INTERRES
    51   24  149 1    
    52   25   26 2    
    53   25   27 1    
    54   27   28 1    
    55   27   29 1    
    56   27  150 1    
    57   28  151 1    
    58   28  152 1    
    59   28  153 1    
    60   29   30 am   BACKBONE|DICT|INTERRES
    61   29  154 1    
    62   30   31 2    
    63   30   32 1    
    64   32   33 1    
    65   32   34 1    
    66   32  155 1    
    67   33  156 1    
    68   33  157 1    
    69   33  158 1    
    70   34   35 am   BACKBONE|DICT|INTERRES
    71   34  159 1    
    72   35   36 2    
    73   35   37 1    
    74   37   38 1    
    75   37   39 1    
    76   37  160 1    
    77   38  161 1    
    78   38  162 1    
    79   38  163 1    
    80   39   40 am   BACKBONE|DICT|INTERRES
    81   39  164 1    
    82   40   41 2    
    83   40   42 1    
    84   42   43 1    
    85   42   44 1    
    86   42  165 1    
    87   43  166 1    
    88   43  167 1    
    89   43  168 1    
    90   44   45 am   BACKBONE|DICT|INTERRES
    91   44  169 1    
    92   45   46 2    
    93   45   47 1    
    94   47   48 1    
    95   47   49 1    
    96   47  170 1    
    97   48  171 1    
    98   48  172 1    
    99   48  173 1    
   100   49   50 am   BACKBONE|DICT|INTERRES
   101   49  174 1    
   102   50   51 2    
   103   50   52 1    
   104   52   53 1    
   105   52   54 1    
   106   52  175 1    
   107   53  176 1    
   108   53  177 1    
   109   53  178 1    
   110   54   55 am   BACKBONE|DICT|INTERRES
   111   54  179 1    
   112   55   56 2    
   113   55   57 1    
   114   57   58 1    
   115   57   59 1    
   116   57  180 1    
   117   58  181 1    
   118   58  182 1    
   119   58  183 1    
   120   59   60 am   BACKBONE|DICT|INTERRES
   121   59  184 1    
   122   60   61 2    
   123   60   62 1    
   124   62   63 1    
   125   62   64 1    
   126   62  185 1    
   127   63  186 1    
   128   63  187 1    
   129   63  188 1    
   130   64   65 am   BACKBONE|DICT|INTERRES
   131   64  189 1    
   132   65   66 2    
   133   67   68 2    
   134   67   69 am   BACKBONE|DICT|INTERRES
   135   69   70 1    
   136   69  190 1    
   137   70   71 1    
   138   70   72 1    
   139   70  191 1    
   140   71  192 1    
   141   71  193 1    
   142   71  194 1    
   143   72   73 2    
   144   72   74 am   BACKBONE|DICT|INTERRES
   145   74   75 1    
   146   74  195 1    
   147   75   76 1    
   148   75   77 1    
   149   75  196 1    
   150   76  197 1    
   151   76  198 1    
   152   76  199 1    
   153   77   78 2    
   154   77   79 am   BACKBONE|DICT|INTERRES
   155   79   80 1    
   156   79  200 1    
   157   80   81 1    
   158   80   82 1    
   159   80  201 1    
   160   81  202 1    
   161   81  203 1    
   162   81  204 1    
   163   82   83 2    
   164   82   84 am   BACKBONE|DICT|INTERRES
   165   84   85 1    
   166   84  205 1    
   167   85   86 1    
   168   85   87 1    
   169   85  206 1    
   170   86  207 1    
   171   86  208 1    
   172   86  209 1    
   173   87   88 2    
   174   87   89 am   BACKBONE|DICT|INTERRES
   175   89   90 1    
   176   89  210 1    
   177   90   91 1    
   178   90   92 1    
   179   90  211 1    
   180   91  212 1    
   181   91  213 1    
   182   91  214 1    
   183   92   93 2    
   184   92   94 am   BACKBONE|DICT|INTERRES
   185   94   95 1    
   186   94  215 1    
   187   95   96 1    
   188   95   97 1    
   189   95  216 1    
   190   96  217 1    
   191   96  218 1    
   192   96  219 1    
   193   97   98 2    
   194   97   99 am   BACKBONE|DICT|INTERRES
   195   99  100 1    
   196   99  220 1    
   197  100  101 1    
   198  100  102 1    
   199  100  221 1    
   200  101  222 1    
   201  101  223 1    
   202  101  224 1    
   203  102  103 2    
   204  102  104 am   BACKBONE|DICT|INTERRES
   205  104  105 1    
   206  104  225 1    
   207  105  106 1    
   208  105  107 1    
   209  105  226 1    
   210  106  227 1    
   211  106  228 1    
   212  106  229 1    
   213  107  108 2    
   214  107  109 am   BACKBONE|DICT|INTERRES
   215  109  110 1    
   216  109  230 1    
   217  110  111 1    
   218  110  112 1    
   219  110  231 1    
   220  111  232 1    
   221  111  233 1    
   222  111  234 1    
   223  112  113 2    
   224  112  114 am   BACKBONE|DICT|INTERRES
   225  114  115 1    
   226  114  235 1    
   227  115  116 1    
   228  115  117 1    
   229  115  236 1    
   230  116  237 1    
   231  116  238 1    
   232  116  239 1    
   233  117  118 2    
   234  117  119 am   BACKBONE|DICT|INTERRES
   235  119  120 1    
   236  119  240 1    
   237  120  121 1    
   238  120  124 1    
   239  120  241 1    
   240  121  122 am   BACKBONE|DICT|INTERRES
   241  121  123 2    
   242  122  242 1    
   243  122  243 1    
   244  124  125 1    
   245  124  244 1    
   246  124  245 1    
   247  125  126 1    
   248  126  246 1    
   249  126  247 1    
@<TRIPOS>SUBSTRUCTURE
     1 UNK         1 GROUP             0       ****    0 ROOT    
