@<TRIPOS>MOLECULE
3R540
247   249    1
SMALL
USER_CHARGES


@<TRIPOS>ATOM
      1 CA          1.0221   -9.7991  -48.6319 C.3       0 UNK        -0.1800 
      2 C           1.6647  -11.0168  -49.2816 C.2       0 UNK         0.5000 
      3 O           1.4793  -11.2447  -50.4771 O.2       0 UNK        -0.5000 
      4 N           2.4213  -11.7903  -48.4998 N.am      1 UNK        -0.5000 
      5 CA          3.1450  -12.9941  -48.9069 C.3       1 UNK         0.1400 
      6 C6          2.2206  -14.1786  -49.3071 C.3       23 UNK        -0.0398 
      7 S7          1.1205  -14.7576  -47.9709 S.3       23 UNK        -0.2404 
      8 C8         -0.0811  -15.7568  -48.9163 C.3       23 UNK        -0.0205 
      9 C9          0.4162  -17.1012  -49.4593 C.ar      23 UNK        -0.0193 
     10 C10        -0.4408  -17.8313  -50.2883 C.ar      23 UNK        -0.1150 
     11 C11        -0.0479  -19.0563  -50.8476 C.ar      23 UNK        -0.0193 
     12 C12         1.2177  -19.5600  -50.5376 C.ar      23 UNK        -0.1150 
     13 C13         2.0784  -18.8635  -49.6872 C.ar      23 UNK        -0.0193 
     14 C14         1.6775  -17.6322  -49.1634 C.ar      23 UNK        -0.1150 
     15 C15         3.4404  -19.4414  -49.3237 C.3       23 UNK        -0.0205 
     16 S16         3.3256  -21.0292  -48.4310 S.3       23 UNK        -0.2404 
     17 C17         2.2528  -20.6068  -47.0145 C.3       23 UNK        -0.0398 
     18 CA          1.2836  -21.7471  -46.6211 C.3       11 UNK         0.1400 
     19 N           0.7013  -21.5278  -45.2941 N.am      11 UNK        -0.5000 
     20 C           0.2039  -22.4993  -44.5219 C.2       10 UNK         0.5000 
     21 O           0.1739  -23.6830  -44.8574 O.2       10 UNK        -0.5000 
     22 CA         -0.3507  -22.0855  -43.1485 C.3       10 UNK         0.1400 
     23 CB          0.7981  -21.8552  -42.1547 C.3       10 UNK        -0.1800 
     24 N          -1.2139  -20.9025  -43.1650 N.am      10 UNK        -0.5000 
     25 C          -2.4378  -20.8612  -43.7096 C.2       9 UNK         0.5000 
     26 O          -2.8794  -21.7361  -44.4520 O.2       9 UNK        -0.5000 
     27 CA         -3.3211  -19.6511  -43.3571 C.3       9 UNK         0.1400 
     28 CB         -3.4399  -19.4431  -41.8371 C.3       9 UNK        -0.1800 
     29 N          -2.7732  -18.4513  -43.9719 N.am      9 UNK        -0.5000 
     30 C          -3.1954  -17.9252  -45.1286 C.2       8 UNK         0.5000 
     31 O          -4.2405  -18.2558  -45.6888 O.2       8 UNK        -0.5000 
     32 CA         -2.2897  -16.8695  -45.7987 C.3       8 UNK         0.1400 
     33 CB         -2.9149  -15.4706  -45.7044 C.3       8 UNK        -0.1800 
     34 N          -0.9237  -16.8226  -45.2675 N.am      8 UNK        -0.5000 
     35 C          -0.0486  -17.8349  -45.3183 C.2       7 UNK         0.5000 
     36 O          -0.2860  -18.9066  -45.8720 O.2       7 UNK        -0.5000 
     37 CA          1.2632  -17.6733  -44.5319 C.3       7 UNK         0.1400 
     38 CB          2.3603  -17.0322  -45.3857 C.3       7 UNK        -0.1800 
     39 N           1.0792  -16.9153  -43.2941 N.am      7 UNK        -0.5000 
     40 C           0.4548  -17.3960  -42.2102 C.2       6 UNK         0.5000 
     41 O          -0.0047  -18.5358  -42.1392 O.2       6 UNK        -0.5000 
     42 CA          0.2700  -16.4280  -41.0310 C.3       6 UNK         0.1400 
     43 CB          1.5438  -16.3541  -40.1764 C.3       6 UNK        -0.1800 
     44 N          -0.1086  -15.0900  -41.4876 N.am      6 UNK        -0.5000 
     45 C          -1.3352  -14.7845  -41.9377 C.2       5 UNK         0.5000 
     46 O          -2.2681  -15.5876  -41.9616 O.2       5 UNK        -0.5000 
     47 CA         -1.5697  -13.3541  -42.4638 C.3       5 UNK         0.1400 
     48 CB         -2.1368  -12.4619  -41.3494 C.3       5 UNK        -0.1800 
     49 N          -0.3847  -12.7086  -43.0315 N.am      5 UNK        -0.5000 
     50 C           0.3255  -13.1571  -44.0752 C.2       4 UNK         0.5000 
     51 O           0.0793  -14.2118  -44.6600 O.2       4 UNK        -0.5000 
     52 CA          1.5408  -12.3141  -44.5219 C.3       4 UNK         0.1400 
     53 CB          1.6802  -10.9651  -43.7837 C.3       4 UNK        -0.1800 
     54 N           2.8045  -13.0529  -44.4351 N.am      4 UNK        -0.5000 
     55 C           3.2613  -13.7687  -43.3945 C.2       3 UNK         0.5000 
     56 O           2.6406  -13.9205  -42.3409 O.2       3 UNK        -0.5000 
     57 CA          4.6293  -14.4485  -43.5796 C.3       3 UNK         0.1400 
     58 CB          4.8149  -15.6870  -42.6813 C.3       3 UNK        -0.1800 
     59 N           4.8373  -14.8029  -44.9846 N.am      3 UNK        -0.5000 
     60 C           6.0030  -14.7139  -45.6323 C.2       2 UNK         0.5000 
     61 O           7.0674  -14.4152  -45.0890 O.2       2 UNK        -0.5000 
     62 CA          5.9826  -14.9857  -47.1515 C.3       2 UNK         0.1400 
     63 CB          6.1481  -16.4916  -47.4141 C.3       2 UNK        -0.1800 
     64 N           4.8147  -14.5072  -47.9095 N.am      2 UNK        -0.5000 
     65 C           4.1805  -13.3279  -47.8096 C.2       1 UNK         0.5000 
     66 O           4.3809  -12.5107  -46.9054 O.2       1 UNK        -0.5000 
     67 C           0.1764  -21.9989  -47.6667 C.2       11 UNK         0.5000 
     68 O           0.3419  -22.8581  -48.5319 O.2       11 UNK        -0.5000 
     69 N          -0.9657  -21.3116  -47.5214 N.am      12 UNK        -0.5000 
     70 CA         -2.1751  -21.5530  -48.3092 C.3       12 UNK         0.1400 
     71 CB         -3.2123  -20.4673  -48.0032 C.3       12 UNK        -0.1800 
     72 C          -2.7638  -22.9589  -48.0768 C.2       12 UNK         0.5000 
     73 O          -3.1933  -23.5990  -49.0379 O.2       12 UNK        -0.5000 
     74 N          -2.7397  -23.4303  -46.8203 N.am      13 UNK        -0.5000 
     75 CA         -3.1032  -24.7943  -46.4344 C.3       13 UNK         0.1400 
     76 CB         -3.2052  -24.9111  -44.9068 C.3       13 UNK        -0.1800 
     77 C          -2.1310  -25.8401  -47.0050 C.2       13 UNK         0.5000 
     78 O          -2.5873  -26.8339  -47.5711 O.2       13 UNK        -0.5000 
     79 N          -0.8194  -25.5750  -46.8985 N.am      14 UNK        -0.5000 
     80 CA          0.2565  -26.4075  -47.4510 C.3       14 UNK         0.1400 
     81 CB          1.6187  -25.8605  -47.0008 C.3       14 UNK        -0.1800 
     82 C           0.2069  -26.5417  -48.9865 C.2       14 UNK         0.5000 
     83 O           0.5964  -27.5816  -49.5172 O.2       14 UNK        -0.5000 
     84 N          -0.3363  -25.5226  -49.6652 N.am      15 UNK        -0.5000 
     85 CA         -0.6590  -25.5035  -51.0941 C.3       15 UNK         0.1400 
     86 CB         -0.6927  -24.0394  -51.5687 C.3       15 UNK        -0.1800 
     87 C          -1.9647  -26.2608  -51.4455 C.2       15 UNK         0.5000 
     88 O          -2.5432  -26.0075  -52.5022 O.2       15 UNK        -0.5000 
     89 N          -2.4002  -27.1774  -50.5677 N.am      16 UNK        -0.5000 
     90 CA         -3.5914  -28.0268  -50.6513 C.3       16 UNK         0.1400 
     91 CB         -3.5384  -28.9545  -51.8841 C.3       16 UNK        -0.1800 
     92 C          -4.8970  -27.2168  -50.5414 C.2       16 UNK         0.5000 
     93 O          -5.8327  -27.4427  -51.3111 O.2       16 UNK        -0.5000 
     94 N          -4.9240  -26.2924  -49.5684 N.am      17 UNK        -0.5000 
     95 CA         -6.0212  -25.3701  -49.2490 C.3       17 UNK         0.1400 
     96 CB         -7.2245  -26.1366  -48.6624 C.3       17 UNK        -0.1800 
     97 C          -6.3905  -24.4732  -50.4467 C.2       17 UNK         0.5000 
     98 O          -7.5536  -24.4129  -50.8501 O.2       17 UNK        -0.5000 
     99 N          -5.3660  -23.8207  -51.0104 N.am      18 UNK        -0.5000 
    100 CA        -5.4612  -22.9772  -52.2002 C.3       18 UNK         0.1400 
    101 CB        -4.0470  -22.6141  -52.6758 C.3       18 UNK        -0.1800 
    102 C         -6.3196  -21.7208  -51.9734 C.2       18 UNK         0.5000 
    103 O         -7.2171  -21.4500  -52.7722 O.2       18 UNK        -0.5000 
    104 N         -6.0438  -21.0018  -50.8747 N.am      19 UNK        -0.5000 
    105 CA        -6.7341  -19.7937  -50.4083 C.3       19 UNK         0.1400 
    106 CB        -8.1073  -20.1702  -49.8106 C.3       19 UNK        -0.1800 
    107 C         -6.8091  -18.7029  -51.4990 C.2       19 UNK         0.5000 
    108 O         -5.8041  -18.0455  -51.7662 O.2       19 UNK        -0.5000 
    109 N         -7.9773  -18.5496  -52.1373 N.am      20 UNK        -0.5000 
    110 CA        -8.2090  -17.6349  -53.2577 C.3       20 UNK         0.1400 
    111 CB        -9.7093  -17.6164  -53.5864 C.3       20 UNK        -0.1800 
    112 C         -7.3851  -17.9758  -54.5166 C.2       20 UNK         0.5000 
    113 O         -7.0543  -17.0703  -55.2842 O.2       20 UNK        -0.5000 
    114 N         -7.0315  -19.2584  -54.6945 N.am      21 UNK        -0.5000 
    115 CA        -6.2051  -19.7466  -55.8023 C.3       21 UNK         0.1400 
    116 CB        -6.3266  -21.2750  -55.9064 C.3       21 UNK        -0.1800 
    117 C         -4.7270  -19.3133  -55.7129 C.2       21 UNK         0.5000 
    118 O         -4.0056  -19.4579  -56.7008 O.2       21 UNK        -0.5000 
    119 N         -4.3019  -18.7686  -54.5629 N.am      22 UNK        -0.5000 
    120 CA        -2.9958  -18.1113  -54.3940 C.3       22 UNK         0.1400 
    121 C         -2.8556  -16.7691  -55.1759 C.2       22 UNK         0.5000 
    122 N         -3.9339  -16.1483  -55.6442 N.am      22 UNK        -0.7600 
    123 O         -1.7437  -16.2835  -55.3641 O.2       22 UNK        -0.5000 
    124 C124       -2.6320  -17.8875  -52.9044 C.3       23 UNK        -0.0398 
    125 S125       -2.6879  -19.4014  -51.8831 S.3       23 UNK        -0.2404 
    126 C126       -0.9255  -19.8680  -51.8049 C.3       23 UNK        -0.0205 
    127 H127       -0.0624   -9.8528  -48.7262 H         1 UNK         0.0600 
    128 H128        1.3638   -8.8875  -49.1221 H         1 UNK         0.0600 
    129 H129        1.2675   -9.7282  -47.5718 H         1 UNK         0.0600 
    130 H130        2.6114  -11.5211  -47.5431 H         1 UNK         0.3000 
    131 H131        3.7338  -12.7260  -49.7864 H         1 UNK         0.0600 
    132 H132        1.5992  -13.8813  -50.1521 H         1 UNK         0.0800 
    133 H133        2.8075  -15.0192  -49.6770 H         1 UNK         0.0800 
    134 H134       -0.9343  -15.9449  -48.2678 H         1 UNK         0.0800 
    135 H135       -0.4596  -15.1541  -49.7431 H         1 UNK         0.0800 
    136 H136       -1.4166  -17.4213  -50.4977 H         1 UNK         0.1150 
    137 H137        1.5334  -20.5087  -50.9493 H         1 UNK         0.1150 
    138 H138        2.3584  -17.0964  -48.5225 H         1 UNK         0.1150 
    139 H139        4.0171  -19.5911  -50.2373 H         1 UNK         0.0800 
    140 H140        4.0104  -18.7390  -48.7138 H         1 UNK         0.0800 
    141 H141        1.6973  -19.6952  -47.2214 H         1 UNK         0.0800 
    142 H142        2.9092  -20.3730  -46.1754 H         1 UNK         0.0800 
    143 H143        1.8789  -22.6603  -46.5612 H         1 UNK         0.0600 
    144 H144        0.5657  -20.5648  -45.0158 H         1 UNK         0.3000 
    145 H145       -0.9480  -22.9212  -42.7776 H         1 UNK         0.0600 
    146 H146        0.4180  -21.6634  -41.1512 H         1 UNK         0.0600 
    147 H147        1.4465  -22.7304  -42.0949 H         1 UNK         0.0600 
    148 H148        1.4174  -21.0054  -42.4445 H         1 UNK         0.0600 
    149 H149       -0.8837  -20.1021  -42.6308 H         1 UNK         0.3000 
    150 H150       -4.3238  -19.8526  -43.7397 H         1 UNK         0.0600 
    151 H151       -3.8044  -20.3467  -41.3471 H         1 UNK         0.0600 
    152 H152       -4.1447  -18.6432  -41.6094 H         1 UNK         0.0600 
    153 H153       -2.4874  -19.1801  -41.3772 H         1 UNK         0.0600 
    154 H154       -1.9063  -18.1068  -43.5841 H         1 UNK         0.3000 
    155 H155       -2.2247  -17.1472  -46.8516 H         1 UNK         0.0600 
    156 H156       -3.0455  -15.1642  -44.6673 H         1 UNK         0.0600 
    157 H157       -3.8968  -15.4486  -46.1787 H         1 UNK         0.0600 
    158 H158       -2.2952  -14.7246  -46.2027 H         1 UNK         0.0600 
    159 H159       -0.6241  -15.9413  -44.8568 H         1 UNK         0.3000 
    160 H160        1.6030  -18.6768  -44.2670 H         1 UNK         0.0600 
    161 H161        2.1687  -15.9736  -45.5558 H         1 UNK         0.0600 
    162 H162        2.4351  -17.5217  -46.3543 H         1 UNK         0.0600 
    163 H163        3.3332  -17.1380  -44.9099 H         1 UNK         0.0600 
    164 H164        1.3624  -15.9453  -43.2966 H         1 UNK         0.3000 
    165 H165       -0.5309  -16.8199  -40.4001 H         1 UNK         0.0600 
    166 H166        1.4114  -15.6828  -39.3280 H         1 UNK         0.0600 
    167 H167        1.7998  -17.3364  -39.7773 H         1 UNK         0.0600 
    168 H168        2.4009  -16.0036  -40.7504 H         1 UNK         0.0600 
    169 H169        0.6290  -14.3973  -41.5442 H         1 UNK         0.3000 
    170 H170       -2.3159  -13.4166  -43.2575 H         1 UNK         0.0600 
    171 H171       -3.0407  -12.8977  -40.9212 H         1 UNK         0.0600 
    172 H172       -1.4204  -12.3287  -40.5378 H         1 UNK         0.0600 
    173 H173       -2.4030  -11.4754  -41.7292 H         1 UNK         0.0600 
    174 H174       -0.0880  -11.8513  -42.5889 H         1 UNK         0.3000 
    175 H175        1.3801  -12.0996  -45.5792 H         1 UNK         0.0600 
    176 H176        1.8758  -11.0990  -42.7190 H         1 UNK         0.0600 
    177 H177        2.5047  -10.3832  -44.1961 H         1 UNK         0.0600 
    178 H178        0.7804  -10.3576  -43.8900 H         1 UNK         0.0600 
    179 H179        3.4118  -12.9619  -45.2438 H         1 UNK         0.3000 
    180 H180        5.3695  -13.7023  -43.2835 H         1 UNK         0.0600 
    181 H181        5.7764  -16.1674  -42.8624 H         1 UNK         0.0600 
    182 H182        4.0331  -16.4285  -42.8410 H         1 UNK         0.0600 
    183 H183        4.7879  -15.4092  -41.6271 H         1 UNK         0.0600 
    184 H184        4.0117  -15.0430  -45.5137 H         1 UNK         0.3000 
    185 H185        6.8509  -14.4745  -47.5714 H         1 UNK         0.0600 
    186 H186        7.0205  -16.8883  -46.8927 H         1 UNK         0.0600 
    187 H187        5.2787  -17.0557  -47.0739 H         1 UNK         0.0600 
    188 H188        6.2875  -16.6970  -48.4756 H         1 UNK         0.0600 
    189 H189        4.5533  -15.1034  -48.6801 H         1 UNK         0.3000 
    190 H190       -1.0059  -20.5887  -46.8111 H         1 UNK         0.3000 
    191 H191       -1.9060  -21.4770  -49.3641 H         1 UNK         0.0600 
    192 H192       -2.8148  -19.4725  -48.2071 H         1 UNK         0.0600 
    193 H193       -4.1037  -20.5936  -48.6167 H         1 UNK         0.0600 
    194 H194       -3.5248  -20.5001  -46.9594 H         1 UNK         0.0600 
    195 H195       -2.4536  -22.8115  -46.0680 H         1 UNK         0.3000 
    196 H196       -4.0916  -25.0066  -46.8418 H         1 UNK         0.0600 
    197 H197       -3.4664  -25.9274  -44.6092 H         1 UNK         0.0600 
    198 H198       -3.9785  -24.2510  -44.5140 H         1 UNK         0.0600 
    199 H199       -2.2671  -24.6562  -44.4148 H         1 UNK         0.0600 
    200 H200       -0.5296  -24.7568  -46.3714 H         1 UNK         0.3000 
    201 H201        0.1391  -27.4090  -47.0323 H         1 UNK         0.0600 
    202 H202        1.6815  -25.7959  -45.9144 H         1 UNK         0.0600 
    203 H203        1.8078  -24.8687  -47.4099 H         1 UNK         0.0600 
    204 H204        2.4284  -26.5103  -47.3350 H         1 UNK         0.0600 
    205 H205       -0.5625  -24.6801  -49.1487 H         1 UNK         0.3000 
    206 H206        0.1462  -26.0062  -51.6330 H         1 UNK         0.0600 
    207 H207        0.2479  -23.5330  -51.3511 H         1 UNK         0.0600 
    208 H208       -0.8528  -23.9726  -52.6453 H         1 UNK         0.0600 
    209 H209       -1.4903  -23.4798  -51.0818 H         1 UNK         0.0600 
    210 H210       -1.8770  -27.2722  -49.7073 H         1 UNK         0.3000 
    211 H211       -3.5628  -28.6658  -49.7676 H         1 UNK         0.0600 
    212 H212       -3.6322  -28.3998  -52.8180 H         1 UNK         0.0600 
    213 H213       -4.3497  -29.6827  -51.8569 H         1 UNK         0.0600 
    214 H214       -2.6030  -29.5130  -51.9173 H         1 UNK         0.0600 
    215 H215       -4.0860  -26.1917  -49.0084 H         1 UNK         0.3000 
    216 H216       -5.6577  -24.6966  -48.4736 H         1 UNK         0.0600 
    217 H217       -8.0039  -25.4471  -48.3362 H         1 UNK         0.0600 
    218 H218       -6.9295  -26.7264  -47.7946 H         1 UNK         0.0600 
    219 H219       -7.6713  -26.8133  -49.3914 H         1 UNK         0.0600 
    220 H220       -4.4523  -23.9069  -50.5764 H         1 UNK         0.3000 
    221 H221       -5.9410  -23.5611  -52.9885 H         1 UNK         0.0600 
    222 H222       -3.4461  -22.2070  -51.8633 H         1 UNK         0.0600 
    223 H223       -3.5281  -23.4911  -53.0619 H         1 UNK         0.0600 
    224 H224       -4.0682  -21.8718  -53.4745 H         1 UNK         0.0600 
    225 H225       -5.2671  -21.3063  -50.3078 H         1 UNK         0.3000 
    226 H226       -6.1274  -19.3763  -49.6034 H         1 UNK         0.0600 
    227 H227       -7.9866  -20.8386  -48.9580 H         1 UNK         0.0600 
    228 H228       -8.6372  -19.2866  -49.4525 H         1 UNK         0.0600 
    229 H229       -8.7494  -20.6765  -50.5322 H         1 UNK         0.0600 
    230 H230       -8.7419  -19.1588  -51.8854 H         1 UNK         0.3000 
    231 H231       -7.9162  -16.6331  -52.9369 H         1 UNK         0.0600 
    232 H232      -10.0661  -18.6012  -53.8907 H         1 UNK         0.0600 
    233 H233       -9.9222  -16.9234  -54.4015 H         1 UNK         0.0600 
    234 H234      -10.2981  -17.2957  -52.7268 H         1 UNK         0.0600 
    235 H235       -7.3010  -19.9469  -53.9964 H         1 UNK         0.3000 
    236 H236       -6.6053  -19.3207  -56.7247 H         1 UNK         0.0600 
    237 H237       -7.3694  -21.5874  -55.9635 H         1 UNK         0.0600 
    238 H238       -5.8276  -21.6440  -56.8032 H         1 UNK         0.0600 
    239 H239       -5.8713  -21.7769  -55.0544 H         1 UNK         0.0600 
    240 H240       -4.9420  -18.6863  -53.7835 H         1 UNK         0.3000 
    241 H241       -2.2434  -18.7835  -54.8107 H         1 UNK         0.0600 
    242 H242       -4.8602  -16.5276  -55.4989 H         1 UNK         0.3800 
    243 H243       -3.8245  -15.2837  -56.1504 H         1 UNK         0.3800 
    244 H244       -1.6366  -17.4471  -52.8299 H         1 UNK         0.0800 
    245 H245       -3.3142  -17.1631  -52.4565 H         1 UNK         0.0800 
    246 H246       -0.5002  -19.8125  -52.8077 H         1 UNK         0.0800 
    247 H247       -0.8791  -20.9181  -51.5138 H         1 UNK         0.0800 
@<TRIPOS>BOND
     1    1    2 1    
     2    1  127 1    
     3    1  128 1    
     4    1  129 1    
     5    2    3 2    
     6    2    4 am   BACKBONE|DICT|INTERRES
     7    4    5 1    
     8    4  130 1    
     9    5    6 1    
    10    5   65 1    
    11    5  131 1    
    12    6    7 1    
    13    6  132 1    
    14    6  133 1    
    15    7    8 1    
    16    8    9 1    
    17    8  134 1    
    18    8  135 1    
    19    9   10 ar   
    20    9   14 ar   
    21   10   11 ar   
    22   10  136 1    
    23   11   12 ar   
    24   11  126 1    
    25   12   13 ar   
    26   12  137 1    
    27   13   14 ar   
    28   13   15 1    
    29   14  138 1    
    30   15   16 1    
    31   15  139 1    
    32   15  140 1    
    33   16   17 1    
    34   17   18 1    
    35   17  141 1    
    36   17  142 1    
    37   18   19 1    
    38   18   67 1    
    39   18  143 1    
    40   19   20 am   BACKBONE|DICT|INTERRES
    41   19  144 1    
    42   20   21 2    
    43   20   22 1    
    44   22   23 1    
    45   22   24 1    
    46   22  145 1    
    47   23  146 1    
    48   23  147 1    
    49   23  148 1    
    50   24   25 am   BACKBONE|DICT|INTERRES
    51   24  149 1    
    52   25   26 2    
    53   25   27 1    
    54   27   28 1    
    55   27   29 1    
    56   27  150 1    
    57   28  151 1    
    58   28  152 1    
    59   28  153 1    
    60   29   30 am   BACKBONE|DICT|INTERRES
    61   29  154 1    
    62   30   31 2    
    63   30   32 1    
    64   32   33 1    
    65   32   34 1    
    66   32  155 1    
    67   33  156 1    
    68   33  157 1    
    69   33  158 1    
    70   34   35 am   BACKBONE|DICT|INTERRES
    71   34  159 1    
    72   35   36 2    
    73   35   37 1    
    74   37   38 1    
    75   37   39 1    
    76   37  160 1    
    77   38  161 1    
    78   38  162 1    
    79   38  163 1    
    80   39   40 am   BACKBONE|DICT|INTERRES
    81   39  164 1    
    82   40   41 2    
    83   40   42 1    
    84   42   43 1    
    85   42   44 1    
    86   42  165 1    
    87   43  166 1    
    88   43  167 1    
    89   43  168 1    
    90   44   45 am   BACKBONE|DICT|INTERRES
    91   44  169 1    
    92   45   46 2    
    93   45   47 1    
    94   47   48 1    
    95   47   49 1    
    96   47  170 1    
    97   48  171 1    
    98   48  172 1    
    99   48  173 1    
   100   49   50 am   BACKBONE|DICT|INTERRES
   101   49  174 1    
   102   50   51 2    
   103   50   52 1    
   104   52   53 1    
   105   52   54 1    
   106   52  175 1    
   107   53  176 1    
   108   53  177 1    
   109   53  178 1    
   110   54   55 am   BACKBONE|DICT|INTERRES
   111   54  179 1    
   112   55   56 2    
   113   55   57 1    
   114   57   58 1    
   115   57   59 1    
   116   57  180 1    
   117   58  181 1    
   118   58  182 1    
   119   58  183 1    
   120   59   60 am   BACKBONE|DICT|INTERRES
   121   59  184 1    
   122   60   61 2    
   123   60   62 1    
   124   62   63 1    
   125   62   64 1    
   126   62  185 1    
   127   63  186 1    
   128   63  187 1    
   129   63  188 1    
   130   64   65 am   BACKBONE|DICT|INTERRES
   131   64  189 1    
   132   65   66 2    
   133   67   68 2    
   134   67   69 am   BACKBONE|DICT|INTERRES
   135   69   70 1    
   136   69  190 1    
   137   70   71 1    
   138   70   72 1    
   139   70  191 1    
   140   71  192 1    
   141   71  193 1    
   142   71  194 1    
   143   72   73 2    
   144   72   74 am   BACKBONE|DICT|INTERRES
   145   74   75 1    
   146   74  195 1    
   147   75   76 1    
   148   75   77 1    
   149   75  196 1    
   150   76  197 1    
   151   76  198 1    
   152   76  199 1    
   153   77   78 2    
   154   77   79 am   BACKBONE|DICT|INTERRES
   155   79   80 1    
   156   79  200 1    
   157   80   81 1    
   158   80   82 1    
   159   80  201 1    
   160   81  202 1    
   161   81  203 1    
   162   81  204 1    
   163   82   83 2    
   164   82   84 am   BACKBONE|DICT|INTERRES
   165   84   85 1    
   166   84  205 1    
   167   85   86 1    
   168   85   87 1    
   169   85  206 1    
   170   86  207 1    
   171   86  208 1    
   172   86  209 1    
   173   87   88 2    
   174   87   89 am   BACKBONE|DICT|INTERRES
   175   89   90 1    
   176   89  210 1    
   177   90   91 1    
   178   90   92 1    
   179   90  211 1    
   180   91  212 1    
   181   91  213 1    
   182   91  214 1    
   183   92   93 2    
   184   92   94 am   BACKBONE|DICT|INTERRES
   185   94   95 1    
   186   94  215 1    
   187   95   96 1    
   188   95   97 1    
   189   95  216 1    
   190   96  217 1    
   191   96  218 1    
   192   96  219 1    
   193   97   98 2    
   194   97   99 am   BACKBONE|DICT|INTERRES
   195   99  100 1    
   196   99  220 1    
   197  100  101 1    
   198  100  102 1    
   199  100  221 1    
   200  101  222 1    
   201  101  223 1    
   202  101  224 1    
   203  102  103 2    
   204  102  104 am   BACKBONE|DICT|INTERRES
   205  104  105 1    
   206  104  225 1    
   207  105  106 1    
   208  105  107 1    
   209  105  226 1    
   210  106  227 1    
   211  106  228 1    
   212  106  229 1    
   213  107  108 2    
   214  107  109 am   BACKBONE|DICT|INTERRES
   215  109  110 1    
   216  109  230 1    
   217  110  111 1    
   218  110  112 1    
   219  110  231 1    
   220  111  232 1    
   221  111  233 1    
   222  111  234 1    
   223  112  113 2    
   224  112  114 am   BACKBONE|DICT|INTERRES
   225  114  115 1    
   226  114  235 1    
   227  115  116 1    
   228  115  117 1    
   229  115  236 1    
   230  116  237 1    
   231  116  238 1    
   232  116  239 1    
   233  117  118 2    
   234  117  119 am   BACKBONE|DICT|INTERRES
   235  119  120 1    
   236  119  240 1    
   237  120  121 1    
   238  120  124 1    
   239  120  241 1    
   240  121  122 am   BACKBONE|DICT|INTERRES
   241  121  123 2    
   242  122  242 1    
   243  122  243 1    
   244  124  125 1    
   245  124  244 1    
   246  124  245 1    
   247  125  126 1    
   248  126  246 1    
   249  126  247 1    
@<TRIPOS>SUBSTRUCTURE
     1 UNK         1 GROUP             0       ****    0 ROOT    
