@<TRIPOS>MOLECULE
3R540
247   249    1
SMALL
USER_CHARGES


@<TRIPOS>ATOM
      1 CA         -1.5603  -17.6635  -50.3958 C.3       0 UNK        -0.1800 
      2 C          -1.3194  -16.1745  -50.2523 C.2       0 UNK         0.5000 
      3 O          -2.2712  -15.4095  -50.0939 O.2       0 UNK        -0.5000 
      4 N          -0.0476  -15.7656  -50.2944 N.am      1 UNK        -0.5000 
      5 CA          0.3982  -14.3944  -50.0288 C.3       1 UNK         0.1400 
      6 C6          1.8716  -14.1744  -50.4511 C.3       23 UNK        -0.0398 
      7 S7          2.1618  -14.6154  -52.2027 S.3       23 UNK        -0.2404 
      8 C8          3.4258  -15.9229  -52.0834 C.3       23 UNK        -0.0205 
      9 C9          2.9024  -17.2031  -51.4451 C.ar      23 UNK        -0.0193 
     10 C10         2.2333  -18.1611  -52.2146 C.ar      23 UNK        -0.1150 
     11 C11         1.7992  -19.3603  -51.6376 C.ar      23 UNK        -0.0193 
     12 C12         2.0297  -19.5893  -50.2775 C.ar      23 UNK        -0.1150 
     13 C13         2.7011  -18.6419  -49.5000 C.ar      23 UNK        -0.0193 
     14 C14         3.1341  -17.4532  -50.0902 C.ar      23 UNK        -0.1150 
     15 C15         2.9931  -18.9010  -48.0307 C.3       23 UNK        -0.0205 
     16 S16         4.6157  -19.6948  -47.8155 S.3       23 UNK        -0.2404 
     17 C17         4.1709  -21.4650  -47.9141 C.3       23 UNK        -0.0398 
     18 CA          4.2200  -22.1492  -46.5250 C.3       11 UNK         0.1400 
     19 N           3.3189  -21.4982  -45.5706 N.am      11 UNK        -0.5000 
     20 C           3.6413  -21.0975  -44.3341 C.2       10 UNK         0.5000 
     21 O           4.7643  -21.2148  -43.8435 O.2       10 UNK        -0.5000 
     22 CA          2.5065  -20.4802  -43.4916 C.3       10 UNK         0.1400 
     23 CB          2.5976  -18.9486  -43.5344 C.3       10 UNK        -0.1800 
     24 N           1.1732  -20.8984  -43.9357 N.am      10 UNK        -0.5000 
     25 C           0.7064  -22.1547  -43.8532 C.2       9 UNK         0.5000 
     26 O           1.3354  -23.0789  -43.3378 O.2       9 UNK        -0.5000 
     27 CA         -0.6524  -22.4534  -44.5126 C.3       9 UNK         0.1400 
     28 CB         -1.7628  -22.5063  -43.4533 C.3       9 UNK        -0.1800 
     29 N          -1.0024  -21.5042  -45.5739 N.am      9 UNK        -0.5000 
     30 C          -0.3399  -21.4053  -46.7380 C.2       8 UNK         0.5000 
     31 O           0.6531  -22.0855  -47.0066 O.2       8 UNK        -0.5000 
     32 CA         -0.8262  -20.3502  -47.7542 C.3       8 UNK         0.1400 
     33 CB         -1.7791  -20.9888  -48.7725 C.3       8 UNK        -0.1800 
     34 N          -1.4583  -19.1775  -47.1445 N.am      8 UNK        -0.5000 
     35 C          -0.8278  -18.3390  -46.3075 C.2       7 UNK         0.5000 
     36 O           0.3468  -18.4860  -45.9693 O.2       7 UNK        -0.5000 
     37 CA         -1.6356  -17.1822  -45.6840 C.3       7 UNK         0.1400 
     38 CB         -3.0223  -16.9559  -46.3225 C.3       7 UNK        -0.1800 
     39 N          -1.7622  -17.3452  -44.2342 N.am      7 UNK        -0.5000 
     40 C          -2.2528  -18.4146  -43.5906 C.2       6 UNK         0.5000 
     41 O          -2.6714  -19.4250  -44.1551 O.2       6 UNK        -0.5000 
     42 CA         -2.2881  -18.3427  -42.0544 C.3       6 UNK         0.1400 
     43 CB         -0.9465  -18.7941  -41.4572 C.3       6 UNK        -0.1800 
     44 N          -2.6072  -17.0048  -41.5566 N.am      6 UNK        -0.5000 
     45 C          -3.8023  -16.4070  -41.6734 C.2       5 UNK         0.5000 
     46 O          -4.7863  -16.9425  -42.1843 O.2       5 UNK        -0.5000 
     47 CA         -3.9297  -14.9752  -41.1136 C.3       5 UNK         0.1400 
     48 CB         -4.6605  -14.9901  -39.7618 C.3       5 UNK        -0.1800 
     49 N          -2.6366  -14.3080  -40.9431 N.am      5 UNK        -0.5000 
     50 C          -1.8990  -13.8111  -41.9443 C.2       4 UNK         0.5000 
     51 O          -2.2762  -13.7954  -43.1186 O.2       4 UNK        -0.5000 
     52 CA         -0.5150  -13.2306  -41.5718 C.3       4 UNK         0.1400 
     53 CB          0.0724  -13.8130  -40.2658 C.3       4 UNK        -0.1800 
     54 N           0.4557  -13.3587  -42.6624 N.am      4 UNK        -0.5000 
     55 C           0.8639  -14.4869  -43.2600 C.2       3 UNK         0.5000 
     56 O           0.4733  -15.6148  -42.9479 O.2       3 UNK        -0.5000 
     57 CA          1.8346  -14.2920  -44.4417 C.3       3 UNK         0.1400 
     58 CB          2.4989  -15.6040  -44.8903 C.3       3 UNK        -0.1800 
     59 N           1.1226  -13.7208  -45.5800 N.am      3 UNK        -0.5000 
     60 C           0.7720  -12.4430  -45.7467 C.2       2 UNK         0.5000 
     61 O           1.1367  -11.5475  -44.9814 O.2       2 UNK        -0.5000 
     62 CA         -0.1684  -12.1230  -46.9368 C.3       2 UNK         0.1400 
     63 CB         -0.3549  -10.6087  -47.1446 C.3       2 UNK        -0.1800 
     64 N           0.1964  -12.7246  -48.2284 N.am      2 UNK        -0.5000 
     65 C           0.1694  -14.0271  -48.5439 C.2       1 UNK         0.5000 
     66 O          -0.0328  -14.9194  -47.7166 O.2       1 UNK        -0.5000 
     67 C           3.9186  -23.6630  -46.6156 C.2       11 UNK         0.5000 
     68 O           4.4132  -24.3235  -47.5300 O.2       11 UNK        -0.5000 
     69 N           3.1263  -24.1879  -45.6652 N.am      12 UNK        -0.5000 
     70 CA          2.7215  -25.5877  -45.5064 C.3       12 UNK         0.1400 
     71 CB          3.9393  -26.4750  -45.1717 C.3       12 UNK        -0.1800 
     72 C           1.8788  -26.1315  -46.6799 C.2       12 UNK         0.5000 
     73 O           1.9799  -27.3145  -47.0133 O.2       12 UNK        -0.5000 
     74 N           1.0468  -25.2675  -47.2786 N.am      13 UNK        -0.5000 
     75 CA          0.0658  -25.6430  -48.2982 C.3       13 UNK         0.1400 
     76 CB         -0.4187  -24.3718  -49.0091 C.3       13 UNK        -0.1800 
     77 C          -1.1328  -26.4101  -47.7012 C.2       13 UNK         0.5000 
     78 O          -1.2600  -26.5313  -46.4787 O.2       13 UNK        -0.5000 
     79 N          -2.0096  -26.8975  -48.5880 N.am      14 UNK        -0.5000 
     80 CA         -3.2727  -27.5573  -48.2599 C.3       14 UNK         0.1400 
     81 CB         -3.7962  -28.2756  -49.5164 C.3       14 UNK        -0.1800 
     82 C          -4.2978  -26.5554  -47.6876 C.2       14 UNK         0.5000 
     83 O          -5.1400  -26.0433  -48.4278 O.2       14 UNK        -0.5000 
     84 N          -4.1767  -26.2958  -46.3791 N.am      15 UNK        -0.5000 
     85 CA         -4.9402  -25.3465  -45.5634 C.3       15 UNK         0.1400 
     86 CB         -6.4546  -25.6458  -45.6234 C.3       15 UNK        -0.1800 
     87 C          -4.6150  -23.8724  -45.8843 C.2       15 UNK         0.5000 
     88 O          -3.7590  -23.5758  -46.7222 O.2       15 UNK        -0.5000 
     89 N          -5.2878  -22.9612  -45.1702 N.am      16 UNK        -0.5000 
     90 CA         -5.1215  -21.5100  -45.2606 C.3       16 UNK         0.1400 
     91 CB         -5.5947  -20.8759  -43.9398 C.3       16 UNK        -0.1800 
     92 C          -5.8317  -20.9221  -46.4958 C.2       16 UNK         0.5000 
     93 O          -6.7589  -20.1205  -46.3631 O.2       16 UNK        -0.5000 
     94 N          -5.3950  -21.3592  -47.6816 N.am      17 UNK        -0.5000 
     95 CA         -5.8327  -20.8543  -48.9807 C.3       17 UNK         0.1400 
     96 CB         -5.3199  -21.8024  -50.0761 C.3       17 UNK        -0.1800 
     97 C          -5.3493  -19.4121  -49.2327 C.2       17 UNK         0.5000 
     98 O          -4.3865  -18.9618  -48.6065 O.2       17 UNK        -0.5000 
     99 N          -6.0281  -18.7277  -50.1584 N.am      18 UNK        -0.5000 
    100 CA        -5.7008  -17.3777  -50.6130 C.3       18 UNK         0.1400 
    101 CB        -7.0178  -16.6275  -50.8755 C.3       18 UNK        -0.1800 
    102 C         -4.8458  -17.4201  -51.8918 C.2       18 UNK         0.5000 
    103 O         -4.7064  -18.4745  -52.5178 O.2       18 UNK        -0.5000 
    104 N         -4.3260  -16.2498  -52.2874 N.am      19 UNK        -0.5000 
    105 CA        -3.4589  -16.0346  -53.4526 C.3       19 UNK         0.1400 
    106 CB        -3.0584  -14.5532  -53.5154 C.3       19 UNK        -0.1800 
    107 C         -4.0572  -16.4844  -54.7993 C.2       19 UNK         0.5000 
    108 O         -3.3007  -16.7943  -55.7188 O.2       19 UNK        -0.5000 
    109 N         -5.3923  -16.5604  -54.8818 N.am      20 UNK        -0.5000 
    110 CA        -6.1370  -17.1082  -56.0162 C.3       20 UNK         0.1400 
    111 CB        -7.6384  -16.8858  -55.7788 C.3       20 UNK        -0.1800 
    112 C         -5.8484  -18.6004  -56.2860 C.2       20 UNK         0.5000 
    113 O         -5.9478  -19.0288  -57.4364 O.2       20 UNK        -0.5000 
    114 N         -5.4878  -19.3601  -55.2402 N.am      21 UNK        -0.5000 
    115 CA        -5.0662  -20.7565  -55.3540 C.3       21 UNK         0.1400 
    116 CB        -5.2996  -21.4732  -54.0152 C.3       21 UNK        -0.1800 
    117 C         -3.5905  -20.8710  -55.7761 C.2       21 UNK         0.5000 
    118 O         -3.2524  -21.7530  -56.5668 O.2       21 UNK        -0.5000 
    119 N         -2.7440  -19.9846  -55.2370 N.am      22 UNK        -0.5000 
    120 CA        -1.3011  -19.9263  -55.5207 C.3       22 UNK         0.1400 
    121 C         -0.9604  -19.3442  -56.9208 C.2       22 UNK         0.5000 
    122 N         -1.7064  -18.3719  -57.4279 N.am      22 UNK        -0.7600 
    123 O         -0.0085  -19.7867  -57.5578 O.2       22 UNK        -0.5000 
    124 C124       -0.5298  -19.1735  -54.4087 C.3       23 UNK        -0.0398 
    125 S125       -0.6252  -20.0541  -52.8110 S.3       23 UNK        -0.2404 
    126 C126        1.1236  -20.4345  -52.4805 C.3       23 UNK        -0.0205 
    127 H127       -2.2891  -17.9798  -49.6548 H         1 UNK         0.0600 
    128 H128       -0.6477  -18.2390  -50.2425 H         1 UNK         0.0600 
    129 H129       -1.9550  -17.8931  -51.3829 H         1 UNK         0.0600 
    130 H130        0.6893  -16.4427  -50.4328 H         1 UNK         0.3000 
    131 H131       -0.2267  -13.7278  -50.6271 H         1 UNK         0.0600 
    132 H132        2.1467  -13.1254  -50.3314 H         1 UNK         0.0800 
    133 H133        2.5479  -14.7321  -49.8040 H         1 UNK         0.0800 
    134 H134        3.7912  -16.1450  -53.0871 H         1 UNK         0.0800 
    135 H135        4.2864  -15.5436  -51.5299 H         1 UNK         0.0800 
    136 H136        2.0695  -17.9788  -53.2667 H         1 UNK         0.1150 
    137 H137        1.7065  -20.5187  -49.8316 H         1 UNK         0.1150 
    138 H138        3.6757  -16.7330  -49.4935 H         1 UNK         0.1150 
    139 H139        2.9830  -17.9592  -47.4795 H         1 UNK         0.0800 
    140 H140        2.2156  -19.5168  -47.5802 H         1 UNK         0.0800 
    141 H141        3.1851  -21.5839  -48.3647 H         1 UNK         0.0800 
    142 H142        4.8758  -21.9385  -48.5994 H         1 UNK         0.0800 
    143 H143        5.2482  -22.0755  -46.1652 H         1 UNK         0.0600 
    144 H144        2.3621  -21.3898  -45.8843 H         1 UNK         0.3000 
    145 H145        2.6368  -20.8063  -42.4578 H         1 UNK         0.0600 
    146 H146        1.7794  -18.4785  -42.9904 H         1 UNK         0.0600 
    147 H147        2.5742  -18.5788  -44.5596 H         1 UNK         0.0600 
    148 H148        3.5291  -18.6017  -43.0861 H         1 UNK         0.0600 
    149 H149        0.6225  -20.2020  -44.4224 H         1 UNK         0.3000 
    150 H150       -0.5822  -23.4434  -44.9693 H         1 UNK         0.0600 
    151 H151       -1.5500  -23.2734  -42.7078 H         1 UNK         0.0600 
    152 H152       -2.7249  -22.7508  -43.8981 H         1 UNK         0.0600 
    153 H153       -1.8674  -21.5614  -42.9226 H         1 UNK         0.0600 
    154 H154       -1.7562  -20.8552  -45.3750 H         1 UNK         0.3000 
    155 H155        0.0446  -19.9889  -48.2984 H         1 UNK         0.0600 
    156 H156       -1.2578  -21.7278  -49.3790 H         1 UNK         0.0600 
    157 H157       -2.1852  -20.2579  -49.4681 H         1 UNK         0.0600 
    158 H158       -2.6143  -21.4868  -48.2809 H         1 UNK         0.0600 
    159 H159       -2.4321  -19.0133  -47.3721 H         1 UNK         0.3000 
    160 H160       -1.0467  -16.2781  -45.8300 H         1 UNK         0.0600 
    161 H161       -3.6900  -17.8053  -46.1733 H         1 UNK         0.0600 
    162 H162       -2.9367  -16.7803  -47.3958 H         1 UNK         0.0600 
    163 H163       -3.5066  -16.0789  -45.8931 H         1 UNK         0.0600 
    164 H164       -1.3593  -16.6010  -43.6771 H         1 UNK         0.3000 
    165 H165       -3.0635  -19.0312  -41.7114 H         1 UNK         0.0600 
    166 H166       -1.0073  -18.8752  -40.3719 H         1 UNK         0.0600 
    167 H167       -0.6500  -19.7712  -41.8391 H         1 UNK         0.0600 
    168 H168       -0.1473  -18.0918  -41.6946 H         1 UNK         0.0600 
    169 H169       -1.8507  -16.4851  -41.1375 H         1 UNK         0.3000 
    170 H170       -4.5308  -14.3985  -41.8198 H         1 UNK         0.0600 
    171 H171       -5.6442  -15.4523  -39.8543 H         1 UNK         0.0600 
    172 H172       -4.1044  -15.5503  -39.0091 H         1 UNK         0.0600 
    173 H173       -4.8131  -13.9788  -39.3844 H         1 UNK         0.0600 
    174 H174       -2.2687  -14.2708  -40.0034 H         1 UNK         0.3000 
    175 H175       -0.6648  -12.1606  -41.4227 H         1 UNK         0.0600 
    176 H176        0.1546  -14.8999  -40.3047 H         1 UNK         0.0600 
    177 H177        1.0690  -13.4145  -40.0754 H         1 UNK         0.0600 
    178 H178       -0.5390  -13.5542  -39.4008 H         1 UNK         0.0600 
    179 H179        0.7711  -12.4864  -43.0711 H         1 UNK         0.3000 
    180 H180        2.6226  -13.6057  -44.1249 H         1 UNK         0.0600 
    181 H181        3.0449  -16.0646  -44.0666 H         1 UNK         0.0600 
    182 H182        3.2109  -15.4310  -45.6973 H         1 UNK         0.0600 
    183 H183        1.7626  -16.3251  -45.2458 H         1 UNK         0.0600 
    184 H184        0.7489  -14.3834  -46.2583 H         1 UNK         0.3000 
    185 H185       -1.1426  -12.5307  -46.6589 H         1 UNK         0.0600 
    186 H186       -0.7161  -10.1262  -46.2354 H         1 UNK         0.0600 
    187 H187        0.5814  -10.1246  -47.4251 H         1 UNK         0.0600 
    188 H188       -1.0873  -10.4034  -47.9257 H         1 UNK         0.0600 
    189 H189        0.4041  -12.0619  -48.9614 H         1 UNK         0.3000 
    190 H190        2.7683  -23.5606  -44.9557 H         1 UNK         0.3000 
    191 H191        2.0604  -25.6074  -44.6388 H         1 UNK         0.0600 
    192 H192        3.6261  -27.4836  -44.8999 H         1 UNK         0.0600 
    193 H193        4.4994  -26.0734  -44.3272 H         1 UNK         0.0600 
    194 H194        4.6225  -26.5625  -46.0169 H         1 UNK         0.0600 
    195 H195        1.0224  -24.3056  -46.9645 H         1 UNK         0.3000 
    196 H196        0.5580  -26.2863  -49.0306 H         1 UNK         0.0600 
    197 H197       -1.0678  -23.7894  -48.3553 H         1 UNK         0.0600 
    198 H198        0.4148  -23.7397  -49.3169 H         1 UNK         0.0600 
    199 H199       -0.9915  -24.6105  -49.9055 H         1 UNK         0.0600 
    200 H200       -1.8448  -26.7319  -49.5700 H         1 UNK         0.3000 
    201 H201       -3.0816  -28.3185  -47.5003 H         1 UNK         0.0600 
    202 H202       -4.7438  -28.7758  -49.3124 H         1 UNK         0.0600 
    203 H203       -3.0943  -29.0376  -49.8557 H         1 UNK         0.0600 
    204 H204       -3.9620  -27.5817  -50.3415 H         1 UNK         0.0600 
    205 H205       -3.3582  -26.6827  -45.9242 H         1 UNK         0.3000 
    206 H206       -4.6096  -25.5149  -44.5376 H         1 UNK         0.0600 
    207 H207       -6.6529  -26.7077  -45.4774 H         1 UNK         0.0600 
    208 H208       -6.9964  -25.1117  -44.8427 H         1 UNK         0.0600 
    209 H209       -6.8907  -25.3522  -46.5787 H         1 UNK         0.0600 
    210 H210       -5.9892  -23.2812  -44.5186 H         1 UNK         0.3000 
    211 H211       -4.0596  -21.2868  -45.3743 H         1 UNK         0.0600 
    212 H212       -6.6467  -21.0850  -43.7431 H         1 UNK         0.0600 
    213 H213       -5.4716  -19.7920  -43.9612 H         1 UNK         0.0600 
    214 H214       -5.0120  -21.2463  -43.0962 H         1 UNK         0.0600 
    215 H215       -4.6521  -22.0500  -47.6818 H         1 UNK         0.3000 
    216 H216       -6.9245  -20.8615  -48.9952 H         1 UNK         0.0600 
    217 H217       -5.6334  -22.8301  -49.8898 H         1 UNK         0.0600 
    218 H218       -4.2321  -21.7919  -50.1468 H         1 UNK         0.0600 
    219 H219       -5.7131  -21.5167  -51.0515 H         1 UNK         0.0600 
    220 H220       -6.7616  -19.1962  -50.6693 H         1 UNK         0.3000 
    221 H221       -5.1389  -16.8462  -49.8415 H         1 UNK         0.0600 
    222 H222       -7.6402  -16.6037  -49.9807 H         1 UNK         0.0600 
    223 H223       -6.8353  -15.5921  -51.1654 H         1 UNK         0.0600 
    224 H224       -7.5973  -17.0950  -51.6728 H         1 UNK         0.0600 
    225 H225       -4.4685  -15.4416  -51.6983 H         1 UNK         0.3000 
    226 H226       -2.5533  -16.6220  -53.2969 H         1 UNK         0.0600 
    227 H227       -2.5273  -14.2475  -52.6139 H         1 UNK         0.0600 
    228 H228       -2.3940  -14.3623  -54.3594 H         1 UNK         0.0600 
    229 H229       -3.9290  -13.9063  -53.6291 H         1 UNK         0.0600 
    230 H230       -5.9328  -16.2845  -54.0759 H         1 UNK         0.3000 
    231 H231       -5.8432  -16.5507  -56.9079 H         1 UNK         0.0600 
    232 H232       -8.2263  -17.2600  -56.6180 H         1 UNK         0.0600 
    233 H233       -7.8686  -15.8259  -55.6698 H         1 UNK         0.0600 
    234 H234       -7.9838  -17.3998  -54.8807 H         1 UNK         0.0600 
    235 H235       -5.3991  -18.9360  -54.3220 H         1 UNK         0.3000 
    236 H236       -5.6763  -21.2540  -56.1111 H         1 UNK         0.0600 
    237 H237       -4.6737  -21.0607  -53.2232 H         1 UNK         0.0600 
    238 H238       -6.3396  -21.3930  -53.6988 H         1 UNK         0.0600 
    239 H239       -5.0638  -22.5348  -54.0964 H         1 UNK         0.0600 
    240 H240       -3.1062  -19.2998  -54.5908 H         1 UNK         0.3000 
    241 H241       -0.9309  -20.9539  -55.5268 H         1 UNK         0.0600 
    242 H242       -2.4265  -17.9239  -56.8648 H         1 UNK         0.3800 
    243 H243       -1.4869  -18.0021  -58.3386 H         1 UNK         0.3800 
    244 H244       -0.9269  -18.1661  -54.2790 H         1 UNK         0.0800 
    245 H245        0.5163  -19.0485  -54.6909 H         1 UNK         0.0800 
    246 H246        1.6703  -20.5802  -53.4130 H         1 UNK         0.0800 
    247 H247        1.1670  -21.3938  -51.9626 H         1 UNK         0.0800 
@<TRIPOS>BOND
     1    1    2 1    
     2    1  127 1    
     3    1  128 1    
     4    1  129 1    
     5    2    3 2    
     6    2    4 am   BACKBONE|DICT|INTERRES
     7    4    5 1    
     8    4  130 1    
     9    5    6 1    
    10    5   65 1    
    11    5  131 1    
    12    6    7 1    
    13    6  132 1    
    14    6  133 1    
    15    7    8 1    
    16    8    9 1    
    17    8  134 1    
    18    8  135 1    
    19    9   10 ar   
    20    9   14 ar   
    21   10   11 ar   
    22   10  136 1    
    23   11   12 ar   
    24   11  126 1    
    25   12   13 ar   
    26   12  137 1    
    27   13   14 ar   
    28   13   15 1    
    29   14  138 1    
    30   15   16 1    
    31   15  139 1    
    32   15  140 1    
    33   16   17 1    
    34   17   18 1    
    35   17  141 1    
    36   17  142 1    
    37   18   19 1    
    38   18   67 1    
    39   18  143 1    
    40   19   20 am   BACKBONE|DICT|INTERRES
    41   19  144 1    
    42   20   21 2    
    43   20   22 1    
    44   22   23 1    
    45   22   24 1    
    46   22  145 1    
    47   23  146 1    
    48   23  147 1    
    49   23  148 1    
    50   24   25 am   BACKBONE|DICT|INTERRES
    51   24  149 1    
    52   25   26 2    
    53   25   27 1    
    54   27   28 1    
    55   27   29 1    
    56   27  150 1    
    57   28  151 1    
    58   28  152 1    
    59   28  153 1    
    60   29   30 am   BACKBONE|DICT|INTERRES
    61   29  154 1    
    62   30   31 2    
    63   30   32 1    
    64   32   33 1    
    65   32   34 1    
    66   32  155 1    
    67   33  156 1    
    68   33  157 1    
    69   33  158 1    
    70   34   35 am   BACKBONE|DICT|INTERRES
    71   34  159 1    
    72   35   36 2    
    73   35   37 1    
    74   37   38 1    
    75   37   39 1    
    76   37  160 1    
    77   38  161 1    
    78   38  162 1    
    79   38  163 1    
    80   39   40 am   BACKBONE|DICT|INTERRES
    81   39  164 1    
    82   40   41 2    
    83   40   42 1    
    84   42   43 1    
    85   42   44 1    
    86   42  165 1    
    87   43  166 1    
    88   43  167 1    
    89   43  168 1    
    90   44   45 am   BACKBONE|DICT|INTERRES
    91   44  169 1    
    92   45   46 2    
    93   45   47 1    
    94   47   48 1    
    95   47   49 1    
    96   47  170 1    
    97   48  171 1    
    98   48  172 1    
    99   48  173 1    
   100   49   50 am   BACKBONE|DICT|INTERRES
   101   49  174 1    
   102   50   51 2    
   103   50   52 1    
   104   52   53 1    
   105   52   54 1    
   106   52  175 1    
   107   53  176 1    
   108   53  177 1    
   109   53  178 1    
   110   54   55 am   BACKBONE|DICT|INTERRES
   111   54  179 1    
   112   55   56 2    
   113   55   57 1    
   114   57   58 1    
   115   57   59 1    
   116   57  180 1    
   117   58  181 1    
   118   58  182 1    
   119   58  183 1    
   120   59   60 am   BACKBONE|DICT|INTERRES
   121   59  184 1    
   122   60   61 2    
   123   60   62 1    
   124   62   63 1    
   125   62   64 1    
   126   62  185 1    
   127   63  186 1    
   128   63  187 1    
   129   63  188 1    
   130   64   65 am   BACKBONE|DICT|INTERRES
   131   64  189 1    
   132   65   66 2    
   133   67   68 2    
   134   67   69 am   BACKBONE|DICT|INTERRES
   135   69   70 1    
   136   69  190 1    
   137   70   71 1    
   138   70   72 1    
   139   70  191 1    
   140   71  192 1    
   141   71  193 1    
   142   71  194 1    
   143   72   73 2    
   144   72   74 am   BACKBONE|DICT|INTERRES
   145   74   75 1    
   146   74  195 1    
   147   75   76 1    
   148   75   77 1    
   149   75  196 1    
   150   76  197 1    
   151   76  198 1    
   152   76  199 1    
   153   77   78 2    
   154   77   79 am   BACKBONE|DICT|INTERRES
   155   79   80 1    
   156   79  200 1    
   157   80   81 1    
   158   80   82 1    
   159   80  201 1    
   160   81  202 1    
   161   81  203 1    
   162   81  204 1    
   163   82   83 2    
   164   82   84 am   BACKBONE|DICT|INTERRES
   165   84   85 1    
   166   84  205 1    
   167   85   86 1    
   168   85   87 1    
   169   85  206 1    
   170   86  207 1    
   171   86  208 1    
   172   86  209 1    
   173   87   88 2    
   174   87   89 am   BACKBONE|DICT|INTERRES
   175   89   90 1    
   176   89  210 1    
   177   90   91 1    
   178   90   92 1    
   179   90  211 1    
   180   91  212 1    
   181   91  213 1    
   182   91  214 1    
   183   92   93 2    
   184   92   94 am   BACKBONE|DICT|INTERRES
   185   94   95 1    
   186   94  215 1    
   187   95   96 1    
   188   95   97 1    
   189   95  216 1    
   190   96  217 1    
   191   96  218 1    
   192   96  219 1    
   193   97   98 2    
   194   97   99 am   BACKBONE|DICT|INTERRES
   195   99  100 1    
   196   99  220 1    
   197  100  101 1    
   198  100  102 1    
   199  100  221 1    
   200  101  222 1    
   201  101  223 1    
   202  101  224 1    
   203  102  103 2    
   204  102  104 am   BACKBONE|DICT|INTERRES
   205  104  105 1    
   206  104  225 1    
   207  105  106 1    
   208  105  107 1    
   209  105  226 1    
   210  106  227 1    
   211  106  228 1    
   212  106  229 1    
   213  107  108 2    
   214  107  109 am   BACKBONE|DICT|INTERRES
   215  109  110 1    
   216  109  230 1    
   217  110  111 1    
   218  110  112 1    
   219  110  231 1    
   220  111  232 1    
   221  111  233 1    
   222  111  234 1    
   223  112  113 2    
   224  112  114 am   BACKBONE|DICT|INTERRES
   225  114  115 1    
   226  114  235 1    
   227  115  116 1    
   228  115  117 1    
   229  115  236 1    
   230  116  237 1    
   231  116  238 1    
   232  116  239 1    
   233  117  118 2    
   234  117  119 am   BACKBONE|DICT|INTERRES
   235  119  120 1    
   236  119  240 1    
   237  120  121 1    
   238  120  124 1    
   239  120  241 1    
   240  121  122 am   BACKBONE|DICT|INTERRES
   241  121  123 2    
   242  122  242 1    
   243  122  243 1    
   244  124  125 1    
   245  124  244 1    
   246  124  245 1    
   247  125  126 1    
   248  126  246 1    
   249  126  247 1    
@<TRIPOS>SUBSTRUCTURE
     1 UNK         1 GROUP             0       ****    0 ROOT    
