@<TRIPOS>MOLECULE
3R540
247   249    1
SMALL
USER_CHARGES


@<TRIPOS>ATOM
      1 CA         -6.5211  -13.0369  -46.9921 C.3       0 UNK        -0.1800 
      2 C          -5.2913  -13.5484  -47.7285 C.2       0 UNK         0.5000 
      3 O          -4.6312  -12.7806  -48.4280 O.2       0 UNK        -0.5000 
      4 N          -4.9770  -14.8396  -47.5674 N.am      1 UNK        -0.5000 
      5 CA         -3.8256  -15.5111  -48.1861 C.3       1 UNK         0.1400 
      6 C6         -4.0849  -17.0330  -48.3482 C.3       23 UNK        -0.0398 
      7 S7         -4.1975  -17.9341  -46.7591 S.3       23 UNK        -0.2404 
      8 C8         -5.8479  -18.6873  -46.8096 C.3       23 UNK        -0.0205 
      9 C9         -5.8722  -19.9630  -47.6378 C.ar      23 UNK        -0.0193 
     10 C10        -6.5278  -19.9866  -48.8721 C.ar      23 UNK        -0.1150 
     11 C11        -6.6208  -21.1737  -49.6034 C.ar      23 UNK        -0.0193 
     12 C12        -6.0369  -22.3378  -49.0980 C.ar      23 UNK        -0.1150 
     13 C13        -5.3684  -22.3285  -47.8699 C.ar      23 UNK        -0.0193 
     14 C14        -5.2895  -21.1362  -47.1430 C.ar      23 UNK        -0.1150 
     15 C15        -4.7963  -23.6244  -47.3099 C.3       23 UNK        -0.0205 
     16 S16        -2.9934  -23.7572  -47.5427 S.3       23 UNK        -0.2404 
     17 C17        -2.3405  -23.1704  -45.9387 C.3       23 UNK        -0.0398 
     18 CA         -1.6048  -21.8149  -46.0505 C.3       11 UNK         0.1400 
     19 N          -1.7508  -21.0036  -44.8394 N.am      11 UNK        -0.5000 
     20 C          -1.5061  -19.6868  -44.7837 C.2       10 UNK         0.5000 
     21 O          -1.0673  -19.0602  -45.7484 O.2       10 UNK        -0.5000 
     22 CA         -1.6985  -18.9523  -43.4407 C.3       10 UNK         0.1400 
     23 CB         -2.5967  -17.7114  -43.5741 C.3       10 UNK        -0.1800 
     24 N          -2.1249  -19.7987  -42.3225 N.am      10 UNK        -0.5000 
     25 C          -3.2914  -20.4318  -42.1366 C.2       9 UNK         0.5000 
     26 O          -4.2597  -20.3429  -42.8921 O.2       9 UNK        -0.5000 
     27 CA         -3.3275  -21.3799  -40.9175 C.3       9 UNK         0.1400 
     28 CB         -4.5823  -22.2773  -40.8821 C.3       9 UNK        -0.1800 
     29 N          -2.1026  -22.1884  -40.8185 N.am      9 UNK        -0.5000 
     30 C          -1.6164  -23.0228  -41.7526 C.2       8 UNK         0.5000 
     31 O          -2.1971  -23.2775  -42.8072 O.2       8 UNK        -0.5000 
     32 CA         -0.2183  -23.6178  -41.4796 C.3       8 UNK         0.1400 
     33 CB          0.3983  -24.2974  -42.7213 C.3       8 UNK        -0.1800 
     34 N           0.7113  -22.6296  -40.9178 N.am      8 UNK        -0.5000 
     35 C           1.0814  -21.4664  -41.4731 C.2       7 UNK         0.5000 
     36 O           0.7183  -21.0792  -42.5875 O.2       7 UNK        -0.5000 
     37 CA          2.0157  -20.5880  -40.6206 C.3       7 UNK         0.1400 
     38 CB          3.4886  -20.8783  -40.9455 C.3       7 UNK        -0.1800 
     39 N           1.7630  -19.1569  -40.7911 N.am      7 UNK        -0.5000 
     40 C           0.6222  -18.5255  -40.4764 C.2       6 UNK         0.5000 
     41 O          -0.3648  -19.1042  -40.0188 O.2       6 UNK        -0.5000 
     42 CA          0.5646  -17.0004  -40.7056 C.3       6 UNK         0.1400 
     43 CB          0.3193  -16.2621  -39.3796 C.3       6 UNK        -0.1800 
     44 N           1.8004  -16.4881  -41.3065 N.am      6 UNK        -0.5000 
     45 C           1.9110  -16.0253  -42.5560 C.2       5 UNK         0.5000 
     46 O           0.9637  -15.8943  -43.3352 O.2       5 UNK        -0.5000 
     47 CA          3.3336  -15.6848  -43.0212 C.3       5 UNK         0.1400 
     48 CB          4.0849  -16.9705  -43.4266 C.3       5 UNK        -0.1800 
     49 N           3.2502  -14.7596  -44.1462 N.am      5 UNK        -0.5000 
     50 C           4.2595  -14.0502  -44.6650 C.2       4 UNK         0.5000 
     51 O           5.4163  -14.0949  -44.2445 O.2       4 UNK        -0.5000 
     52 CA          3.9209  -13.1233  -45.8479 C.3       4 UNK         0.1400 
     53 CB          4.0787  -13.8681  -47.1822 C.3       4 UNK        -0.1800 
     54 N           2.5702  -12.5657  -45.7617 N.am      4 UNK        -0.5000 
     55 C           2.1989  -11.5955  -44.9179 C.2       3 UNK         0.5000 
     56 O           2.9724  -11.0428  -44.1349 O.2       3 UNK        -0.5000 
     57 CA          0.7150  -11.1800  -44.9276 C.3       3 UNK         0.1400 
     58 CB          0.3948  -10.2492  -46.1133 C.3       3 UNK        -0.1800 
     59 N          -0.2218  -12.3092  -44.8459 N.am      3 UNK        -0.5000 
     60 C          -0.4921  -13.2613  -45.7513 C.2       2 UNK         0.5000 
     61 O           0.0455  -13.3067  -46.8581 O.2       2 UNK        -0.5000 
     62 CA         -1.4827  -14.3671  -45.3167 C.3       2 UNK         0.1400 
     63 CB         -2.1217  -14.1105  -43.9335 C.3       2 UNK        -0.1800 
     64 N          -2.5640  -14.5917  -46.2748 N.am      2 UNK        -0.5000 
     65 C          -2.4885  -15.2339  -47.4510 C.2       1 UNK         0.5000 
     66 O          -1.4426  -15.6499  -47.9472 O.2       1 UNK        -0.5000 
     67 C          -0.1326  -21.9695  -46.5046 C.2       11 UNK         0.5000 
     68 O           0.1072  -22.3011  -47.6666 O.2       11 UNK        -0.5000 
     69 N           0.8344  -21.6749  -45.6196 N.am      12 UNK        -0.5000 
     70 CA          2.2512  -21.5583  -45.9702 C.3       12 UNK         0.1400 
     71 CB          3.0984  -21.4872  -44.6935 C.3       12 UNK        -0.1800 
     72 C           2.5305  -20.3347  -46.8643 C.2       12 UNK         0.5000 
     73 O           3.3280  -20.4388  -47.7954 O.2       12 UNK        -0.5000 
     74 N           1.8394  -19.2150  -46.6006 N.am      13 UNK        -0.5000 
     75 CA          1.8847  -18.0031  -47.4240 C.3       13 UNK         0.1400 
     76 CB          1.3640  -16.8089  -46.6165 C.3       13 UNK        -0.1800 
     77 C           1.0946  -18.1702  -48.7336 C.2       13 UNK         0.5000 
     78 O           1.4985  -17.6257  -49.7613 O.2       13 UNK        -0.5000 
     79 N           0.0276  -18.9819  -48.6882 N.am      14 UNK        -0.5000 
     80 CA         -0.7290  -19.4356  -49.8576 C.3       14 UNK         0.1400 
     81 CB         -2.0327  -20.1024  -49.3870 C.3       14 UNK        -0.1800 
     82 C           0.0592  -20.4181  -50.7488 C.2       14 UNK         0.5000 
     83 O          -0.3756  -20.6810  -51.8706 O.2       14 UNK        -0.5000 
     84 N           1.1673  -20.9632  -50.2226 N.am      15 UNK        -0.5000 
     85 CA          2.0483  -21.9818  -50.7975 C.3       15 UNK         0.1400 
     86 CB          2.7995  -21.4310  -52.0242 C.3       15 UNK        -0.1800 
     87 C           1.2876  -23.2858  -51.0939 C.2       15 UNK         0.5000 
     88 O           1.3306  -23.7871  -52.2175 O.2       15 UNK        -0.5000 
     89 N           0.5486  -23.7744  -50.0868 N.am      16 UNK        -0.5000 
     90 CA         -0.3682  -24.9184  -50.1591 C.3       16 UNK         0.1400 
     91 CB          0.4007  -26.2351  -50.3967 C.3       16 UNK        -0.1800 
     92 C          -1.5050  -24.6808  -51.1772 C.2       16 UNK         0.5000 
     93 O          -1.8911  -25.5948  -51.9070 O.2       16 UNK        -0.5000 
     94 N          -1.9886  -23.4296  -51.2081 N.am      17 UNK        -0.5000 
     95 CA         -3.0392  -22.8703  -52.0655 C.3       17 UNK         0.1400 
     96 CB         -4.3216  -23.7195  -51.9826 C.3       17 UNK        -0.1800 
     97 C          -2.6121  -22.6188  -53.5281 C.2       17 UNK         0.5000 
     98 O          -3.4383  -22.1506  -54.3151 O.2       17 UNK        -0.5000 
     99 N          -1.3523  -22.9125  -53.8824 N.am      18 UNK        -0.5000 
    100 CA        -0.8324  -22.7928  -55.2444 C.3       18 UNK         0.1400 
    101 CB         0.4077  -23.6840  -55.4051 C.3       18 UNK        -0.1800 
    102 C         -0.5067  -21.3436  -55.6429 C.2       18 UNK         0.5000 
    103 O         -0.8075  -20.9518  -56.7704 O.2       18 UNK        -0.5000 
    104 N          0.0851  -20.5672  -54.7236 N.am      19 UNK        -0.5000 
    105 CA         0.4445  -19.1629  -54.9527 C.3       19 UNK         0.1400 
    106 CB         1.5888  -18.7421  -54.0184 C.3       19 UNK        -0.1800 
    107 C         -0.7653  -18.2322  -54.7822 C.2       19 UNK         0.5000 
    108 O         -0.8555  -17.2177  -55.4741 O.2       19 UNK        -0.5000 
    109 N         -1.6934  -18.6171  -53.8953 N.am      20 UNK        -0.5000 
    110 CA        -2.9992  -17.9733  -53.7378 C.3       20 UNK         0.1400 
    111 CB        -3.5944  -18.3800  -52.3838 C.3       20 UNK        -0.1800 
    112 C         -3.9720  -18.2956  -54.8932 C.2       20 UNK         0.5000 
    113 O         -4.9588  -17.5785  -55.0615 O.2       20 UNK        -0.5000 
    114 N         -3.6634  -19.3483  -55.6682 N.am      21 UNK        -0.5000 
    115 CA        -4.3928  -19.8588  -56.8319 C.3       21 UNK         0.1400 
    116 CB        -4.3340  -18.8501  -57.9977 C.3       21 UNK        -0.1800 
    117 C         -5.8253  -20.3000  -56.4740 C.2       21 UNK         0.5000 
    118 O         -6.7846  -19.9201  -57.1493 O.2       21 UNK        -0.5000 
    119 N         -5.9347  -21.0843  -55.3978 N.am      22 UNK        -0.5000 
    120 CA        -7.2015  -21.5425  -54.8082 C.3       22 UNK         0.1400 
    121 C         -7.2259  -23.0575  -54.4578 C.2       22 UNK         0.5000 
    122 N         -6.2181  -23.8396  -54.8261 N.am      22 UNK        -0.7600 
    123 O         -8.1899  -23.5428  -53.8720 O.2       22 UNK        -0.5000 
    124 C124       -7.6582  -20.6210  -53.6458 C.3       23 UNK        -0.0398 
    125 S125       -6.4529  -20.4842  -52.2784 S.3       23 UNK        -0.2404 
    126 C126       -7.3999  -21.2095  -50.9094 C.3       23 UNK        -0.0205 
    127 H127       -7.2487  -12.6463  -47.7035 H         1 UNK         0.0600 
    128 H128       -7.0029  -13.8238  -46.4110 H         1 UNK         0.0600 
    129 H129       -6.2433  -12.2327  -46.3107 H         1 UNK         0.0600 
    130 H130       -5.5477  -15.4229  -46.9717 H         1 UNK         0.3000 
    131 H131       -3.7048  -15.1041  -49.1924 H         1 UNK         0.0600 
    132 H132       -4.9947  -17.1946  -48.9273 H         1 UNK         0.0800 
    133 H133       -3.2847  -17.4785  -48.9391 H         1 UNK         0.0800 
    134 H134       -6.5758  -17.9622  -47.1764 H         1 UNK         0.0800 
    135 H135       -6.1472  -18.9273  -45.7883 H         1 UNK         0.0800 
    136 H136       -6.9900  -19.0878  -49.2553 H         1 UNK         0.1150 
    137 H137       -6.1318  -23.2616  -49.6488 H         1 UNK         0.1150 
    138 H138       -4.7917  -21.1224  -46.1831 H         1 UNK         0.1150 
    139 H139       -5.0643  -23.7260  -46.2577 H         1 UNK         0.0800 
    140 H140       -5.2601  -24.4762  -47.8094 H         1 UNK         0.0800 
    141 H141       -3.1765  -23.0796  -45.2451 H         1 UNK         0.0800 
    142 H142       -1.6944  -23.9391  -45.5109 H         1 UNK         0.0800 
    143 H143       -2.1094  -21.2433  -46.8288 H         1 UNK         0.0600 
    144 H144       -2.0580  -21.4876  -44.0043 H         1 UNK         0.3000 
    145 H145       -0.7021  -18.5965  -43.1772 H         1 UNK         0.0600 
    146 H146       -2.5871  -17.1198  -42.6591 H         1 UNK         0.0600 
    147 H147       -2.2476  -17.0718  -44.3838 H         1 UNK         0.0600 
    148 H148       -3.6307  -17.9729  -43.7960 H         1 UNK         0.0600 
    149 H149       -1.4053  -19.9580  -41.6262 H         1 UNK         0.3000 
    150 H150       -3.3518  -20.7412  -40.0332 H         1 UNK         0.0600 
    151 H151       -5.4905  -21.6750  -40.8397 H         1 UNK         0.0600 
    152 H152       -4.5802  -22.9229  -40.0041 H         1 UNK         0.0600 
    153 H153       -4.6539  -22.9126  -41.7655 H         1 UNK         0.0600 
    154 H154       -1.5364  -22.0206  -39.9985 H         1 UNK         0.3000 
    155 H155       -0.3572  -24.3858  -40.7175 H         1 UNK         0.0600 
    156 H156        1.3798  -24.7142  -42.4961 H         1 UNK         0.0600 
    157 H157        0.5140  -23.6012  -43.5514 H         1 UNK         0.0600 
    158 H158       -0.2299  -25.1178  -43.0703 H         1 UNK         0.0600 
    159 H159        1.0704  -22.8540  -40.0001 H         1 UNK         0.3000 
    160 H160        1.8440  -20.8266  -39.5689 H         1 UNK         0.0600 
    161 H161        3.7510  -20.5649  -41.9554 H         1 UNK         0.0600 
    162 H162        3.7081  -21.9438  -40.8646 H         1 UNK         0.0600 
    163 H163        4.1523  -20.3588  -40.2542 H         1 UNK         0.0600 
    164 H164        2.5042  -18.6219  -41.2137 H         1 UNK         0.3000 
    165 H165       -0.2886  -16.8103  -41.3598 H         1 UNK         0.0600 
    166 H166        1.1248  -16.4370  -38.6655 H         1 UNK         0.0600 
    167 H167        0.2393  -15.1866  -39.5386 H         1 UNK         0.0600 
    168 H168       -0.6110  -16.5894  -38.9134 H         1 UNK         0.0600 
    169 H169        2.6247  -16.5235  -40.7228 H         1 UNK         0.3000 
    170 H170        3.8606  -15.1915  -42.2020 H         1 UNK         0.0600 
    171 H171        4.1620  -17.6630  -42.5880 H         1 UNK         0.0600 
    172 H172        3.5806  -17.4966  -44.2377 H         1 UNK         0.0600 
    173 H173        5.1024  -16.7562  -43.7528 H         1 UNK         0.0600 
    174 H174        2.3161  -14.6495  -44.5190 H         1 UNK         0.3000 
    175 H175        4.6353  -12.2973  -45.8369 H         1 UNK         0.0600 
    176 H176        3.3886  -14.7074  -47.2610 H         1 UNK         0.0600 
    177 H177        3.8978  -13.2046  -48.0279 H         1 UNK         0.0600 
    178 H178        5.0893  -14.2641  -47.2903 H         1 UNK         0.0600 
    179 H179        1.8554  -12.9582  -46.3691 H         1 UNK         0.3000 
    180 H180        0.5501  -10.6031  -44.0162 H         1 UNK         0.0600 
    181 H181        1.0212   -9.3569  -46.0839 H         1 UNK         0.0600 
    182 H182        0.5671  -10.7324  -47.0752 H         1 UNK         0.0600 
    183 H183       -0.6434   -9.9186  -46.0852 H         1 UNK         0.0600 
    184 H184       -0.6950  -12.3897  -43.9566 H         1 UNK         0.3000 
    185 H185       -0.9045  -15.2889  -45.2474 H         1 UNK         0.0600 
    186 H186       -2.6490  -13.1561  -43.8981 H         1 UNK         0.0600 
    187 H187       -2.8474  -14.8822  -43.6809 H         1 UNK         0.0600 
    188 H188       -1.3702  -14.1157  -43.1425 H         1 UNK         0.0600 
    189 H189       -3.4781  -14.2762  -45.9888 H         1 UNK         0.3000 
    190 H190        0.5789  -21.4251  -44.6695 H         1 UNK         0.3000 
    191 H191        2.5408  -22.4551  -46.5220 H         1 UNK         0.0600 
    192 H192        4.1628  -21.4818  -44.9309 H         1 UNK         0.0600 
    193 H193        2.9126  -22.3432  -44.0445 H         1 UNK         0.0600 
    194 H194        2.8849  -20.5798  -44.1282 H         1 UNK         0.0600 
    195 H195        1.1424  -19.2289  -45.8674 H         1 UNK         0.3000 
    196 H196        2.9246  -17.8000  -47.6890 H         1 UNK         0.0600 
    197 H197        1.3343  -15.9045  -47.2249 H         1 UNK         0.0600 
    198 H198        2.0037  -16.6087  -45.7611 H         1 UNK         0.0600 
    199 H199        0.3542  -16.9804  -46.2477 H         1 UNK         0.0600 
    200 H200       -0.2776  -19.3146  -47.7817 H         1 UNK         0.3000 
    201 H201       -0.9756  -18.5565  -50.4548 H         1 UNK         0.0600 
    202 H202       -2.4721  -19.5849  -48.5364 H         1 UNK         0.0600 
    203 H203       -1.8763  -21.1400  -49.0941 H         1 UNK         0.0600 
    204 H204       -2.7784  -20.1074  -50.1797 H         1 UNK         0.0600 
    205 H205        1.4023  -20.6878  -49.2793 H         1 UNK         0.3000 
    206 H206        2.7889  -22.2170  -50.0319 H         1 UNK         0.0600 
    207 H207        3.2731  -20.4742  -51.8039 H         1 UNK         0.0600 
    208 H208        3.5837  -22.1200  -52.3391 H         1 UNK         0.0600 
    209 H209        2.1327  -21.2931  -52.8735 H         1 UNK         0.0600 
    210 H210        0.5284  -23.2571  -49.2090 H         1 UNK         0.3000 
    211 H211       -0.8420  -24.9916  -49.1801 H         1 UNK         0.0600 
    212 H212        0.8498  -26.2727  -51.3895 H         1 UNK         0.0600 
    213 H213       -0.2644  -27.0948  -50.3081 H         1 UNK         0.0600 
    214 H214        1.1962  -26.3643  -49.6629 H         1 UNK         0.0600 
    215 H215       -1.5526  -22.7644  -50.5869 H         1 UNK         0.3000 
    216 H216       -3.2708  -21.8922  -51.6448 H         1 UNK         0.0600 
    217 H217       -4.2691  -24.5976  -52.6268 H         1 UNK         0.0600 
    218 H218       -5.1900  -23.1405  -52.2904 H         1 UNK         0.0600 
    219 H219       -4.5034  -24.0668  -50.9669 H         1 UNK         0.0600 
    220 H220       -0.7148  -23.2649  -53.1798 H         1 UNK         0.3000 
    221 H221       -1.5957  -23.1632  -55.9323 H         1 UNK         0.0600 
    222 H222        1.2434  -23.3264  -54.8031 H         1 UNK         0.0600 
    223 H223        0.1979  -24.7128  -55.1116 H         1 UNK         0.0600 
    224 H224        0.7404  -23.7020  -56.4436 H         1 UNK         0.0600 
    225 H225        0.2080  -20.9229  -53.7811 H         1 UNK         0.3000 
    226 H226        0.8013  -19.0535  -55.9792 H         1 UNK         0.0600 
    227 H227        2.4826  -19.3389  -54.1984 H         1 UNK         0.0600 
    228 H228        1.8621  -17.6995  -54.1851 H         1 UNK         0.0600 
    229 H229        1.3174  -18.8410  -52.9677 H         1 UNK         0.0600 
    230 H230       -1.5141  -19.4477  -53.3450 H         1 UNK         0.3000 
    231 H231       -2.8556  -16.8908  -53.7303 H         1 UNK         0.0600 
    232 H232       -3.6692  -19.4634  -52.2936 H         1 UNK         0.0600 
    233 H233       -2.9866  -18.0091  -51.5601 H         1 UNK         0.0600 
    234 H234       -4.5955  -17.9673  -52.2530 H         1 UNK         0.0600 
    235 H235       -2.8460  -19.8830  -55.4127 H         1 UNK         0.3000 
    236 H236       -3.8660  -20.7596  -57.1505 H         1 UNK         0.0600 
    237 H237       -3.3037  -18.5841  -58.2344 H         1 UNK         0.0600 
    238 H238       -4.7759  -19.2720  -58.9011 H         1 UNK         0.0600 
    239 H239       -4.8734  -17.9307  -57.7683 H         1 UNK         0.0600 
    240 H240       -5.0907  -21.3534  -54.8981 H         1 UNK         0.3000 
    241 H241       -7.9738  -21.4670  -55.5756 H         1 UNK         0.0600 
    242 H242       -5.4137  -23.4571  -55.2978 H         1 UNK         0.3800 
    243 H243       -6.2533  -24.8229  -54.6108 H         1 UNK         0.3800 
    244 H244       -8.6280  -20.9415  -53.2620 H         1 UNK         0.0800 
    245 H245       -7.8216  -19.6148  -54.0338 H         1 UNK         0.0800 
    246 H246       -7.6713  -22.2349  -51.1661 H         1 UNK         0.0800 
    247 H247       -8.3359  -20.6626  -50.7861 H         1 UNK         0.0800 
@<TRIPOS>BOND
     1    1    2 1    
     2    1  127 1    
     3    1  128 1    
     4    1  129 1    
     5    2    3 2    
     6    2    4 am   BACKBONE|DICT|INTERRES
     7    4    5 1    
     8    4  130 1    
     9    5    6 1    
    10    5   65 1    
    11    5  131 1    
    12    6    7 1    
    13    6  132 1    
    14    6  133 1    
    15    7    8 1    
    16    8    9 1    
    17    8  134 1    
    18    8  135 1    
    19    9   10 ar   
    20    9   14 ar   
    21   10   11 ar   
    22   10  136 1    
    23   11   12 ar   
    24   11  126 1    
    25   12   13 ar   
    26   12  137 1    
    27   13   14 ar   
    28   13   15 1    
    29   14  138 1    
    30   15   16 1    
    31   15  139 1    
    32   15  140 1    
    33   16   17 1    
    34   17   18 1    
    35   17  141 1    
    36   17  142 1    
    37   18   19 1    
    38   18   67 1    
    39   18  143 1    
    40   19   20 am   BACKBONE|DICT|INTERRES
    41   19  144 1    
    42   20   21 2    
    43   20   22 1    
    44   22   23 1    
    45   22   24 1    
    46   22  145 1    
    47   23  146 1    
    48   23  147 1    
    49   23  148 1    
    50   24   25 am   BACKBONE|DICT|INTERRES
    51   24  149 1    
    52   25   26 2    
    53   25   27 1    
    54   27   28 1    
    55   27   29 1    
    56   27  150 1    
    57   28  151 1    
    58   28  152 1    
    59   28  153 1    
    60   29   30 am   BACKBONE|DICT|INTERRES
    61   29  154 1    
    62   30   31 2    
    63   30   32 1    
    64   32   33 1    
    65   32   34 1    
    66   32  155 1    
    67   33  156 1    
    68   33  157 1    
    69   33  158 1    
    70   34   35 am   BACKBONE|DICT|INTERRES
    71   34  159 1    
    72   35   36 2    
    73   35   37 1    
    74   37   38 1    
    75   37   39 1    
    76   37  160 1    
    77   38  161 1    
    78   38  162 1    
    79   38  163 1    
    80   39   40 am   BACKBONE|DICT|INTERRES
    81   39  164 1    
    82   40   41 2    
    83   40   42 1    
    84   42   43 1    
    85   42   44 1    
    86   42  165 1    
    87   43  166 1    
    88   43  167 1    
    89   43  168 1    
    90   44   45 am   BACKBONE|DICT|INTERRES
    91   44  169 1    
    92   45   46 2    
    93   45   47 1    
    94   47   48 1    
    95   47   49 1    
    96   47  170 1    
    97   48  171 1    
    98   48  172 1    
    99   48  173 1    
   100   49   50 am   BACKBONE|DICT|INTERRES
   101   49  174 1    
   102   50   51 2    
   103   50   52 1    
   104   52   53 1    
   105   52   54 1    
   106   52  175 1    
   107   53  176 1    
   108   53  177 1    
   109   53  178 1    
   110   54   55 am   BACKBONE|DICT|INTERRES
   111   54  179 1    
   112   55   56 2    
   113   55   57 1    
   114   57   58 1    
   115   57   59 1    
   116   57  180 1    
   117   58  181 1    
   118   58  182 1    
   119   58  183 1    
   120   59   60 am   BACKBONE|DICT|INTERRES
   121   59  184 1    
   122   60   61 2    
   123   60   62 1    
   124   62   63 1    
   125   62   64 1    
   126   62  185 1    
   127   63  186 1    
   128   63  187 1    
   129   63  188 1    
   130   64   65 am   BACKBONE|DICT|INTERRES
   131   64  189 1    
   132   65   66 2    
   133   67   68 2    
   134   67   69 am   BACKBONE|DICT|INTERRES
   135   69   70 1    
   136   69  190 1    
   137   70   71 1    
   138   70   72 1    
   139   70  191 1    
   140   71  192 1    
   141   71  193 1    
   142   71  194 1    
   143   72   73 2    
   144   72   74 am   BACKBONE|DICT|INTERRES
   145   74   75 1    
   146   74  195 1    
   147   75   76 1    
   148   75   77 1    
   149   75  196 1    
   150   76  197 1    
   151   76  198 1    
   152   76  199 1    
   153   77   78 2    
   154   77   79 am   BACKBONE|DICT|INTERRES
   155   79   80 1    
   156   79  200 1    
   157   80   81 1    
   158   80   82 1    
   159   80  201 1    
   160   81  202 1    
   161   81  203 1    
   162   81  204 1    
   163   82   83 2    
   164   82   84 am   BACKBONE|DICT|INTERRES
   165   84   85 1    
   166   84  205 1    
   167   85   86 1    
   168   85   87 1    
   169   85  206 1    
   170   86  207 1    
   171   86  208 1    
   172   86  209 1    
   173   87   88 2    
   174   87   89 am   BACKBONE|DICT|INTERRES
   175   89   90 1    
   176   89  210 1    
   177   90   91 1    
   178   90   92 1    
   179   90  211 1    
   180   91  212 1    
   181   91  213 1    
   182   91  214 1    
   183   92   93 2    
   184   92   94 am   BACKBONE|DICT|INTERRES
   185   94   95 1    
   186   94  215 1    
   187   95   96 1    
   188   95   97 1    
   189   95  216 1    
   190   96  217 1    
   191   96  218 1    
   192   96  219 1    
   193   97   98 2    
   194   97   99 am   BACKBONE|DICT|INTERRES
   195   99  100 1    
   196   99  220 1    
   197  100  101 1    
   198  100  102 1    
   199  100  221 1    
   200  101  222 1    
   201  101  223 1    
   202  101  224 1    
   203  102  103 2    
   204  102  104 am   BACKBONE|DICT|INTERRES
   205  104  105 1    
   206  104  225 1    
   207  105  106 1    
   208  105  107 1    
   209  105  226 1    
   210  106  227 1    
   211  106  228 1    
   212  106  229 1    
   213  107  108 2    
   214  107  109 am   BACKBONE|DICT|INTERRES
   215  109  110 1    
   216  109  230 1    
   217  110  111 1    
   218  110  112 1    
   219  110  231 1    
   220  111  232 1    
   221  111  233 1    
   222  111  234 1    
   223  112  113 2    
   224  112  114 am   BACKBONE|DICT|INTERRES
   225  114  115 1    
   226  114  235 1    
   227  115  116 1    
   228  115  117 1    
   229  115  236 1    
   230  116  237 1    
   231  116  238 1    
   232  116  239 1    
   233  117  118 2    
   234  117  119 am   BACKBONE|DICT|INTERRES
   235  119  120 1    
   236  119  240 1    
   237  120  121 1    
   238  120  124 1    
   239  120  241 1    
   240  121  122 am   BACKBONE|DICT|INTERRES
   241  121  123 2    
   242  122  242 1    
   243  122  243 1    
   244  124  125 1    
   245  124  244 1    
   246  124  245 1    
   247  125  126 1    
   248  126  246 1    
   249  126  247 1    
@<TRIPOS>SUBSTRUCTURE
     1 UNK         1 GROUP             0       ****    0 ROOT    
