@<TRIPOS>MOLECULE
3R540
247   249    1
SMALL
USER_CHARGES


@<TRIPOS>ATOM
      1 CA          2.9004  -16.7598  -51.4106 C.3       0 UNK        -0.1800 
      2 C           3.8941  -16.1138  -50.4546 C.2       0 UNK         0.5000 
      3 O           5.1008  -16.1584  -50.6961 O.2       0 UNK        -0.5000 
      4 N           3.3892  -15.5272  -49.3656 N.am      1 UNK        -0.5000 
      5 CA          4.1625  -14.8175  -48.3448 C.3       1 UNK         0.1400 
      6 C6          3.3773  -14.7481  -47.0111 C.3       23 UNK        -0.0398 
      7 S7          1.7878  -13.8524  -47.1468 S.3       23 UNK        -0.2404 
      8 C8          0.6113  -15.0812  -46.5242 C.3       23 UNK        -0.0205 
      9 C9          0.1723  -16.0488  -47.6084 C.ar      23 UNK        -0.0193 
     10 C10        -0.9706  -15.7699  -48.3608 C.ar      23 UNK        -0.1150 
     11 C11        -1.4361  -16.6815  -49.3108 C.ar      23 UNK        -0.0193 
     12 C12        -0.7416  -17.8755  -49.5168 C.ar      23 UNK        -0.1150 
     13 C13         0.4101  -18.1590  -48.7767 C.ar      23 UNK        -0.0193 
     14 C14         0.8632  -17.2444  -47.8225 C.ar      23 UNK        -0.1150 
     15 C15         1.1544  -19.4614  -48.9991 C.3       23 UNK        -0.0205 
     16 S16         0.6764  -20.6922  -47.7528 S.3       23 UNK        -0.2404 
     17 C17         1.1212  -22.2180  -48.6380 C.3       23 UNK        -0.0398 
     18 CA          0.8388  -23.5312  -47.8719 C.3       11 UNK         0.1400 
     19 N           1.6516  -23.6837  -46.6614 N.am      11 UNK        -0.5000 
     20 C           1.9298  -24.8723  -46.1064 C.2       10 UNK         0.5000 
     21 O           1.5029  -25.9428  -46.5398 O.2       10 UNK        -0.5000 
     22 CA          2.8044  -24.8639  -44.8411 C.3       10 UNK         0.1400 
     23 CB          4.2617  -24.5158  -45.1816 C.3       10 UNK        -0.1800 
     24 N           2.3090  -23.9459  -43.8173 N.am      10 UNK        -0.5000 
     25 C           1.1364  -24.0765  -43.1819 C.2       9 UNK         0.5000 
     26 O           0.3352  -24.9842  -43.3974 O.2       9 UNK        -0.5000 
     27 CA          0.7792  -22.9844  -42.1579 C.3       9 UNK         0.1400 
     28 CB          1.3754  -23.3191  -40.7825 C.3       9 UNK        -0.1800 
     29 N           1.1984  -21.6376  -42.5553 N.am      9 UNK        -0.5000 
     30 C           0.8020  -21.0180  -43.6741 C.2       8 UNK         0.5000 
     31 O           0.1136  -21.5534  -44.5457 O.2       8 UNK        -0.5000 
     32 CA          1.2756  -19.5663  -43.8566 C.3       8 UNK         0.1400 
     33 CB          2.5967  -19.5118  -44.6395 C.3       8 UNK        -0.1800 
     34 N           0.2660  -18.7746  -44.5552 N.am      8 UNK        -0.5000 
     35 C          -0.8825  -18.3707  -43.9995 C.2       7 UNK         0.5000 
     36 O          -1.1916  -18.5822  -42.8234 O.2       7 UNK        -0.5000 
     37 CA         -1.8549  -17.6141  -44.9225 C.3       7 UNK         0.1400 
     38 CB         -2.8585  -18.5850  -45.5642 C.3       7 UNK        -0.1800 
     39 N          -2.5789  -16.5433  -44.2322 N.am      7 UNK        -0.5000 
     40 C          -2.0082  -15.4851  -43.6391 C.2       6 UNK         0.5000 
     41 O          -0.7926  -15.2714  -43.6195 O.2       6 UNK        -0.5000 
     42 CA         -2.9582  -14.4987  -42.9468 C.3       6 UNK         0.1400 
     43 CB         -3.4568  -15.0551  -41.6009 C.3       6 UNK        -0.1800 
     44 N          -2.2546  -13.2387  -42.7261 N.am      6 UNK        -0.5000 
     45 C          -2.8239  -12.0313  -42.6554 C.2       5 UNK         0.5000 
     46 O          -4.0388  -11.8485  -42.7477 O.2       5 UNK        -0.5000 
     47 CA         -1.8990  -10.8163  -42.4313 C.3       5 UNK         0.1400 
     48 CB         -1.9919  -10.3387  -40.9732 C.3       5 UNK        -0.1800 
     49 N          -0.4876  -11.0449  -42.7594 N.am      5 UNK        -0.5000 
     50 C          -0.0015  -11.1833  -43.9992 C.2       4 UNK         0.5000 
     51 O          -0.7094  -11.2204  -45.0090 O.2       4 UNK        -0.5000 
     52 CA          1.5325  -11.3079  -44.1138 C.3       4 UNK         0.1400 
     53 CB          1.9991  -12.7091  -43.6864 C.3       4 UNK        -0.1800 
     54 N           1.9943  -11.0396  -45.4776 N.am      4 UNK        -0.5000 
     55 C           2.0553   -9.8214  -46.0310 C.2       3 UNK         0.5000 
     56 O           1.8644   -8.7797  -45.3988 O.2       3 UNK        -0.5000 
     57 CA          2.3710   -9.7709  -47.5430 C.3       3 UNK         0.1400 
     58 CB          2.4929   -8.3312  -48.0856 C.3       3 UNK        -0.1800 
     59 N           3.5439  -10.5625  -47.9338 N.am      3 UNK        -0.5000 
     60 C           4.8076  -10.4279  -47.5050 C.2       2 UNK         0.5000 
     61 O           5.1554   -9.6207  -46.6414 O.2       2 UNK        -0.5000 
     62 CA          5.8534  -11.3642  -48.1573 C.3       2 UNK         0.1400 
     63 CB          7.2643  -11.1845  -47.5674 C.3       2 UNK        -0.1800 
     64 N           5.4719  -12.7728  -48.0351 N.am      2 UNK        -0.5000 
     65 C           4.5814  -13.4047  -48.8103 C.2       1 UNK         0.5000 
     66 O           4.0436  -12.8766  -49.7880 O.2       1 UNK        -0.5000 
     67 C          -0.6622  -23.7695  -47.6081 C.2       11 UNK         0.5000 
     68 O          -1.3651  -24.2110  -48.5184 O.2       11 UNK        -0.5000 
     69 N          -1.1217  -23.5204  -46.3735 N.am      12 UNK        -0.5000 
     70 CA         -2.4590  -23.8772  -45.9068 C.3       12 UNK         0.1400 
     71 CB         -2.7446  -23.1903  -44.5635 C.3       12 UNK        -0.1800 
     72 C          -2.6420  -25.4026  -45.8070 C.2       12 UNK         0.5000 
     73 O          -3.6275  -25.9235  -46.3286 O.2       12 UNK        -0.5000 
     74 N          -1.6751  -26.0974  -45.1871 N.am      13 UNK        -0.5000 
     75 CA         -1.6592  -27.5573  -45.0439 C.3       13 UNK         0.1400 
     76 CB         -0.5314  -27.9747  -44.0885 C.3       13 UNK        -0.1800 
     77 C          -1.5263  -28.2961  -46.3877 C.2       13 UNK         0.5000 
     78 O          -2.1710  -29.3275  -46.5804 O.2       13 UNK        -0.5000 
     79 N          -0.7230  -27.7386  -47.3041 N.am      14 UNK        -0.5000 
     80 CA         -0.5619  -28.2241  -48.6771 C.3       14 UNK         0.1400 
     81 CB          0.7071  -27.5983  -49.2769 C.3       14 UNK        -0.1800 
     82 C          -1.7757  -27.9293  -49.5836 C.2       14 UNK         0.5000 
     83 O          -1.8414  -28.4719  -50.6868 O.2       14 UNK        -0.5000 
     84 N          -2.6864  -27.0572  -49.1226 N.am      15 UNK        -0.5000 
     85 CA         -3.8639  -26.5268  -49.8193 C.3       15 UNK         0.1400 
     86 CB         -4.8623  -27.6482  -50.1717 C.3       15 UNK        -0.1800 
     87 C          -3.5146  -25.6359  -51.0307 C.2       15 UNK         0.5000 
     88 O          -4.3762  -25.3768  -51.8694 O.2       15 UNK        -0.5000 
     89 N          -2.2729  -25.1383  -51.0812 N.am      16 UNK        -0.5000 
     90 CA         -1.7766  -24.2101  -52.0939 C.3       16 UNK         0.1400 
     91 CB         -0.2415  -24.2028  -52.0611 C.3       16 UNK        -0.1800 
     92 C          -2.3467  -22.7938  -51.9037 C.2       16 UNK         0.5000 
     93 O          -2.5956  -22.1061  -52.8929 O.2       16 UNK        -0.5000 
     94 N          -2.5922  -22.4022  -50.6435 N.am      17 UNK        -0.5000 
     95 CA         -3.3063  -21.1708  -50.2965 C.3       17 UNK         0.1400 
     96 CB         -3.1656  -20.8959  -48.7925 C.3       17 UNK        -0.1800 
     97 C          -4.7931  -21.2420  -50.6952 C.2       17 UNK         0.5000 
     98 O          -5.3487  -20.2650  -51.2026 O.2       17 UNK        -0.5000 
     99 N          -5.4019  -22.4154  -50.4742 N.am      18 UNK        -0.5000 
    100 CA        -6.8035  -22.7105  -50.7735 C.3       18 UNK         0.1400 
    101 CB        -7.2102  -24.0011  -50.0463 C.3       18 UNK        -0.1800 
    102 C         -7.0999  -22.8210  -52.2808 C.2       18 UNK         0.5000 
    103 O         -8.2374  -22.5815  -52.6881 O.2       18 UNK        -0.5000 
    104 N         -6.0822  -23.1538  -53.0871 N.am      19 UNK        -0.5000 
    105 CA        -6.1305  -23.2858  -54.5460 C.3       19 UNK         0.1400 
    106 CB        -4.9275  -24.1285  -55.0069 C.3       19 UNK        -0.1800 
    107 C         -6.2157  -21.9241  -55.2732 C.2       19 UNK         0.5000 
    108 O         -5.3941  -21.6283  -56.1420 O.2       19 UNK        -0.5000 
    109 N         -7.2142  -21.1179  -54.8899 N.am      20 UNK        -0.5000 
    110 CA        -7.5984  -19.8071  -55.4255 C.3       20 UNK         0.1400 
    111 CB        -8.0177  -19.9257  -56.9058 C.3       20 UNK        -0.1800 
    112 C         -6.5735  -18.6734  -55.2033 C.2       20 UNK         0.5000 
    113 O         -6.7765  -17.5783  -55.7309 O.2       20 UNK        -0.5000 
    114 N         -5.5115  -18.9209  -54.4229 N.am      21 UNK        -0.5000 
    115 CA        -4.5043  -17.9176  -54.0749 C.3       21 UNK         0.1400 
    116 CB        -3.2224  -18.6086  -53.5896 C.3       21 UNK        -0.1800 
    117 C         -5.0408  -16.9218  -53.0319 C.2       21 UNK         0.5000 
    118 O         -4.8887  -15.7133  -53.2138 O.2       21 UNK        -0.5000 
    119 N         -5.6923  -17.4449  -51.9866 N.am      22 UNK        -0.5000 
    120 CA        -6.3985  -16.6636  -50.9591 C.3       22 UNK         0.1400 
    121 C         -7.4636  -17.4633  -50.1571 C.2       22 UNK         0.5000 
    122 N         -7.4885  -18.7896  -50.1946 N.am      22 UNK        -0.7600 
    123 O         -8.3144  -16.8620  -49.5068 O.2       22 UNK        -0.5000 
    124 C124       -5.4557  -15.8449  -50.0353 C.3       23 UNK        -0.0398 
    125 S125       -4.1851  -16.8382  -49.1742 S.3       23 UNK        -0.2404 
    126 C126       -2.6925  -16.3685  -50.1028 C.3       23 UNK        -0.0205 
    127 H127        1.8705  -16.6153  -51.0824 H         1 UNK         0.0600 
    128 H128        3.0870  -17.8315  -51.4784 H         1 UNK         0.0600 
    129 H129        3.0028  -16.3296  -52.4068 H         1 UNK         0.0600 
    130 H130        2.3871  -15.4886  -49.2412 H         1 UNK         0.3000 
    131 H131        5.0794  -15.3823  -48.1630 H         1 UNK         0.0600 
    132 H132        3.2042  -15.7595  -46.6443 H         1 UNK         0.0800 
    133 H133        3.9715  -14.2671  -46.2326 H         1 UNK         0.0800 
    134 H134        1.0340  -15.6182  -45.6737 H         1 UNK         0.0800 
    135 H135       -0.2585  -14.5473  -46.1389 H         1 UNK         0.0800 
    136 H136       -1.5137  -14.8506  -48.1911 H         1 UNK         0.1150 
    137 H137       -1.1018  -18.5865  -50.2466 H         1 UNK         0.1150 
    138 H138        1.7426  -17.4756  -47.2388 H         1 UNK         0.1150 
    139 H139        0.9436  -19.8406  -50.0003 H         1 UNK         0.0800 
    140 H140        2.2315  -19.2936  -48.9519 H         1 UNK         0.0800 
    141 H141        2.1803  -22.1685  -48.8947 H         1 UNK         0.0800 
    142 H142        0.5852  -22.2210  -49.5878 H         1 UNK         0.0800 
    143 H143        1.1421  -24.3300  -48.5515 H         1 UNK         0.0600 
    144 H144        1.9767  -22.8349  -46.2219 H         1 UNK         0.3000 
    145 H145        2.7870  -25.8725  -44.4222 H         1 UNK         0.0600 
    146 H146        4.9031  -24.6080  -44.3049 H         1 UNK         0.0600 
    147 H147        4.6560  -25.1899  -45.9432 H         1 UNK         0.0600 
    148 H148        4.3584  -23.4981  -45.5617 H         1 UNK         0.0600 
    149 H149        2.8952  -23.1583  -43.5845 H         1 UNK         0.3000 
    150 H150       -0.3083  -22.9722  -42.0612 H         1 UNK         0.0600 
    151 H151        2.4659  -23.3070  -40.8017 H         1 UNK         0.0600 
    152 H152        1.0638  -24.3112  -40.4529 H         1 UNK         0.0600 
    153 H153        1.0443  -22.6085  -40.0249 H         1 UNK         0.0600 
    154 H154        1.7740  -21.1351  -41.8951 H         1 UNK         0.3000 
    155 H155        1.4408  -19.1220  -42.8726 H         1 UNK         0.0600 
    156 H156        2.5056  -19.9634  -45.6265 H         1 UNK         0.0600 
    157 H157        3.3860  -20.0458  -44.1092 H         1 UNK         0.0600 
    158 H158        2.9342  -18.4837  -44.7722 H         1 UNK         0.0600 
    159 H159        0.4055  -18.6466  -45.5466 H         1 UNK         0.3000 
    160 H160       -1.2797  -17.1517  -45.7205 H         1 UNK         0.0600 
    161 H161       -2.3401  -19.3791  -46.1042 H         1 UNK         0.0600 
    162 H162       -3.4996  -18.0735  -46.2824 H         1 UNK         0.0600 
    163 H163       -3.4956  -19.0586  -44.8165 H         1 UNK         0.0600 
    164 H164       -3.5802  -16.6535  -44.1718 H         1 UNK         0.3000 
    165 H165       -3.8085  -14.3292  -43.6110 H         1 UNK         0.0600 
    166 H166       -4.1479  -14.3639  -41.1182 H         1 UNK         0.0600 
    167 H167       -3.9857  -15.9993  -41.7358 H         1 UNK         0.0600 
    168 H168       -2.6301  -15.2370  -40.9130 H         1 UNK         0.0600 
    169 H169       -1.2459  -13.3195  -42.7095 H         1 UNK         0.3000 
    170 H170       -2.2661  -10.0127  -43.0732 H         1 UNK         0.0600 
    171 H171       -1.4169   -9.4255  -40.8186 H         1 UNK         0.0600 
    172 H172       -3.0243  -10.1200  -40.6971 H         1 UNK         0.0600 
    173 H173       -1.6200  -11.0933  -40.2789 H         1 UNK         0.0600 
    174 H174        0.1553  -11.0424  -41.9804 H         1 UNK         0.3000 
    175 H175        1.9900  -10.5748  -43.4460 H         1 UNK         0.0600 
    176 H176        1.8104  -12.8767  -42.6256 H         1 UNK         0.0600 
    177 H177        1.4766  -13.4943  -44.2318 H         1 UNK         0.0600 
    178 H178        3.0691  -12.8396  -43.8489 H         1 UNK         0.0600 
    179 H179        2.1126  -11.8471  -46.0748 H         1 UNK         0.3000 
    180 H180        1.5166  -10.2327  -48.0402 H         1 UNK         0.0600 
    181 H181        3.3143   -7.7890  -47.6162 H         1 UNK         0.0600 
    182 H182        1.5792   -7.7649  -47.9012 H         1 UNK         0.0600 
    183 H183        2.6620   -8.3290  -49.1624 H         1 UNK         0.0600 
    184 H184        3.3770  -11.2759  -48.6357 H         1 UNK         0.3000 
    185 H185        5.9044  -11.0990  -49.2154 H         1 UNK         0.0600 
    186 H186        7.6086  -10.1558  -47.6812 H         1 UNK         0.0600 
    187 H187        7.2909  -11.4254  -46.5039 H         1 UNK         0.0600 
    188 H188        7.9875  -11.8236  -48.0743 H         1 UNK         0.0600 
    189 H189        5.8526  -13.2576  -47.2353 H         1 UNK         0.3000 
    190 H190       -0.5090  -23.0666  -45.7025 H         1 UNK         0.3000 
    191 H191       -3.1824  -23.5034  -46.6338 H         1 UNK         0.0600 
    192 H192       -2.6791  -22.1058  -44.6557 H         1 UNK         0.0600 
    193 H193       -3.7481  -23.4277  -44.2086 H         1 UNK         0.0600 
    194 H194       -2.0400  -23.5023  -43.7927 H         1 UNK         0.0600 
    195 H195       -0.9047  -25.5976  -44.7513 H         1 UNK         0.3000 
    196 H196       -2.6090  -27.8574  -44.5965 H         1 UNK         0.0600 
    197 H197       -0.4987  -29.0583  -43.9691 H         1 UNK         0.0600 
    198 H198       -0.6758  -27.5440  -43.0976 H         1 UNK         0.0600 
    199 H199        0.4447  -27.6536  -44.4546 H         1 UNK         0.0600 
    200 H200       -0.1613  -26.9359  -47.0363 H         1 UNK         0.3000 
    201 H201       -0.4287  -29.3075  -48.6477 H         1 UNK         0.0600 
    202 H202        0.8973  -27.9805  -50.2806 H         1 UNK         0.0600 
    203 H203        1.5848  -27.8265  -48.6719 H         1 UNK         0.0600 
    204 H204        0.6219  -26.5142  -49.3504 H         1 UNK         0.0600 
    205 H205       -2.5360  -26.6740  -48.1980 H         1 UNK         0.3000 
    206 H206       -4.3561  -25.8681  -49.1027 H         1 UNK         0.0600 
    207 H207       -5.0927  -28.2586  -49.2985 H         1 UNK         0.0600 
    208 H208       -5.8040  -27.2350  -50.5344 H         1 UNK         0.0600 
    209 H209       -4.4774  -28.3063  -50.9509 H         1 UNK         0.0600 
    210 H210       -1.6682  -25.3115  -50.2881 H         1 UNK         0.3000 
    211 H211       -2.0950  -24.5663  -53.0761 H         1 UNK         0.0600 
    212 H212        0.1399  -23.9406  -51.0754 H         1 UNK         0.0600 
    213 H213        0.1638  -23.4858  -52.7763 H         1 UNK         0.0600 
    214 H214        0.1590  -25.1830  -52.3206 H         1 UNK         0.0600 
    215 H215       -2.3291  -23.0210  -49.8839 H         1 UNK         0.3000 
    216 H216       -2.8443  -20.3411  -50.8321 H         1 UNK         0.0600 
    217 H217       -3.6673  -19.9670  -48.5179 H         1 UNK         0.0600 
    218 H218       -2.1203  -20.7915  -48.5077 H         1 UNK         0.0600 
    219 H219       -3.5986  -21.6947  -48.1905 H         1 UNK         0.0600 
    220 H220       -4.8598  -23.1660  -50.0761 H         1 UNK         0.3000 
    221 H221       -7.4122  -21.8939  -50.3800 H         1 UNK         0.0600 
    222 H222       -6.6447  -24.8612  -50.4043 H         1 UNK         0.0600 
    223 H223       -7.0516  -23.9170  -48.9710 H         1 UNK         0.0600 
    224 H224       -8.2677  -24.2187  -50.2017 H         1 UNK         0.0600 
    225 H225       -5.1955  -23.3760  -52.6550 H         1 UNK         0.3000 
    226 H226       -7.0355  -23.8382  -54.8068 H         1 UNK         0.0600 
    227 H227       -4.9496  -24.2895  -56.0854 H         1 UNK         0.0600 
    228 H228       -3.9813  -23.6436  -54.7650 H         1 UNK         0.0600 
    229 H229       -4.9307  -25.1114  -54.5360 H         1 UNK         0.0600 
    230 H230       -7.8029  -21.4682  -54.1374 H         1 UNK         0.3000 
    231 H231       -8.4840  -19.5122  -54.8609 H         1 UNK         0.0600 
    232 H232       -7.1687  -20.1541  -57.5506 H         1 UNK         0.0600 
    233 H233       -8.4578  -18.9951  -57.2658 H         1 UNK         0.0600 
    234 H234       -8.7643  -20.7080  -57.0431 H         1 UNK         0.0600 
    235 H235       -5.4084  -19.8401  -54.0185 H         1 UNK         0.3000 
    236 H236       -4.2524  -17.3543  -54.9761 H         1 UNK         0.0600 
    237 H237       -2.8294  -19.2884  -54.3459 H         1 UNK         0.0600 
    238 H238       -2.4430  -17.8780  -53.3709 H         1 UNK         0.0600 
    239 H239       -3.3960  -19.1854  -52.6844 H         1 UNK         0.0600 
    240 H240       -5.7312  -18.4525  -51.8864 H         1 UNK         0.3000 
    241 H241       -6.9958  -15.9346  -51.5104 H         1 UNK         0.0600 
    242 H242       -6.7485  -19.3270  -50.6375 H         1 UNK         0.3800 
    243 H243       -8.2056  -19.2694  -49.6755 H         1 UNK         0.3800 
    244 H244       -4.9719  -15.0595  -50.6156 H         1 UNK         0.0800 
    245 H245       -6.0338  -15.3112  -49.2792 H         1 UNK         0.0800 
    246 H246       -2.6825  -16.8911  -51.0594 H         1 UNK         0.0800 
    247 H247       -2.7110  -15.3022  -50.3323 H         1 UNK         0.0800 
@<TRIPOS>BOND
     1    1    2 1    
     2    1  127 1    
     3    1  128 1    
     4    1  129 1    
     5    2    3 2    
     6    2    4 am   BACKBONE|DICT|INTERRES
     7    4    5 1    
     8    4  130 1    
     9    5    6 1    
    10    5   65 1    
    11    5  131 1    
    12    6    7 1    
    13    6  132 1    
    14    6  133 1    
    15    7    8 1    
    16    8    9 1    
    17    8  134 1    
    18    8  135 1    
    19    9   10 ar   
    20    9   14 ar   
    21   10   11 ar   
    22   10  136 1    
    23   11   12 ar   
    24   11  126 1    
    25   12   13 ar   
    26   12  137 1    
    27   13   14 ar   
    28   13   15 1    
    29   14  138 1    
    30   15   16 1    
    31   15  139 1    
    32   15  140 1    
    33   16   17 1    
    34   17   18 1    
    35   17  141 1    
    36   17  142 1    
    37   18   19 1    
    38   18   67 1    
    39   18  143 1    
    40   19   20 am   BACKBONE|DICT|INTERRES
    41   19  144 1    
    42   20   21 2    
    43   20   22 1    
    44   22   23 1    
    45   22   24 1    
    46   22  145 1    
    47   23  146 1    
    48   23  147 1    
    49   23  148 1    
    50   24   25 am   BACKBONE|DICT|INTERRES
    51   24  149 1    
    52   25   26 2    
    53   25   27 1    
    54   27   28 1    
    55   27   29 1    
    56   27  150 1    
    57   28  151 1    
    58   28  152 1    
    59   28  153 1    
    60   29   30 am   BACKBONE|DICT|INTERRES
    61   29  154 1    
    62   30   31 2    
    63   30   32 1    
    64   32   33 1    
    65   32   34 1    
    66   32  155 1    
    67   33  156 1    
    68   33  157 1    
    69   33  158 1    
    70   34   35 am   BACKBONE|DICT|INTERRES
    71   34  159 1    
    72   35   36 2    
    73   35   37 1    
    74   37   38 1    
    75   37   39 1    
    76   37  160 1    
    77   38  161 1    
    78   38  162 1    
    79   38  163 1    
    80   39   40 am   BACKBONE|DICT|INTERRES
    81   39  164 1    
    82   40   41 2    
    83   40   42 1    
    84   42   43 1    
    85   42   44 1    
    86   42  165 1    
    87   43  166 1    
    88   43  167 1    
    89   43  168 1    
    90   44   45 am   BACKBONE|DICT|INTERRES
    91   44  169 1    
    92   45   46 2    
    93   45   47 1    
    94   47   48 1    
    95   47   49 1    
    96   47  170 1    
    97   48  171 1    
    98   48  172 1    
    99   48  173 1    
   100   49   50 am   BACKBONE|DICT|INTERRES
   101   49  174 1    
   102   50   51 2    
   103   50   52 1    
   104   52   53 1    
   105   52   54 1    
   106   52  175 1    
   107   53  176 1    
   108   53  177 1    
   109   53  178 1    
   110   54   55 am   BACKBONE|DICT|INTERRES
   111   54  179 1    
   112   55   56 2    
   113   55   57 1    
   114   57   58 1    
   115   57   59 1    
   116   57  180 1    
   117   58  181 1    
   118   58  182 1    
   119   58  183 1    
   120   59   60 am   BACKBONE|DICT|INTERRES
   121   59  184 1    
   122   60   61 2    
   123   60   62 1    
   124   62   63 1    
   125   62   64 1    
   126   62  185 1    
   127   63  186 1    
   128   63  187 1    
   129   63  188 1    
   130   64   65 am   BACKBONE|DICT|INTERRES
   131   64  189 1    
   132   65   66 2    
   133   67   68 2    
   134   67   69 am   BACKBONE|DICT|INTERRES
   135   69   70 1    
   136   69  190 1    
   137   70   71 1    
   138   70   72 1    
   139   70  191 1    
   140   71  192 1    
   141   71  193 1    
   142   71  194 1    
   143   72   73 2    
   144   72   74 am   BACKBONE|DICT|INTERRES
   145   74   75 1    
   146   74  195 1    
   147   75   76 1    
   148   75   77 1    
   149   75  196 1    
   150   76  197 1    
   151   76  198 1    
   152   76  199 1    
   153   77   78 2    
   154   77   79 am   BACKBONE|DICT|INTERRES
   155   79   80 1    
   156   79  200 1    
   157   80   81 1    
   158   80   82 1    
   159   80  201 1    
   160   81  202 1    
   161   81  203 1    
   162   81  204 1    
   163   82   83 2    
   164   82   84 am   BACKBONE|DICT|INTERRES
   165   84   85 1    
   166   84  205 1    
   167   85   86 1    
   168   85   87 1    
   169   85  206 1    
   170   86  207 1    
   171   86  208 1    
   172   86  209 1    
   173   87   88 2    
   174   87   89 am   BACKBONE|DICT|INTERRES
   175   89   90 1    
   176   89  210 1    
   177   90   91 1    
   178   90   92 1    
   179   90  211 1    
   180   91  212 1    
   181   91  213 1    
   182   91  214 1    
   183   92   93 2    
   184   92   94 am   BACKBONE|DICT|INTERRES
   185   94   95 1    
   186   94  215 1    
   187   95   96 1    
   188   95   97 1    
   189   95  216 1    
   190   96  217 1    
   191   96  218 1    
   192   96  219 1    
   193   97   98 2    
   194   97   99 am   BACKBONE|DICT|INTERRES
   195   99  100 1    
   196   99  220 1    
   197  100  101 1    
   198  100  102 1    
   199  100  221 1    
   200  101  222 1    
   201  101  223 1    
   202  101  224 1    
   203  102  103 2    
   204  102  104 am   BACKBONE|DICT|INTERRES
   205  104  105 1    
   206  104  225 1    
   207  105  106 1    
   208  105  107 1    
   209  105  226 1    
   210  106  227 1    
   211  106  228 1    
   212  106  229 1    
   213  107  108 2    
   214  107  109 am   BACKBONE|DICT|INTERRES
   215  109  110 1    
   216  109  230 1    
   217  110  111 1    
   218  110  112 1    
   219  110  231 1    
   220  111  232 1    
   221  111  233 1    
   222  111  234 1    
   223  112  113 2    
   224  112  114 am   BACKBONE|DICT|INTERRES
   225  114  115 1    
   226  114  235 1    
   227  115  116 1    
   228  115  117 1    
   229  115  236 1    
   230  116  237 1    
   231  116  238 1    
   232  116  239 1    
   233  117  118 2    
   234  117  119 am   BACKBONE|DICT|INTERRES
   235  119  120 1    
   236  119  240 1    
   237  120  121 1    
   238  120  124 1    
   239  120  241 1    
   240  121  122 am   BACKBONE|DICT|INTERRES
   241  121  123 2    
   242  122  242 1    
   243  122  243 1    
   244  124  125 1    
   245  124  244 1    
   246  124  245 1    
   247  125  126 1    
   248  126  246 1    
   249  126  247 1    
@<TRIPOS>SUBSTRUCTURE
     1 UNK         1 GROUP             0       ****    0 ROOT    
