@<TRIPOS>MOLECULE
3R540
247   249    1
SMALL
USER_CHARGES


@<TRIPOS>ATOM
      1 CA          4.0215  -16.3715  -48.4754 C.3       0 UNK        -0.1800 
      2 C           3.4372  -15.3646  -47.4954 C.2       0 UNK         0.5000 
      3 O           3.1545  -15.7205  -46.3537 O.2       0 UNK        -0.5000 
      4 N           3.2716  -14.1121  -47.9385 N.am      1 UNK        -0.5000 
      5 CA          2.7884  -12.9841  -47.1261 C.3       1 UNK         0.1400 
      6 C6          1.8691  -12.0386  -47.9429 C.3       23 UNK        -0.0398 
      7 S7          0.3254  -12.8567  -48.4650 S.3       23 UNK        -0.2404 
      8 C8          0.6833  -13.2760  -50.1989 C.3       23 UNK        -0.0205 
      9 C9          0.0492  -14.6047  -50.5779 C.ar      23 UNK        -0.0193 
     10 C10        -1.2916  -14.6651  -50.9645 C.ar      23 UNK        -0.1150 
     11 C11        -1.8789  -15.8868  -51.3083 C.ar      23 UNK        -0.0193 
     12 C12        -1.1126  -17.0570  -51.2657 C.ar      23 UNK        -0.1150 
     13 C13         0.2339  -17.0061  -50.8895 C.ar      23 UNK        -0.0193 
     14 C14         0.8064  -15.7780  -50.5472 C.ar      23 UNK        -0.1150 
     15 C15         1.0876  -18.2645  -50.8688 C.3       23 UNK        -0.0205 
     16 S16         1.1106  -19.0355  -49.2206 S.3       23 UNK        -0.2404 
     17 C17        -0.3716  -20.0923  -49.2879 C.3       23 UNK        -0.0398 
     18 CA         -0.2274  -21.3365  -48.3785 C.3       11 UNK         0.1400 
     19 N          -0.0399  -21.0101  -46.9615 N.am      11 UNK        -0.5000 
     20 C           0.4326  -21.8761  -46.0554 C.2       10 UNK         0.5000 
     21 O           0.7518  -23.0357  -46.3219 O.2       10 UNK        -0.5000 
     22 CA          0.5437  -21.3737  -44.6066 C.3       10 UNK         0.1400 
     23 CB          1.6743  -20.3416  -44.4672 C.3       10 UNK        -0.1800 
     24 N          -0.6980  -20.8086  -44.0774 N.am      10 UNK        -0.5000 
     25 C          -1.8377  -21.4899  -43.8906 C.2       9 UNK         0.5000 
     26 O          -2.0168  -22.6426  -44.2803 O.2       9 UNK        -0.5000 
     27 CA         -2.9688  -20.7606  -43.1488 C.3       9 UNK         0.1400 
     28 CB         -2.5973  -20.5129  -41.6774 C.3       9 UNK        -0.1800 
     29 N          -3.2461  -19.4868  -43.8017 N.am      9 UNK        -0.5000 
     30 C          -4.3528  -19.2084  -44.5027 C.2       8 UNK         0.5000 
     31 O          -5.3441  -19.9375  -44.5258 O.2       8 UNK        -0.5000 
     32 CA         -4.3666  -17.9007  -45.3250 C.3       8 UNK         0.1400 
     33 CB         -5.3182  -16.8722  -44.6950 C.3       8 UNK        -0.1800 
     34 N          -3.0526  -17.2775  -45.4992 N.am      8 UNK        -0.5000 
     35 C          -2.0127  -17.8176  -46.1498 C.2       7 UNK         0.5000 
     36 O          -2.0539  -18.9080  -46.7178 O.2       7 UNK        -0.5000 
     37 CA         -0.6807  -17.0459  -46.0759 C.3       7 UNK         0.1400 
     38 CB         -0.5774  -16.0706  -47.2516 C.3       7 UNK        -0.1800 
     39 N          -0.4907  -16.3166  -44.8148 N.am      7 UNK        -0.5000 
     40 C          -0.5147  -16.8684  -43.5944 C.2       6 UNK         0.5000 
     41 O          -0.6441  -18.0791  -43.4026 O.2       6 UNK        -0.5000 
     42 CA         -0.4113  -15.9071  -42.3971 C.3       6 UNK         0.1400 
     43 CB         -0.9581  -16.5377  -41.1033 C.3       6 UNK        -0.1800 
     44 N           0.9649  -15.4791  -42.1650 N.am      6 UNK        -0.5000 
     45 C           1.6020  -14.5253  -42.8530 C.2       5 UNK         0.5000 
     46 O           1.1096  -13.9279  -43.8144 O.2       5 UNK        -0.5000 
     47 CA          3.0266  -14.1898  -42.3682 C.3       5 UNK         0.1400 
     48 CB          4.0651  -15.0913  -43.0492 C.3       5 UNK        -0.1800 
     49 N           3.3818  -12.7891  -42.5962 N.am      5 UNK        -0.5000 
     50 C           2.7948  -11.7443  -41.9939 C.2       4 UNK         0.5000 
     51 O           1.9313  -11.8632  -41.1218 O.2       4 UNK        -0.5000 
     52 CA          3.2474  -10.3365  -42.4410 C.3       4 UNK         0.1400 
     53 CB          2.9309   -9.2381  -41.4037 C.3       4 UNK        -0.1800 
     54 N           4.6537  -10.2814  -42.8529 N.am      4 UNK        -0.5000 
     55 C           5.7398  -10.5252  -42.1016 C.2       3 UNK         0.5000 
     56 O           5.6975  -10.7734  -40.8955 O.2       3 UNK        -0.5000 
     57 CA          7.1029  -10.4868  -42.8333 C.3       3 UNK         0.1400 
     58 CB          8.1686  -11.3738  -42.1551 C.3       3 UNK        -0.1800 
     59 N           7.0078  -10.7931  -44.2688 N.am      3 UNK        -0.5000 
     60 C           6.5525  -11.9291  -44.8161 C.2       2 UNK         0.5000 
     61 O           6.1954  -12.9146  -44.1688 O.2       2 UNK        -0.5000 
     62 CA          6.4476  -11.9501  -46.3516 C.3       2 UNK         0.1400 
     63 CB          7.6435  -12.6952  -46.9632 C.3       2 UNK        -0.1800 
     64 N           5.2078  -12.5734  -46.8196 N.am      2 UNK        -0.5000 
     65 C           3.9602  -12.1907  -46.5024 C.2       1 UNK         0.5000 
     66 O           3.7149  -11.2346  -45.7639 O.2       1 UNK        -0.5000 
     67 C          -1.4268  -22.2781  -48.5564 C.2       11 UNK         0.5000 
     68 O          -1.3568  -23.1976  -49.3716 O.2       11 UNK        -0.5000 
     69 N          -2.4876  -22.0534  -47.7669 N.am      12 UNK        -0.5000 
     70 CA         -3.6973  -22.8723  -47.7516 C.3       12 UNK         0.1400 
     71 CB         -4.7351  -22.2540  -46.8083 C.3       12 UNK        -0.1800 
     72 C          -3.4223  -24.3416  -47.3895 C.2       12 UNK         0.5000 
     73 O          -3.9516  -25.2288  -48.0555 O.2       12 UNK        -0.5000 
     74 N          -2.5670  -24.5758  -46.3858 N.am      13 UNK        -0.5000 
     75 CA         -2.0992  -25.9084  -46.0077 C.3       13 UNK         0.1400 
     76 CB         -1.3768  -25.8330  -44.6542 C.3       13 UNK        -0.1800 
     77 C          -1.1856  -26.5415  -47.0736 C.2       13 UNK         0.5000 
     78 O          -1.3101  -27.7366  -47.3436 O.2       13 UNK        -0.5000 
     79 N          -0.2874  -25.7350  -47.6566 N.am      14 UNK        -0.5000 
     80 CA          0.6994  -26.1737  -48.6442 C.3       14 UNK         0.1400 
     81 CB          1.7528  -25.0727  -48.8385 C.3       14 UNK        -0.1800 
     82 C           0.0885  -26.5770  -49.9989 C.2       14 UNK         0.5000 
     83 O           0.5308  -27.5667  -50.5839 O.2       14 UNK        -0.5000 
     84 N          -0.8995  -25.8081  -50.4742 N.am      15 UNK        -0.5000 
     85 CA         -1.5090  -25.9542  -51.7987 C.3       15 UNK         0.1400 
     86 CB         -1.1100  -24.7514  -52.6729 C.3       15 UNK        -0.1800 
     87 C          -3.0285  -26.2036  -51.7242 C.2       15 UNK         0.5000 
     88 O          -3.7630  -25.8209  -52.6365 O.2       15 UNK        -0.5000 
     89 N          -3.4656  -26.8770  -50.6493 N.am      16 UNK        -0.5000 
     90 CA         -4.7938  -27.4742  -50.4407 C.3       16 UNK         0.1400 
     91 CB         -4.9220  -28.7486  -51.3001 C.3       16 UNK        -0.1800 
     92 C          -5.9844  -26.5097  -50.6436 C.2       16 UNK         0.5000 
     93 O          -7.0248  -26.9134  -51.1680 O.2       16 UNK        -0.5000 
     94 N          -5.7960  -25.2486  -50.2347 N.am      17 UNK        -0.5000 
     95 CA         -6.6948  -24.0903  -50.3109 C.3       17 UNK         0.1400 
     96 CB         -7.9490  -24.3029  -49.4449 C.3       17 UNK        -0.1800 
     97 C          -7.0750  -23.6373  -51.7361 C.2       17 UNK         0.5000 
     98 O          -6.9830  -22.4446  -52.0300 O.2       17 UNK        -0.5000 
     99 N          -7.4965  -24.5794  -52.5863 N.am      18 UNK        -0.5000 
    100 CA        -7.9945  -24.3527  -53.9410 C.3       18 UNK         0.1400 
    101 CB        -8.6209  -25.6497  -54.4764 C.3       18 UNK        -0.1800 
    102 C         -6.9129  -23.8270  -54.8972 C.2       18 UNK         0.5000 
    103 O         -7.1265  -22.8039  -55.5487 O.2       18 UNK        -0.5000 
    104 N         -5.7616  -24.5126  -54.9436 N.am      19 UNK        -0.5000 
    105 CA        -4.6102  -24.1034  -55.7537 C.3       19 UNK         0.1400 
    106 CB        -3.7205  -25.3207  -56.0499 C.3       19 UNK        -0.1800 
    107 C         -3.8095  -22.9663  -55.0917 C.2       19 UNK         0.5000 
    108 O         -3.1080  -22.2328  -55.7888 O.2       19 UNK        -0.5000 
    109 N         -3.9514  -22.8220  -53.7666 N.am      20 UNK        -0.5000 
    110 CA        -3.3822  -21.7327  -52.9756 C.3       20 UNK         0.1400 
    111 CB        -3.5403  -22.0589  -51.4834 C.3       20 UNK        -0.1800 
    112 C         -4.0500  -20.3752  -53.2481 C.2       20 UNK         0.5000 
    113 O         -3.4230  -19.3442  -53.0102 O.2       20 UNK        -0.5000 
    114 N         -5.3303  -20.4017  -53.6504 N.am      21 UNK        -0.5000 
    115 CA        -6.2818  -19.2921  -53.8075 C.3       21 UNK         0.1400 
    116 CB        -5.7708  -18.2309  -54.8005 C.3       21 UNK        -0.1800 
    117 C         -6.7091  -18.6553  -52.4685 C.2       21 UNK         0.5000 
    118 O         -7.8929  -18.3751  -52.2792 O.2       21 UNK        -0.5000 
    119 N         -5.7489  -18.4751  -51.5569 N.am      22 UNK        -0.5000 
    120 CA        -5.9308  -18.0262  -50.1695 C.3       22 UNK         0.1400 
    121 C         -6.3959  -19.1490  -49.1936 C.2       22 UNK         0.5000 
    122 N         -6.6234  -20.3825  -49.6298 N.am      22 UNK        -0.7600 
    123 O         -6.5855  -18.8894  -48.0100 O.2       22 UNK        -0.5000 
    124 C124       -4.6616  -17.2928  -49.6542 C.3       23 UNK        -0.0398 
    125 S125       -4.4979  -15.6362  -50.4025 S.3       23 UNK        -0.2404 
    126 C126       -3.3283  -15.9216  -51.7677 C.3       23 UNK        -0.0205 
    127 H127        4.9646  -16.7616  -48.0930 H         1 UNK         0.0600 
    128 H128        4.2084  -15.9290  -49.4540 H         1 UNK         0.0600 
    129 H129        3.3361  -17.2075  -48.6047 H         1 UNK         0.0600 
    130 H130        3.5216  -13.8872  -48.8904 H         1 UNK         0.3000 
    131 H131        2.2032  -13.3675  -46.2875 H         1 UNK         0.0600 
    132 H132        1.5739  -11.1783  -47.3392 H         1 UNK         0.0800 
    133 H133        2.3916  -11.6305  -48.8096 H         1 UNK         0.0800 
    134 H134        0.3089  -12.4816  -50.8462 H         1 UNK         0.0800 
    135 H135        1.7599  -13.3236  -50.3650 H         1 UNK         0.0800 
    136 H136       -1.8813  -13.7596  -50.9953 H         1 UNK         0.1150 
    137 H137       -1.5584  -18.0030  -51.5393 H         1 UNK         0.1150 
    138 H138        1.8443  -15.7368  -50.2533 H         1 UNK         0.1150 
    139 H139        0.7458  -18.9746  -51.6228 H         1 UNK         0.0800 
    140 H140        2.1126  -18.0109  -51.1437 H         1 UNK         0.0800 
    141 H141       -0.5244  -20.4099  -50.3208 H         1 UNK         0.0800 
    142 H142       -1.2446  -19.4949  -49.0262 H         1 UNK         0.0800 
    143 H143        0.6575  -21.8817  -48.7134 H         1 UNK         0.0600 
    144 H144       -0.3735  -20.1017  -46.6648 H         1 UNK         0.3000 
    145 H145        0.7996  -22.2338  -43.9843 H         1 UNK         0.0600 
    146 H146        2.6192  -20.7443  -44.8340 H         1 UNK         0.0600 
    147 H147        1.4652  -19.4313  -45.0293 H         1 UNK         0.0600 
    148 H148        1.8234  -20.0604  -43.4246 H         1 UNK         0.0600 
    149 H149       -0.6426  -19.8479  -43.7456 H         1 UNK         0.3000 
    150 H150       -3.8476  -21.4085  -43.1687 H         1 UNK         0.0600 
    151 H151       -3.4247  -20.0508  -41.1388 H         1 UNK         0.0600 
    152 H152       -1.7305  -19.8586  -41.5775 H         1 UNK         0.0600 
    153 H153       -2.3625  -21.4501  -41.1715 H         1 UNK         0.0600 
    154 H154       -2.4741  -18.8315  -43.8353 H         1 UNK         0.3000 
    155 H155       -4.7412  -18.1554  -46.3165 H         1 UNK         0.0600 
    156 H156       -4.9805  -16.5665  -43.7040 H         1 UNK         0.0600 
    157 H157       -6.3228  -17.2836  -44.5881 H         1 UNK         0.0600 
    158 H158       -5.4008  -15.9792  -45.3150 H         1 UNK         0.0600 
    159 H159       -2.9187  -16.3818  -45.0540 H         1 UNK         0.3000 
    160 H160        0.1278  -17.7731  -46.1665 H         1 UNK         0.0600 
    161 H161       -1.3053  -15.2622  -47.1755 H         1 UNK         0.0600 
    162 H162        0.4163  -15.6279  -47.3062 H         1 UNK         0.0600 
    163 H163       -0.7560  -16.5814  -48.1980 H         1 UNK         0.0600 
    164 H164       -0.2950  -15.3251  -44.8840 H         1 UNK         0.3000 
    165 H165       -1.0242  -15.0308  -42.6196 H         1 UNK         0.0600 
    166 H166       -0.9574  -15.8187  -40.2839 H         1 UNK         0.0600 
    167 H167       -1.9869  -16.8749  -41.2372 H         1 UNK         0.0600 
    168 H168       -0.3686  -17.4010  -40.7917 H         1 UNK         0.0600 
    169 H169        1.4520  -15.9473  -41.4146 H         1 UNK         0.3000 
    170 H170        3.0718  -14.3713  -41.2923 H         1 UNK         0.0600 
    171 H171        5.0497  -14.9644  -42.5988 H         1 UNK         0.0600 
    172 H172        3.7992  -16.1453  -42.9597 H         1 UNK         0.0600 
    173 H173        4.1554  -14.8624  -44.1107 H         1 UNK         0.0600 
    174 H174        4.0960  -12.6134  -43.2915 H         1 UNK         0.3000 
    175 H175        2.6663  -10.1126  -43.3367 H         1 UNK         0.0600 
    176 H176        3.4166   -9.4303  -40.4468 H         1 UNK         0.0600 
    177 H177        3.2554   -8.2586  -41.7547 H         1 UNK         0.0600 
    178 H178        1.8583   -9.1745  -41.2171 H         1 UNK         0.0600 
    179 H179        4.7972  -10.1275  -43.8422 H         1 UNK         0.3000 
    180 H180        7.4470   -9.4538  -42.7660 H         1 UNK         0.0600 
    181 H181        8.3576  -11.0465  -41.1321 H         1 UNK         0.0600 
    182 H182        9.1180  -11.3276  -42.6886 H         1 UNK         0.0600 
    183 H183        7.8589  -12.4183  -42.1108 H         1 UNK         0.0600 
    184 H184        7.2723  -10.0375  -44.8863 H         1 UNK         0.3000 
    185 H185        6.4543  -10.9221  -46.7194 H         1 UNK         0.0600 
    186 H186        8.5862  -12.2424  -46.6533 H         1 UNK         0.0600 
    187 H187        7.6649  -13.7413  -46.6543 H         1 UNK         0.0600 
    188 H188        7.6130  -12.6665  -48.0525 H         1 UNK         0.0600 
    189 H189        5.3115  -13.3909  -47.4010 H         1 UNK         0.3000 
    190 H190       -2.4530  -21.2695  -47.1287 H         1 UNK         0.3000 
    191 H191       -4.1083  -22.8543  -48.7610 H         1 UNK         0.0600 
    192 H192       -4.3839  -22.2429  -45.7763 H         1 UNK         0.0600 
    193 H193       -5.6686  -22.8175  -46.8311 H         1 UNK         0.0600 
    194 H194       -4.9675  -21.2279  -47.0943 H         1 UNK         0.0600 
    195 H195       -2.2126  -23.7961  -45.8387 H         1 UNK         0.3000 
    196 H196       -2.9718  -26.5546  -45.8903 H         1 UNK         0.0600 
    197 H197       -1.0164  -26.8153  -44.3463 H         1 UNK         0.0600 
    198 H198       -2.0446  -25.4716  -43.8720 H         1 UNK         0.0600 
    199 H199       -0.5168  -25.1629  -44.6942 H         1 UNK         0.0600 
    200 H200       -0.2362  -24.7674  -47.3623 H         1 UNK         0.3000 
    201 H201        1.2065  -27.0517  -48.2384 H         1 UNK         0.0600 
    202 H202        2.2498  -24.8308  -47.8989 H         1 UNK         0.0600 
    203 H203        1.3094  -24.1569  -49.2293 H         1 UNK         0.0600 
    204 H204        2.5240  -25.3893  -49.5418 H         1 UNK         0.0600 
    205 H205       -1.1782  -24.9858  -49.9420 H         1 UNK         0.3000 
    206 H206       -1.1174  -26.8431  -52.2963 H         1 UNK         0.0600 
    207 H207       -1.6035  -24.7724  -53.6444 H         1 UNK         0.0600 
    208 H208       -1.3488  -23.8044  -52.1942 H         1 UNK         0.0600 
    209 H209       -0.0366  -24.7546  -52.8619 H         1 UNK         0.0600 
    210 H210       -2.7863  -27.0759  -49.9279 H         1 UNK         0.3000 
    211 H211       -4.8295  -27.7755  -49.3928 H         1 UNK         0.0600 
    212 H212       -4.9288  -28.5144  -52.3654 H         1 UNK         0.0600 
    213 H213       -5.8439  -29.2862  -51.0752 H         1 UNK         0.0600 
    214 H214       -4.0963  -29.4351  -51.1132 H         1 UNK         0.0600 
    215 H215       -4.9175  -25.0821  -49.7539 H         1 UNK         0.3000 
    216 H216       -6.1398  -23.2656  -49.8658 H         1 UNK         0.0600 
    217 H217       -8.5740  -23.4090  -49.4379 H         1 UNK         0.0600 
    218 H218       -7.6796  -24.5194  -48.4110 H         1 UNK         0.0600 
    219 H219       -8.5632  -25.1263  -49.8105 H         1 UNK         0.0600 
    220 H220       -7.5004  -25.5380  -52.2434 H         1 UNK         0.3000 
    221 H221       -8.7806  -23.5968  -53.8833 H         1 UNK         0.0600 
    222 H222       -7.8986  -26.4666  -54.5044 H         1 UNK         0.0600 
    223 H223       -9.4582  -25.9668  -53.8545 H         1 UNK         0.0600 
    224 H224       -9.0024  -25.5115  -55.4889 H         1 UNK         0.0600 
    225 H225       -5.6363  -25.3189  -54.3459 H         1 UNK         0.3000 
    226 H226       -4.9742  -23.7251  -56.7116 H         1 UNK         0.0600 
    227 H227       -4.2782  -26.0959  -56.5754 H         1 UNK         0.0600 
    228 H228       -2.8784  -25.0410  -56.6841 H         1 UNK         0.0600 
    229 H229       -3.3109  -25.7617  -55.1430 H         1 UNK         0.0600 
    230 H230       -4.5069  -23.5073  -53.2746 H         1 UNK         0.3000 
    231 H231       -2.3192  -21.6529  -53.2121 H         1 UNK         0.0600 
    232 H232       -4.5676  -21.9347  -51.1466 H         1 UNK         0.0600 
    233 H233       -3.2445  -23.0798  -51.2494 H         1 UNK         0.0600 
    234 H234       -2.9292  -21.3857  -50.8831 H         1 UNK         0.0600 
    235 H235       -5.7514  -21.3176  -53.7404 H         1 UNK         0.3000 
    236 H236       -7.1776  -19.7404  -54.2403 H         1 UNK         0.0600 
    237 H237       -4.9025  -17.6937  -54.4186 H         1 UNK         0.0600 
    238 H238       -5.4941  -18.6838  -55.7525 H         1 UNK         0.0600 
    239 H239       -6.5442  -17.4897  -55.0045 H         1 UNK         0.0600 
    240 H240       -4.8041  -18.7220  -51.8322 H         1 UNK         0.3000 
    241 H241       -6.7515  -17.3065  -50.1609 H         1 UNK         0.0600 
    242 H242       -6.9633  -21.0610  -48.9699 H         1 UNK         0.3800 
    243 H243       -6.5608  -20.6164  -50.6094 H         1 UNK         0.3800 
    244 H244       -4.7082  -17.1362  -48.5755 H         1 UNK         0.0800 
    245 H245       -3.7618  -17.8841  -49.8320 H         1 UNK         0.0800 
    246 H246       -3.4764  -15.1425  -52.5167 H         1 UNK         0.0800 
    247 H247       -3.5588  -16.8608  -52.2680 H         1 UNK         0.0800 
@<TRIPOS>BOND
     1    1    2 1    
     2    1  127 1    
     3    1  128 1    
     4    1  129 1    
     5    2    3 2    
     6    2    4 am   BACKBONE|DICT|INTERRES
     7    4    5 1    
     8    4  130 1    
     9    5    6 1    
    10    5   65 1    
    11    5  131 1    
    12    6    7 1    
    13    6  132 1    
    14    6  133 1    
    15    7    8 1    
    16    8    9 1    
    17    8  134 1    
    18    8  135 1    
    19    9   10 ar   
    20    9   14 ar   
    21   10   11 ar   
    22   10  136 1    
    23   11   12 ar   
    24   11  126 1    
    25   12   13 ar   
    26   12  137 1    
    27   13   14 ar   
    28   13   15 1    
    29   14  138 1    
    30   15   16 1    
    31   15  139 1    
    32   15  140 1    
    33   16   17 1    
    34   17   18 1    
    35   17  141 1    
    36   17  142 1    
    37   18   19 1    
    38   18   67 1    
    39   18  143 1    
    40   19   20 am   BACKBONE|DICT|INTERRES
    41   19  144 1    
    42   20   21 2    
    43   20   22 1    
    44   22   23 1    
    45   22   24 1    
    46   22  145 1    
    47   23  146 1    
    48   23  147 1    
    49   23  148 1    
    50   24   25 am   BACKBONE|DICT|INTERRES
    51   24  149 1    
    52   25   26 2    
    53   25   27 1    
    54   27   28 1    
    55   27   29 1    
    56   27  150 1    
    57   28  151 1    
    58   28  152 1    
    59   28  153 1    
    60   29   30 am   BACKBONE|DICT|INTERRES
    61   29  154 1    
    62   30   31 2    
    63   30   32 1    
    64   32   33 1    
    65   32   34 1    
    66   32  155 1    
    67   33  156 1    
    68   33  157 1    
    69   33  158 1    
    70   34   35 am   BACKBONE|DICT|INTERRES
    71   34  159 1    
    72   35   36 2    
    73   35   37 1    
    74   37   38 1    
    75   37   39 1    
    76   37  160 1    
    77   38  161 1    
    78   38  162 1    
    79   38  163 1    
    80   39   40 am   BACKBONE|DICT|INTERRES
    81   39  164 1    
    82   40   41 2    
    83   40   42 1    
    84   42   43 1    
    85   42   44 1    
    86   42  165 1    
    87   43  166 1    
    88   43  167 1    
    89   43  168 1    
    90   44   45 am   BACKBONE|DICT|INTERRES
    91   44  169 1    
    92   45   46 2    
    93   45   47 1    
    94   47   48 1    
    95   47   49 1    
    96   47  170 1    
    97   48  171 1    
    98   48  172 1    
    99   48  173 1    
   100   49   50 am   BACKBONE|DICT|INTERRES
   101   49  174 1    
   102   50   51 2    
   103   50   52 1    
   104   52   53 1    
   105   52   54 1    
   106   52  175 1    
   107   53  176 1    
   108   53  177 1    
   109   53  178 1    
   110   54   55 am   BACKBONE|DICT|INTERRES
   111   54  179 1    
   112   55   56 2    
   113   55   57 1    
   114   57   58 1    
   115   57   59 1    
   116   57  180 1    
   117   58  181 1    
   118   58  182 1    
   119   58  183 1    
   120   59   60 am   BACKBONE|DICT|INTERRES
   121   59  184 1    
   122   60   61 2    
   123   60   62 1    
   124   62   63 1    
   125   62   64 1    
   126   62  185 1    
   127   63  186 1    
   128   63  187 1    
   129   63  188 1    
   130   64   65 am   BACKBONE|DICT|INTERRES
   131   64  189 1    
   132   65   66 2    
   133   67   68 2    
   134   67   69 am   BACKBONE|DICT|INTERRES
   135   69   70 1    
   136   69  190 1    
   137   70   71 1    
   138   70   72 1    
   139   70  191 1    
   140   71  192 1    
   141   71  193 1    
   142   71  194 1    
   143   72   73 2    
   144   72   74 am   BACKBONE|DICT|INTERRES
   145   74   75 1    
   146   74  195 1    
   147   75   76 1    
   148   75   77 1    
   149   75  196 1    
   150   76  197 1    
   151   76  198 1    
   152   76  199 1    
   153   77   78 2    
   154   77   79 am   BACKBONE|DICT|INTERRES
   155   79   80 1    
   156   79  200 1    
   157   80   81 1    
   158   80   82 1    
   159   80  201 1    
   160   81  202 1    
   161   81  203 1    
   162   81  204 1    
   163   82   83 2    
   164   82   84 am   BACKBONE|DICT|INTERRES
   165   84   85 1    
   166   84  205 1    
   167   85   86 1    
   168   85   87 1    
   169   85  206 1    
   170   86  207 1    
   171   86  208 1    
   172   86  209 1    
   173   87   88 2    
   174   87   89 am   BACKBONE|DICT|INTERRES
   175   89   90 1    
   176   89  210 1    
   177   90   91 1    
   178   90   92 1    
   179   90  211 1    
   180   91  212 1    
   181   91  213 1    
   182   91  214 1    
   183   92   93 2    
   184   92   94 am   BACKBONE|DICT|INTERRES
   185   94   95 1    
   186   94  215 1    
   187   95   96 1    
   188   95   97 1    
   189   95  216 1    
   190   96  217 1    
   191   96  218 1    
   192   96  219 1    
   193   97   98 2    
   194   97   99 am   BACKBONE|DICT|INTERRES
   195   99  100 1    
   196   99  220 1    
   197  100  101 1    
   198  100  102 1    
   199  100  221 1    
   200  101  222 1    
   201  101  223 1    
   202  101  224 1    
   203  102  103 2    
   204  102  104 am   BACKBONE|DICT|INTERRES
   205  104  105 1    
   206  104  225 1    
   207  105  106 1    
   208  105  107 1    
   209  105  226 1    
   210  106  227 1    
   211  106  228 1    
   212  106  229 1    
   213  107  108 2    
   214  107  109 am   BACKBONE|DICT|INTERRES
   215  109  110 1    
   216  109  230 1    
   217  110  111 1    
   218  110  112 1    
   219  110  231 1    
   220  111  232 1    
   221  111  233 1    
   222  111  234 1    
   223  112  113 2    
   224  112  114 am   BACKBONE|DICT|INTERRES
   225  114  115 1    
   226  114  235 1    
   227  115  116 1    
   228  115  117 1    
   229  115  236 1    
   230  116  237 1    
   231  116  238 1    
   232  116  239 1    
   233  117  118 2    
   234  117  119 am   BACKBONE|DICT|INTERRES
   235  119  120 1    
   236  119  240 1    
   237  120  121 1    
   238  120  124 1    
   239  120  241 1    
   240  121  122 am   BACKBONE|DICT|INTERRES
   241  121  123 2    
   242  122  242 1    
   243  122  243 1    
   244  124  125 1    
   245  124  244 1    
   246  124  245 1    
   247  125  126 1    
   248  126  246 1    
   249  126  247 1    
@<TRIPOS>SUBSTRUCTURE
     1 UNK         1 GROUP             0       ****    0 ROOT    
