@<TRIPOS>MOLECULE
3R540
247   249    1
SMALL
USER_CHARGES


@<TRIPOS>ATOM
      1 CA         -3.0513  -13.8162  -42.4007 C.3       0 UNK        -0.1800 
      2 C          -2.9013  -13.1227  -43.7464 C.2       0 UNK         0.5000 
      3 O          -2.9173  -11.8917  -43.8025 O.2       0 UNK        -0.5000 
      4 N          -2.7641  -13.9048  -44.8272 N.am      1 UNK        -0.5000 
      5 CA         -2.5881  -13.4339  -46.2064 C.3       1 UNK         0.1400 
      6 C6         -2.5499  -14.5933  -47.2389 C.3       23 UNK        -0.0398 
      7 S7         -1.3323  -15.9110  -46.8784 S.3       23 UNK        -0.2404 
      8 C8          0.0829  -15.4116  -47.9106 C.3       23 UNK        -0.0205 
      9 C9          0.1779  -16.2220  -49.1942 C.ar      23 UNK        -0.0193 
     10 C10        -0.7076  -15.9921  -50.2516 C.ar      23 UNK        -0.1150 
     11 C11        -0.5890  -16.7106  -51.4451 C.ar      23 UNK        -0.0193 
     12 C12         0.4219  -17.6688  -51.5746 C.ar      23 UNK        -0.1150 
     13 C13         1.3147  -17.9062  -50.5257 C.ar      23 UNK        -0.0193 
     14 C14         1.1865  -17.1777  -49.3401 C.ar      23 UNK        -0.1150 
     15 C15         2.4433  -18.9147  -50.6923 C.3       23 UNK        -0.0205 
     16 S16         1.9307  -20.6109  -50.2779 S.3       23 UNK        -0.2404 
     17 C17         1.9091  -20.5504  -48.4550 C.3       23 UNK        -0.0398 
     18 CA          1.1952  -21.7683  -47.8201 C.3       11 UNK         0.1400 
     19 N           1.5840  -21.9557  -46.4186 N.am      11 UNK        -0.5000 
     20 C           1.5897  -23.1402  -45.7941 C.2       10 UNK         0.5000 
     21 O           1.2552  -24.1962  -46.3308 O.2       10 UNK        -0.5000 
     22 CA          2.0601  -23.1557  -44.3299 C.3       10 UNK         0.1400 
     23 CB          3.5923  -23.0623  -44.2554 C.3       10 UNK        -0.1800 
     24 N           1.4753  -22.1006  -43.5025 N.am      10 UNK        -0.5000 
     25 C           0.1987  -22.0739  -43.0935 C.2       9 UNK         0.5000 
     26 O          -0.6632  -22.8554  -43.4927 O.2       9 UNK        -0.5000 
     27 CA         -0.1763  -20.9998  -42.0597 C.3       9 UNK         0.1400 
     28 CB          0.4717  -21.2937  -40.6968 C.3       9 UNK        -0.1800 
     29 N           0.2525  -19.6875  -42.5295 N.am      9 UNK        -0.5000 
     30 C          -0.5715  -18.6969  -42.8932 C.2       8 UNK         0.5000 
     31 O          -1.7858  -18.7140  -42.6905 O.2       8 UNK        -0.5000 
     32 CA          0.0449  -17.4877  -43.6275 C.3       8 UNK         0.1400 
     33 CB         -0.1642  -16.1878  -42.8369 C.3       8 UNK        -0.1800 
     34 N           1.4651  -17.6484  -43.9508 N.am      8 UNK        -0.5000 
     35 C           1.9342  -18.4707  -44.9015 C.2       7 UNK         0.5000 
     36 O           1.2117  -19.1716  -45.6098 O.2       7 UNK        -0.5000 
     37 CA          3.4640  -18.6083  -45.0315 C.3       7 UNK         0.1400 
     38 CB          4.0080  -17.6458  -46.0952 C.3       7 UNK        -0.1800 
     39 N           4.1793  -18.3986  -43.7712 N.am      7 UNK        -0.5000 
     40 C           4.0343  -19.1552  -42.6738 C.2       6 UNK         0.5000 
     41 O           3.2857  -20.1316  -42.6176 O.2       6 UNK        -0.5000 
     42 CA          4.8102  -18.7210  -41.4157 C.3       6 UNK         0.1400 
     43 CB          6.1620  -19.4461  -41.3469 C.3       6 UNK        -0.1800 
     44 N           5.0315  -17.2732  -41.3074 N.am      6 UNK        -0.5000 
     45 C           4.0666  -16.3417  -41.2735 C.2       5 UNK         0.5000 
     46 O           2.8737  -16.6134  -41.4060 O.2       5 UNK        -0.5000 
     47 CA          4.4921  -14.8713  -41.0697 C.3       5 UNK         0.1400 
     48 CB          5.9979  -14.6859  -40.7922 C.3       5 UNK        -0.1800 
     49 N           4.1285  -14.0645  -42.2339 N.am      5 UNK        -0.5000 
     50 C           2.9227  -13.5279  -42.4619 C.2       4 UNK         0.5000 
     51 O           1.9680  -13.6170  -41.6856 O.2       4 UNK        -0.5000 
     52 CA          2.7756  -12.7742  -43.7996 C.3       4 UNK         0.1400 
     53 CB          2.6798  -13.7640  -44.9729 C.3       4 UNK        -0.1800 
     54 N           1.6120  -11.8872  -43.8301 N.am      4 UNK        -0.5000 
     55 C           1.4842  -10.7608  -43.1113 C.2       3 UNK         0.5000 
     56 O           2.3667  -10.3319  -42.3644 O.2       3 UNK        -0.5000 
     57 CA          0.1564   -9.9796  -43.2613 C.3       3 UNK         0.1400 
     58 CB          0.2727   -8.4983  -42.8443 C.3       3 UNK        -0.1800 
     59 N          -0.4380  -10.1022  -44.5962 N.am      3 UNK        -0.5000 
     60 C           0.1151   -9.7509  -45.7692 C.2       2 UNK         0.5000 
     61 O           1.1647   -9.1123  -45.8627 O.2       2 UNK        -0.5000 
     62 CA         -0.6111  -10.2093  -47.0583 C.3       2 UNK         0.1400 
     63 CB          0.3847  -10.6047  -48.1692 C.3       2 UNK        -0.1800 
     64 N          -1.5932  -11.2873  -46.8627 N.am      2 UNK        -0.5000 
     65 C          -1.3662  -12.5000  -46.3356 C.2       1 UNK         0.5000 
     66 O          -0.2699  -12.8675  -45.9095 O.2       1 UNK        -0.5000 
     67 C          -0.3352  -21.6570  -47.9449 C.2       11 UNK         0.5000 
     68 O          -0.9087  -22.1906  -48.8921 O.2       11 UNK        -0.5000 
     69 N          -0.9656  -20.9909  -46.9672 N.am      12 UNK        -0.5000 
     70 CA         -2.4071  -20.7448  -46.9037 C.3       12 UNK         0.1400 
     71 CB         -2.6647  -19.6394  -45.8731 C.3       12 UNK        -0.1800 
     72 C          -3.2596  -21.9879  -46.5722 C.2       12 UNK         0.5000 
     73 O          -4.4860  -21.9056  -46.6662 O.2       12 UNK        -0.5000 
     74 N          -2.6211  -23.1030  -46.1899 N.am      13 UNK        -0.5000 
     75 CA         -3.2442  -24.3846  -45.8504 C.3       13 UNK         0.1400 
     76 CB         -2.1395  -25.4160  -45.5755 C.3       13 UNK        -0.1800 
     77 C          -4.1973  -24.9091  -46.9430 C.2       13 UNK         0.5000 
     78 O          -3.8708  -24.8283  -48.1292 O.2       13 UNK        -0.5000 
     79 N          -5.3575  -25.4296  -46.5163 N.am      14 UNK        -0.5000 
     80 CA         -6.4433  -25.9586  -47.3535 C.3       14 UNK         0.1400 
     81 CB         -6.0100  -27.2760  -48.0307 C.3       14 UNK        -0.1800 
     82 C          -6.9901  -24.9174  -48.3552 C.2       14 UNK         0.5000 
     83 O          -7.2016  -25.2377  -49.5260 O.2       14 UNK        -0.5000 
     84 N          -7.1695  -23.6757  -47.8763 N.am      15 UNK        -0.5000 
     85 CA         -7.5741  -22.4875  -48.6397 C.3       15 UNK         0.1400 
     86 CB         -9.0322  -22.6181  -49.1287 C.3       15 UNK        -0.1800 
     87 C          -6.5806  -22.1777  -49.7777 C.2       15 UNK         0.5000 
     88 O          -6.9794  -22.0226  -50.9325 O.2       15 UNK        -0.5000 
     89 N          -5.2902  -22.1545  -49.4201 N.am      16 UNK        -0.5000 
     90 CA         -4.1244  -22.0325  -50.2985 C.3       16 UNK         0.1400 
     91 CB         -4.0283  -20.6083  -50.8808 C.3       16 UNK        -0.1800 
     92 C          -4.0753  -23.1412  -51.3682 C.2       16 UNK         0.5000 
     93 O          -3.8836  -22.8532  -52.5500 O.2       16 UNK        -0.5000 
     94 N          -4.2933  -24.3888  -50.9266 N.am      17 UNK        -0.5000 
     95 CA         -4.4367  -25.6048  -51.7333 C.3       17 UNK         0.1400 
     96 CB         -3.0771  -26.0030  -52.3448 C.3       17 UNK        -0.1800 
     97 C          -5.5574  -25.4747  -52.7871 C.2       17 UNK         0.5000 
     98 O          -5.3289  -25.7360  -53.9678 O.2       17 UNK        -0.5000 
     99 N          -6.7370  -25.0142  -52.3451 N.am      18 UNK        -0.5000 
    100 CA        -7.8939  -24.6280  -53.1637 C.3       18 UNK         0.1400 
    101 CB        -8.5610  -25.8722  -53.7850 C.3       18 UNK        -0.1800 
    102 C         -7.5314  -23.5448  -54.2057 C.2       18 UNK         0.5000 
    103 O         -7.8549  -23.6751  -55.3875 O.2       18 UNK        -0.5000 
    104 N         -6.8187  -22.5154  -53.7299 N.am      19 UNK        -0.5000 
    105 CA        -6.2398  -21.3753  -54.4469 C.3       19 UNK         0.1400 
    106 CB        -7.3388  -20.5356  -55.1286 C.3       19 UNK        -0.1800 
    107 C         -5.0870  -21.7126  -55.4189 C.2       19 UNK         0.5000 
    108 O         -4.5598  -20.7922  -56.0458 O.2       19 UNK        -0.5000 
    109 N         -4.6804  -22.9868  -55.5278 N.am      20 UNK        -0.5000 
    110 CA        -3.6167  -23.4350  -56.4296 C.3       20 UNK         0.1400 
    111 CB        -3.6375  -24.9650  -56.5498 C.3       20 UNK        -0.1800 
    112 C         -2.2155  -22.9509  -56.0163 C.2       20 UNK         0.5000 
    113 O         -1.3879  -22.7005  -56.8941 O.2       20 UNK        -0.5000 
    114 N         -1.9718  -22.7855  -54.7067 N.am      21 UNK        -0.5000 
    115 CA        -0.7006  -22.2859  -54.1683 C.3       21 UNK         0.1400 
    116 CB        -0.6405  -22.5370  -52.6541 C.3       21 UNK        -0.1800 
    117 C         -0.4582  -20.7969  -54.4868 C.2       21 UNK         0.5000 
    118 O          0.6918  -20.3564  -54.4895 O.2       21 UNK        -0.5000 
    119 N         -1.5392  -20.0655  -54.7818 N.am      22 UNK        -0.5000 
    120 CA        -1.5222  -18.6812  -55.2722 C.3       22 UNK         0.1400 
    121 C         -1.4335  -18.5725  -56.8241 C.2       22 UNK         0.5000 
    122 N         -1.3460  -19.6641  -57.5771 N.am      22 UNK        -0.7600 
    123 O         -1.4222  -17.4684  -57.3615 O.2       22 UNK        -0.5000 
    124 C124       -2.7121  -17.8615  -54.7066 C.3       23 UNK        -0.0398 
    125 S125       -2.6973  -17.7873  -52.8826 S.3       23 UNK        -0.2404 
    126 C126       -1.5208  -16.4250  -52.6126 C.3       23 UNK        -0.0205 
    127 H127       -3.3135  -14.8679  -42.5169 H         1 UNK         0.0600 
    128 H128       -3.8374  -13.3380  -41.8162 H         1 UNK         0.0600 
    129 H129       -2.1193  -13.7499  -41.8392 H         1 UNK         0.0600 
    130 H130       -2.7179  -14.9065  -44.7113 H         1 UNK         0.3000 
    131 H131       -3.4765  -12.8410  -46.4341 H         1 UNK         0.0600 
    132 H132       -3.5308  -15.0694  -47.2681 H         1 UNK         0.0800 
    133 H133       -2.3932  -14.2059  -48.2464 H         1 UNK         0.0800 
    134 H134        0.0304  -14.3513  -48.1577 H         1 UNK         0.0800 
    135 H135        0.9907  -15.5312  -47.3171 H         1 UNK         0.0800 
    136 H136       -1.4805  -15.2443  -50.1508 H         1 UNK         0.1150 
    137 H137        0.5190  -18.2240  -52.4976 H         1 UNK         0.1150 
    138 H138        1.8818  -17.3443  -48.5316 H         1 UNK         0.1150 
    139 H139        2.7898  -18.9013  -51.7268 H         1 UNK         0.0800 
    140 H140        3.3032  -18.6321  -50.0829 H         1 UNK         0.0800 
    141 H141        1.4485  -19.6201  -48.1261 H         1 UNK         0.0800 
    142 H142        2.9471  -20.5105  -48.1221 H         1 UNK         0.0800 
    143 H143        1.5042  -22.6572  -48.3754 H         1 UNK         0.0600 
    144 H144        1.7851  -21.1141  -45.8933 H         1 UNK         0.3000 
    145 H145        1.7645  -24.1162  -43.9019 H         1 UNK         0.0600 
    146 H146        4.0621  -23.8547  -44.8395 H         1 UNK         0.0600 
    147 H147        3.9588  -22.1094  -44.6388 H         1 UNK         0.0600 
    148 H148        3.9432  -23.1643  -43.2282 H         1 UNK         0.0600 
    149 H149        2.1302  -21.4203  -43.1226 H         1 UNK         0.3000 
    150 H150       -1.2602  -21.0327  -41.9308 H         1 UNK         0.0600 
    151 H151        0.1835  -22.2806  -40.3327 H         1 UNK         0.0600 
    152 H152        0.1553  -20.5661  -39.9495 H         1 UNK         0.0600 
    153 H153        1.5608  -21.2662  -40.7466 H         1 UNK         0.0600 
    154 H154        1.2418  -19.5816  -42.7153 H         1 UNK         0.3000 
    155 H155       -0.5013  -17.3938  -44.5661 H         1 UNK         0.0600 
    156 H156       -1.2202  -16.0352  -42.6197 H         1 UNK         0.0600 
    157 H157        0.1774  -15.3192  -43.3991 H         1 UNK         0.0600 
    158 H158        0.3612  -16.2030  -41.8827 H         1 UNK         0.0600 
    159 H159        2.1170  -17.1713  -43.3385 H         1 UNK         0.3000 
    160 H160        3.6743  -19.6278  -45.3607 H         1 UNK         0.0600 
    161 H161        3.7875  -16.6070  -45.8507 H         1 UNK         0.0600 
    162 H162        3.5678  -17.8566  -47.0694 H         1 UNK         0.0600 
    163 H163        5.0881  -17.7450  -46.2041 H         1 UNK         0.0600 
    164 H164        4.8082  -17.6105  -43.7274 H         1 UNK         0.3000 
    165 H165        4.2156  -19.0260  -40.5523 H         1 UNK         0.0600 
    166 H166        6.6775  -19.2328  -40.4103 H         1 UNK         0.0600 
    167 H167        6.0290  -20.5275  -41.4033 H         1 UNK         0.0600 
    168 H168        6.8185  -19.1528  -42.1671 H         1 UNK         0.0600 
    169 H169        5.9897  -16.9738  -41.1995 H         1 UNK         0.3000 
    170 H170        3.9486  -14.5045  -40.1965 H         1 UNK         0.0600 
    171 H171        6.3106  -15.2457  -39.9096 H         1 UNK         0.0600 
    172 H172        6.6144  -15.0065  -41.6331 H         1 UNK         0.0600 
    173 H173        6.2288  -13.6381  -40.5983 H         1 UNK         0.0600 
    174 H174        4.8465  -13.9532  -42.9349 H         1 UNK         0.3000 
    175 H175        3.6661  -12.1582  -43.9413 H         1 UNK         0.0600 
    176 H176        2.5814  -13.2402  -45.9241 H         1 UNK         0.0600 
    177 H177        3.5741  -14.3833  -45.0376 H         1 UNK         0.0600 
    178 H178        1.8231  -14.4310  -44.8716 H         1 UNK         0.0600 
    179 H179        0.8507  -12.1748  -44.4381 H         1 UNK         0.3000 
    180 H180       -0.5467  -10.4571  -42.5774 H         1 UNK         0.0600 
    181 H181        1.0150   -7.9656  -43.4391 H         1 UNK         0.0600 
    182 H182        0.5682   -8.4089  -41.7983 H         1 UNK         0.0600 
    183 H183       -0.6806   -7.9816  -42.9553 H         1 UNK         0.0600 
    184 H184       -1.3020  -10.6316  -44.6263 H         1 UNK         0.3000 
    185 H185       -1.1738   -9.3433  -47.4094 H         1 UNK         0.0600 
    186 H186        1.0286   -9.7667  -48.4387 H         1 UNK         0.0600 
    187 H187        1.0309  -11.4263  -47.8579 H         1 UNK         0.0600 
    188 H188       -0.1365  -10.9135  -49.0753 H         1 UNK         0.0600 
    189 H189       -2.5377  -11.0565  -47.1393 H         1 UNK         0.3000 
    190 H190       -0.4005  -20.5558  -46.2485 H         1 UNK         0.3000 
    191 H191       -2.7282  -20.3793  -47.8809 H         1 UNK         0.0600 
    192 H192       -2.0573  -18.7571  -46.0730 H         1 UNK         0.0600 
    193 H193       -3.7092  -19.3258  -45.8851 H         1 UNK         0.0600 
    194 H194       -2.4392  -19.9878  -44.8660 H         1 UNK         0.0600 
    195 H195       -1.6137  -23.0723  -46.1373 H         1 UNK         0.3000 
    196 H196       -3.8129  -24.2317  -44.9314 H         1 UNK         0.0600 
    197 H197       -2.5636  -26.3851  -45.3098 H         1 UNK         0.0600 
    198 H198       -1.5016  -25.1045  -44.7486 H         1 UNK         0.0600 
    199 H199       -1.5035  -25.5632  -46.4497 H         1 UNK         0.0600 
    200 H200       -5.5348  -25.4476  -45.5214 H         1 UNK         0.3000 
    201 H201       -7.2696  -26.1922  -46.6808 H         1 UNK         0.0600 
    202 H202       -5.6735  -28.0046  -47.2932 H         1 UNK         0.0600 
    203 H203       -5.1975  -27.1208  -48.7405 H         1 UNK         0.0600 
    204 H204       -6.8392  -27.7280  -48.5762 H         1 UNK         0.0600 
    205 H205       -6.9239  -23.5066  -46.9107 H         1 UNK         0.3000 
    206 H206       -7.5290  -21.6422  -47.9514 H         1 UNK         0.0600 
    207 H207       -9.7094  -22.8183  -48.2986 H         1 UNK         0.0600 
    208 H208       -9.3661  -21.6956  -49.6050 H         1 UNK         0.0600 
    209 H209       -9.1489  -23.4206  -49.8575 H         1 UNK         0.0600 
    210 H210       -5.0771  -22.2893  -48.4354 H         1 UNK         0.3000 
    211 H211       -3.2557  -22.1931  -49.6663 H         1 UNK         0.0600 
    212 H212       -4.8746  -20.3733  -51.5251 H         1 UNK         0.0600 
    213 H213       -3.1221  -20.4878  -51.4741 H         1 UNK         0.0600 
    214 H214       -3.9949  -19.8604  -50.0889 H         1 UNK         0.0600 
    215 H215       -4.3790  -24.5215  -49.9213 H         1 UNK         0.3000 
    216 H216       -4.7425  -26.3981  -51.0507 H         1 UNK         0.0600 
    217 H217       -3.1470  -26.9614  -52.8603 H         1 UNK         0.0600 
    218 H218       -2.3134  -26.1032  -51.5737 H         1 UNK         0.0600 
    219 H219       -2.7262  -25.2678  -53.0693 H         1 UNK         0.0600 
    220 H220       -6.8422  -24.8688  -51.3431 H         1 UNK         0.3000 
    221 H221       -8.6127  -24.1713  -52.4818 H         1 UNK         0.0600 
    222 H222       -7.9103  -26.3640  -54.5087 H         1 UNK         0.0600 
    223 H223       -8.8221  -26.6019  -53.0186 H         1 UNK         0.0600 
    224 H224       -9.4816  -25.6025  -54.3036 H         1 UNK         0.0600 
    225 H225       -6.6484  -22.5027  -52.7264 H         1 UNK         0.3000 
    226 H226       -5.7909  -20.7510  -53.6742 H         1 UNK         0.0600 
    227 H227       -8.1267  -20.2706  -54.4236 H         1 UNK         0.0600 
    228 H228       -6.9315  -19.6037  -55.5222 H         1 UNK         0.0600 
    229 H229       -7.7972  -21.0668  -55.9630 H         1 UNK         0.0600 
    230 H230       -5.1180  -23.6938  -54.9499 H         1 UNK         0.3000 
    231 H231       -3.8290  -23.0215  -57.4178 H         1 UNK         0.0600 
    232 H232       -3.3318  -25.4453  -55.6201 H         1 UNK         0.0600 
    233 H233       -2.9518  -25.3016  -57.3282 H         1 UNK         0.0600 
    234 H234       -4.6312  -25.3310  -56.8092 H         1 UNK         0.0600 
    235 H235       -2.7191  -22.9502  -54.0346 H         1 UNK         0.3000 
    236 H236        0.1058  -22.8565  -54.6338 H         1 UNK         0.0600 
    237 H237       -0.8554  -23.5776  -52.4112 H         1 UNK         0.0600 
    238 H238        0.3526  -22.3116  -52.2653 H         1 UNK         0.0600 
    239 H239       -1.3475  -21.9106  -52.1117 H         1 UNK         0.0600 
    240 H240       -2.4415  -20.5200  -54.7814 H         1 UNK         0.3000 
    241 H241       -0.6088  -18.2058  -54.9117 H         1 UNK         0.0600 
    242 H242       -1.2830  -19.5657  -58.5780 H         1 UNK         0.3800 
    243 H243       -1.3404  -20.5893  -57.1671 H         1 UNK         0.3800 
    244 H244       -2.7088  -16.8411  -55.0939 H         1 UNK         0.0800 
    245 H245       -3.6584  -18.3021  -55.0246 H         1 UNK         0.0800 
    246 H246       -2.0802  -15.5026  -52.4496 H         1 UNK         0.0800 
    247 H247       -0.9152  -16.2582  -53.5041 H         1 UNK         0.0800 
@<TRIPOS>BOND
     1    1    2 1    
     2    1  127 1    
     3    1  128 1    
     4    1  129 1    
     5    2    3 2    
     6    2    4 am   BACKBONE|DICT|INTERRES
     7    4    5 1    
     8    4  130 1    
     9    5    6 1    
    10    5   65 1    
    11    5  131 1    
    12    6    7 1    
    13    6  132 1    
    14    6  133 1    
    15    7    8 1    
    16    8    9 1    
    17    8  134 1    
    18    8  135 1    
    19    9   10 ar   
    20    9   14 ar   
    21   10   11 ar   
    22   10  136 1    
    23   11   12 ar   
    24   11  126 1    
    25   12   13 ar   
    26   12  137 1    
    27   13   14 ar   
    28   13   15 1    
    29   14  138 1    
    30   15   16 1    
    31   15  139 1    
    32   15  140 1    
    33   16   17 1    
    34   17   18 1    
    35   17  141 1    
    36   17  142 1    
    37   18   19 1    
    38   18   67 1    
    39   18  143 1    
    40   19   20 am   BACKBONE|DICT|INTERRES
    41   19  144 1    
    42   20   21 2    
    43   20   22 1    
    44   22   23 1    
    45   22   24 1    
    46   22  145 1    
    47   23  146 1    
    48   23  147 1    
    49   23  148 1    
    50   24   25 am   BACKBONE|DICT|INTERRES
    51   24  149 1    
    52   25   26 2    
    53   25   27 1    
    54   27   28 1    
    55   27   29 1    
    56   27  150 1    
    57   28  151 1    
    58   28  152 1    
    59   28  153 1    
    60   29   30 am   BACKBONE|DICT|INTERRES
    61   29  154 1    
    62   30   31 2    
    63   30   32 1    
    64   32   33 1    
    65   32   34 1    
    66   32  155 1    
    67   33  156 1    
    68   33  157 1    
    69   33  158 1    
    70   34   35 am   BACKBONE|DICT|INTERRES
    71   34  159 1    
    72   35   36 2    
    73   35   37 1    
    74   37   38 1    
    75   37   39 1    
    76   37  160 1    
    77   38  161 1    
    78   38  162 1    
    79   38  163 1    
    80   39   40 am   BACKBONE|DICT|INTERRES
    81   39  164 1    
    82   40   41 2    
    83   40   42 1    
    84   42   43 1    
    85   42   44 1    
    86   42  165 1    
    87   43  166 1    
    88   43  167 1    
    89   43  168 1    
    90   44   45 am   BACKBONE|DICT|INTERRES
    91   44  169 1    
    92   45   46 2    
    93   45   47 1    
    94   47   48 1    
    95   47   49 1    
    96   47  170 1    
    97   48  171 1    
    98   48  172 1    
    99   48  173 1    
   100   49   50 am   BACKBONE|DICT|INTERRES
   101   49  174 1    
   102   50   51 2    
   103   50   52 1    
   104   52   53 1    
   105   52   54 1    
   106   52  175 1    
   107   53  176 1    
   108   53  177 1    
   109   53  178 1    
   110   54   55 am   BACKBONE|DICT|INTERRES
   111   54  179 1    
   112   55   56 2    
   113   55   57 1    
   114   57   58 1    
   115   57   59 1    
   116   57  180 1    
   117   58  181 1    
   118   58  182 1    
   119   58  183 1    
   120   59   60 am   BACKBONE|DICT|INTERRES
   121   59  184 1    
   122   60   61 2    
   123   60   62 1    
   124   62   63 1    
   125   62   64 1    
   126   62  185 1    
   127   63  186 1    
   128   63  187 1    
   129   63  188 1    
   130   64   65 am   BACKBONE|DICT|INTERRES
   131   64  189 1    
   132   65   66 2    
   133   67   68 2    
   134   67   69 am   BACKBONE|DICT|INTERRES
   135   69   70 1    
   136   69  190 1    
   137   70   71 1    
   138   70   72 1    
   139   70  191 1    
   140   71  192 1    
   141   71  193 1    
   142   71  194 1    
   143   72   73 2    
   144   72   74 am   BACKBONE|DICT|INTERRES
   145   74   75 1    
   146   74  195 1    
   147   75   76 1    
   148   75   77 1    
   149   75  196 1    
   150   76  197 1    
   151   76  198 1    
   152   76  199 1    
   153   77   78 2    
   154   77   79 am   BACKBONE|DICT|INTERRES
   155   79   80 1    
   156   79  200 1    
   157   80   81 1    
   158   80   82 1    
   159   80  201 1    
   160   81  202 1    
   161   81  203 1    
   162   81  204 1    
   163   82   83 2    
   164   82   84 am   BACKBONE|DICT|INTERRES
   165   84   85 1    
   166   84  205 1    
   167   85   86 1    
   168   85   87 1    
   169   85  206 1    
   170   86  207 1    
   171   86  208 1    
   172   86  209 1    
   173   87   88 2    
   174   87   89 am   BACKBONE|DICT|INTERRES
   175   89   90 1    
   176   89  210 1    
   177   90   91 1    
   178   90   92 1    
   179   90  211 1    
   180   91  212 1    
   181   91  213 1    
   182   91  214 1    
   183   92   93 2    
   184   92   94 am   BACKBONE|DICT|INTERRES
   185   94   95 1    
   186   94  215 1    
   187   95   96 1    
   188   95   97 1    
   189   95  216 1    
   190   96  217 1    
   191   96  218 1    
   192   96  219 1    
   193   97   98 2    
   194   97   99 am   BACKBONE|DICT|INTERRES
   195   99  100 1    
   196   99  220 1    
   197  100  101 1    
   198  100  102 1    
   199  100  221 1    
   200  101  222 1    
   201  101  223 1    
   202  101  224 1    
   203  102  103 2    
   204  102  104 am   BACKBONE|DICT|INTERRES
   205  104  105 1    
   206  104  225 1    
   207  105  106 1    
   208  105  107 1    
   209  105  226 1    
   210  106  227 1    
   211  106  228 1    
   212  106  229 1    
   213  107  108 2    
   214  107  109 am   BACKBONE|DICT|INTERRES
   215  109  110 1    
   216  109  230 1    
   217  110  111 1    
   218  110  112 1    
   219  110  231 1    
   220  111  232 1    
   221  111  233 1    
   222  111  234 1    
   223  112  113 2    
   224  112  114 am   BACKBONE|DICT|INTERRES
   225  114  115 1    
   226  114  235 1    
   227  115  116 1    
   228  115  117 1    
   229  115  236 1    
   230  116  237 1    
   231  116  238 1    
   232  116  239 1    
   233  117  118 2    
   234  117  119 am   BACKBONE|DICT|INTERRES
   235  119  120 1    
   236  119  240 1    
   237  120  121 1    
   238  120  124 1    
   239  120  241 1    
   240  121  122 am   BACKBONE|DICT|INTERRES
   241  121  123 2    
   242  122  242 1    
   243  122  243 1    
   244  124  125 1    
   245  124  244 1    
   246  124  245 1    
   247  125  126 1    
   248  126  246 1    
   249  126  247 1    
@<TRIPOS>SUBSTRUCTURE
     1 UNK         1 GROUP             0       ****    0 ROOT    
