@<TRIPOS>MOLECULE
3R540
247   249    1
SMALL
USER_CHARGES


@<TRIPOS>ATOM
      1 CA         -0.3630  -12.3083  -49.1178 C.3       0 UNK        -0.1800 
      2 C           1.0974  -12.5245  -49.4886 C.2       0 UNK         0.5000 
      3 O           1.7516  -11.6006  -49.9718 O.2       0 UNK        -0.5000 
      4 N           1.6090  -13.7420  -49.2644 N.am      1 UNK        -0.5000 
      5 CA          2.9927  -14.1473  -49.5587 C.3       1 UNK         0.1400 
      6 C6          3.1639  -15.6878  -49.5403 C.3       23 UNK        -0.0398 
      7 S7          2.0038  -16.5451  -50.6610 S.3       23 UNK        -0.2404 
      8 C8          1.4984  -17.9518  -49.6255 C.3       23 UNK        -0.0205 
      9 C9          0.3917  -18.7567  -50.2855 C.ar      23 UNK        -0.0193 
     10 C10         0.6952  -19.7267  -51.2453 C.ar      23 UNK        -0.1150 
     11 C11        -0.3254  -20.4515  -51.8700 C.ar      23 UNK        -0.0193 
     12 C12        -1.6545  -20.2188  -51.5056 C.ar      23 UNK        -0.1150 
     13 C13        -1.9674  -19.2676  -50.5312 C.ar      23 UNK        -0.0193 
     14 C14        -0.9409  -18.5320  -49.9326 C.ar      23 UNK        -0.1150 
     15 C15        -3.4129  -19.0448  -50.1151 C.3       23 UNK        -0.0205 
     16 S16        -4.0154  -20.3709  -49.0208 S.3       23 UNK        -0.2404 
     17 C17        -2.8715  -20.2270  -47.6045 C.3       23 UNK        -0.0398 
     18 CA         -1.7479  -21.2957  -47.6391 C.3       11 UNK         0.1400 
     19 N          -0.5369  -20.8576  -46.9375 N.am      11 UNK        -0.5000 
     20 C           0.6218  -21.5331  -46.9123 C.2       10 UNK         0.5000 
     21 O           0.8123  -22.5832  -47.5212 O.2       10 UNK        -0.5000 
     22 CA          1.7378  -20.9908  -46.0025 C.3       10 UNK         0.1400 
     23 CB          2.5099  -19.8536  -46.6835 C.3       10 UNK        -0.1800 
     24 N           1.2321  -20.5444  -44.7061 N.am      10 UNK        -0.5000 
     25 C           0.6618  -21.3497  -43.7994 C.2       9 UNK         0.5000 
     26 O           0.5652  -22.5695  -43.9356 O.2       9 UNK        -0.5000 
     27 CA          0.0489  -20.6740  -42.5593 C.3       9 UNK         0.1400 
     28 CB          1.1290  -20.3632  -41.5129 C.3       9 UNK        -0.1800 
     29 N          -0.6874  -19.4523  -42.8908 N.am      9 UNK        -0.5000 
     30 C          -1.7813  -19.4155  -43.6662 C.2       8 UNK         0.5000 
     31 O          -2.3123  -20.4162  -44.1485 O.2       8 UNK        -0.5000 
     32 CA         -2.3512  -18.0262  -44.0019 C.3       8 UNK         0.1400 
     33 CB         -3.1860  -17.4811  -42.8340 C.3       8 UNK        -0.1800 
     34 N          -1.3101  -17.0632  -44.3643 N.am      8 UNK        -0.5000 
     35 C          -0.5183  -17.1762  -45.4411 C.2       7 UNK         0.5000 
     36 O          -0.6153  -18.0799  -46.2687 O.2       7 UNK        -0.5000 
     37 CA          0.6046  -16.1383  -45.5990 C.3       7 UNK         0.1400 
     38 CB          0.0614  -14.8255  -46.1811 C.3       7 UNK        -0.1800 
     39 N           1.2922  -15.8700  -44.3396 N.am      7 UNK        -0.5000 
     40 C           1.9926  -16.7688  -43.6361 C.2       6 UNK         0.5000 
     41 O           2.1834  -17.9273  -44.0021 O.2       6 UNK        -0.5000 
     42 CA          2.5235  -16.3075  -42.2691 C.3       6 UNK         0.1400 
     43 CB          3.8216  -15.5002  -42.4209 C.3       6 UNK        -0.1800 
     44 N           1.5353  -15.5142  -41.5387 N.am      6 UNK        -0.5000 
     45 C           0.4004  -16.0041  -41.0221 C.2       5 UNK         0.5000 
     46 O           0.0731  -17.1890  -41.0895 O.2       5 UNK        -0.5000 
     47 CA         -0.5393  -14.9905  -40.3434 C.3       5 UNK         0.1400 
     48 CB         -0.0878  -14.7137  -38.9015 C.3       5 UNK        -0.1800 
     49 N          -0.6308  -13.7255  -41.0755 N.am      5 UNK        -0.5000 
     50 C          -1.2159  -13.5941  -42.2738 C.2       4 UNK         0.5000 
     51 O          -1.7430  -14.5249  -42.8826 O.2       4 UNK        -0.5000 
     52 CA         -1.1618  -12.1976  -42.9241 C.3       4 UNK         0.1400 
     53 CB         -2.2541  -11.2879  -42.3416 C.3       4 UNK        -0.1800 
     54 N           0.1388  -11.5212  -42.8288 N.am      4 UNK        -0.5000 
     55 C           1.3039  -12.0420  -43.2349 C.2       3 UNK         0.5000 
     56 O           1.4363  -13.2117  -43.5962 O.2       3 UNK        -0.5000 
     57 CA          2.5369  -11.1176  -43.2244 C.3       3 UNK         0.1400 
     58 CB          3.1905  -11.1204  -41.8341 C.3       3 UNK        -0.1800 
     59 N           3.5280  -11.5551  -44.2126 N.am      3 UNK        -0.5000 
     60 C           3.3214  -11.5755  -45.5367 C.2       2 UNK         0.5000 
     61 O           2.3492  -11.0418  -46.0781 O.2       2 UNK        -0.5000 
     62 CA          4.3300  -12.3524  -46.4038 C.3       2 UNK         0.1400 
     63 CB          5.1812  -13.3765  -45.6199 C.3       2 UNK        -0.1800 
     64 N           3.5671  -13.0288  -47.4460 N.am      2 UNK        -0.5000 
     65 C           4.0265  -13.4897  -48.6140 C.2       1 UNK         0.5000 
     66 O           5.2072  -13.4214  -48.9584 O.2       1 UNK        -0.5000 
     67 C          -2.2563  -22.6525  -47.1137 C.2       11 UNK         0.5000 
     68 O          -2.5747  -23.5344  -47.9123 O.2       11 UNK        -0.5000 
     69 N          -2.2995  -22.8060  -45.7825 N.am      12 UNK        -0.5000 
     70 CA         -2.6712  -24.0433  -45.0964 C.3       12 UNK         0.1400 
     71 CB         -2.7678  -23.7906  -43.5848 C.3       12 UNK        -0.1800 
     72 C          -1.7200  -25.2111  -45.4083 C.2       12 UNK         0.5000 
     73 O          -2.1882  -26.3244  -45.6456 O.2       12 UNK        -0.5000 
     74 N          -0.4115  -24.9320  -45.4290 N.am      13 UNK        -0.5000 
     75 CA          0.6304  -25.9033  -45.7497 C.3       13 UNK         0.1400 
     76 CB          1.9974  -25.3391  -45.3313 C.3       13 UNK        -0.1800 
     77 C           0.6385  -26.3107  -47.2349 C.2       13 UNK         0.5000 
     78 O           0.6926  -27.5042  -47.5346 O.2       13 UNK        -0.5000 
     79 N           0.6163  -25.3190  -48.1344 N.am      14 UNK        -0.5000 
     80 CA          0.8246  -25.5167  -49.5679 C.3       14 UNK         0.1400 
     81 CB          1.4034  -24.2299  -50.1787 C.3       14 UNK        -0.1800 
     82 C          -0.4432  -25.9270  -50.3315 C.2       14 UNK         0.5000 
     83 O          -0.3351  -26.6999  -51.2849 O.2       14 UNK        -0.5000 
     84 N          -1.6023  -25.3772  -49.9464 N.am      15 UNK        -0.5000 
     85 CA         -2.8228  -25.4135  -50.7565 C.3       15 UNK         0.1400 
     86 CB         -2.9694  -24.0550  -51.4630 C.3       15 UNK        -0.1800 
     87 C          -4.0839  -25.7813  -49.9538 C.2       15 UNK         0.5000 
     88 O          -5.1853  -25.6710  -50.4932 O.2       15 UNK        -0.5000 
     89 N          -3.9129  -26.2173  -48.6964 N.am      16 UNK        -0.5000 
     90 CA         -4.9627  -26.6245  -47.7510 C.3       16 UNK         0.1400 
     91 CB         -5.7147  -27.8723  -48.2617 C.3       16 UNK        -0.1800 
     92 C          -5.9140  -25.4814  -47.3253 C.2       16 UNK         0.5000 
     93 O          -7.0334  -25.7567  -46.8896 O.2       16 UNK        -0.5000 
     94 N          -5.4239  -24.2353  -47.4132 N.am      17 UNK        -0.5000 
     95 CA         -6.0611  -22.9624  -47.0564 C.3       17 UNK         0.1400 
     96 CB         -6.5181  -22.9478  -45.5829 C.3       17 UNK        -0.1800 
     97 C          -7.2006  -22.5337  -48.0035 C.2       17 UNK         0.5000 
     98 O          -7.7936  -23.3574  -48.7021 O.2       17 UNK        -0.5000 
     99 N          -7.4790  -21.2203  -47.9961 N.am      18 UNK        -0.5000 
    100 CA        -8.5259  -20.5225  -48.7586 C.3       18 UNK         0.1400 
    101 CB        -9.9258  -20.9388  -48.2598 C.3       18 UNK        -0.1800 
    102 C         -8.3807  -20.6386  -50.2937 C.2       18 UNK         0.5000 
    103 O         -9.3744  -20.5404  -51.0169 O.2       18 UNK        -0.5000 
    104 N         -7.1452  -20.8426  -50.7637 N.am      19 UNK        -0.5000 
    105 CA        -6.7928  -20.9597  -52.1755 C.3       19 UNK         0.1400 
    106 CB        -5.5617  -21.8706  -52.2846 C.3       19 UNK        -0.1800 
    107 C         -6.5264  -19.5834  -52.8125 C.2       19 UNK         0.5000 
    108 O         -6.4735  -18.5661  -52.1162 O.2       19 UNK        -0.5000 
    109 N         -6.3407  -19.5859  -54.1343 N.am      20 UNK        -0.5000 
    110 CA        -5.9981  -18.4291  -54.9525 C.3       20 UNK         0.1400 
    111 CB        -7.2824  -17.6808  -55.3543 C.3       20 UNK        -0.1800 
    112 C         -5.2212  -18.9144  -56.1862 C.2       20 UNK         0.5000 
    113 O         -5.2058  -20.1171  -56.4647 O.2       20 UNK        -0.5000 
    114 N         -4.6050  -17.9647  -56.9041 N.am      21 UNK        -0.5000 
    115 CA        -3.8379  -18.1540  -58.1434 C.3       21 UNK         0.1400 
    116 CB        -4.7514  -18.6443  -59.2876 C.3       21 UNK        -0.1800 
    117 C         -2.5720  -19.0220  -57.9635 C.2       21 UNK         0.5000 
    118 O         -2.2080  -19.7819  -58.8632 O.2       21 UNK        -0.5000 
    119 N         -1.9139  -18.8792  -56.8048 N.am      22 UNK        -0.5000 
    120 CA        -0.6318  -19.5307  -56.4828 C.3       22 UNK         0.1400 
    121 C          0.5824  -18.9642  -57.2839 C.2       22 UNK         0.5000 
    122 N          0.5288  -17.7341  -57.7824 N.am      22 UNK        -0.7600 
    123 O          1.5773  -19.6560  -57.4812 O.2       22 UNK        -0.5000 
    124 C124       -0.3766  -19.5078  -54.9524 C.3       23 UNK        -0.0398 
    125 S125        0.8346  -20.7554  -54.3857 S.3       23 UNK        -0.2404 
    126 C126        0.0011  -21.4861  -52.9390 C.3       23 UNK        -0.0205 
    127 H127       -0.8983  -11.8478  -49.9481 H         1 UNK         0.0600 
    128 H128       -0.4349  -11.6468  -48.2543 H         1 UNK         0.0600 
    129 H129       -0.8628  -13.2456  -48.8734 H         1 UNK         0.0600 
    130 H130        1.0090  -14.4736  -48.9143 H         1 UNK         0.3000 
    131 H131        3.2263  -13.8009  -50.5679 H         1 UNK         0.0600 
    132 H132        4.1766  -15.9613  -49.8427 H         1 UNK         0.0800 
    133 H133        3.0382  -16.0686  -48.5250 H         1 UNK         0.0800 
    134 H134        1.1607  -17.5874  -48.6544 H         1 UNK         0.0800 
    135 H135        2.3625  -18.5907  -49.4408 H         1 UNK         0.0800 
    136 H136        1.7248  -19.9028  -51.5234 H         1 UNK         0.1150 
    137 H137       -2.4473  -20.7838  -51.9736 H         1 UNK         0.1150 
    138 H138       -1.1768  -17.7910  -49.1816 H         1 UNK         0.1150 
    139 H139       -3.5290  -18.0818  -49.6154 H         1 UNK         0.0800 
    140 H140       -4.0412  -19.0029  -51.0046 H         1 UNK         0.0800 
    141 H141       -3.4440  -20.2750  -46.6767 H         1 UNK         0.0800 
    142 H142       -2.4459  -19.2253  -47.6209 H         1 UNK         0.0800 
    143 H143       -1.4483  -21.4473  -48.6783 H         1 UNK         0.0600 
    144 H144       -0.5901  -19.9641  -46.4559 H         1 UNK         0.3000 
    145 H145        2.4389  -21.8079  -45.8205 H         1 UNK         0.0600 
    146 H146        3.3640  -19.5432  -46.0814 H         1 UNK         0.0600 
    147 H147        2.8929  -20.1697  -47.6543 H         1 UNK         0.0600 
    148 H148        1.8795  -18.9798  -46.8399 H         1 UNK         0.0600 
    149 H149        1.3308  -19.5550  -44.4938 H         1 UNK         0.3000 
    150 H150       -0.6588  -21.3774  -42.1160 H         1 UNK         0.0600 
    151 H151        1.6759  -21.2654  -41.2366 H         1 UNK         0.0600 
    152 H152        0.6889  -19.9573  -40.6019 H         1 UNK         0.0600 
    153 H153        1.8547  -19.6394  -41.8840 H         1 UNK         0.0600 
    154 H154       -0.3336  -18.5864  -42.4968 H         1 UNK         0.3000 
    155 H155       -3.0120  -18.1410  -44.8637 H         1 UNK         0.0600 
    156 H156       -2.5732  -17.2948  -41.9517 H         1 UNK         0.0600 
    157 H157       -3.9680  -18.1862  -42.5493 H         1 UNK         0.0600 
    158 H158       -3.6754  -16.5453  -43.1041 H         1 UNK         0.0600 
    159 H159       -1.2019  -16.2592  -43.7541 H         1 UNK         0.3000 
    160 H160        1.3392  -16.5430  -46.2978 H         1 UNK         0.0600 
    161 H161       -0.6639  -14.3599  -45.5132 H         1 UNK         0.0600 
    162 H162       -0.4359  -14.9997  -47.1356 H         1 UNK         0.0600 
    163 H163        0.8629  -14.1068  -46.3496 H         1 UNK         0.0600 
    164 H164        1.2271  -14.9187  -43.9788 H         1 UNK         0.3000 
    165 H165        2.7469  -17.2005  -41.6815 H         1 UNK         0.0600 
    166 H166        4.2530  -15.2642  -41.4481 H         1 UNK         0.0600 
    167 H167        4.5695  -16.0635  -42.9805 H         1 UNK         0.0600 
    168 H168        3.6550  -14.5610  -42.9476 H         1 UNK         0.0600 
    169 H169        1.6889  -14.5173  -41.5073 H         1 UNK         0.3000 
    170 H170       -1.5359  -15.4358  -40.3071 H         1 UNK         0.0600 
    171 H171       -0.0260  -15.6396  -38.3280 H         1 UNK         0.0600 
    172 H172        0.8945  -14.2408  -38.8688 H         1 UNK         0.0600 
    173 H173       -0.7925  -14.0605  -38.3867 H         1 UNK         0.0600 
    174 H174       -0.2092  -12.9130  -40.6501 H         1 UNK         0.3000 
    175 H175       -1.3712  -12.3335  -43.9871 H         1 UNK         0.0600 
    176 H176       -2.0732  -11.0631  -41.2898 H         1 UNK         0.0600 
    177 H177       -2.3107  -10.3430  -42.8823 H         1 UNK         0.0600 
    178 H178       -3.2351  -11.7597  -42.4128 H         1 UNK         0.0600 
    179 H179        0.1179  -10.5589  -42.5236 H         1 UNK         0.3000 
    180 H180        2.2214  -10.1023  -43.4727 H         1 UNK         0.0600 
    181 H181        3.5215  -12.1193  -41.5462 H         1 UNK         0.0600 
    182 H182        2.4924  -10.7735  -41.0712 H         1 UNK         0.0600 
    183 H183        4.0563  -10.4587  -41.8043 H         1 UNK         0.0600 
    184 H184        4.3344  -12.0398  -43.8486 H         1 UNK         0.3000 
    185 H185        4.9903  -11.6172  -46.8675 H         1 UNK         0.0600 
    186 H186        5.7907  -12.8929  -44.8560 H         1 UNK         0.0600 
    187 H187        4.5559  -14.1252  -45.1330 H         1 UNK         0.0600 
    188 H188        5.8699  -13.9045  -46.2794 H         1 UNK         0.0600 
    189 H189        2.5688  -13.0416  -47.2873 H         1 UNK         0.3000 
    190 H190       -2.0664  -22.0119  -45.1918 H         1 UNK         0.3000 
    191 H191       -3.6610  -24.3350  -45.4425 H         1 UNK         0.0600 
    192 H192       -1.8104  -23.4875  -43.1621 H         1 UNK         0.0600 
    193 H193       -3.0882  -24.6908  -43.0590 H         1 UNK         0.0600 
    194 H194       -3.4932  -23.0078  -43.3624 H         1 UNK         0.0600 
    195 H195       -0.1058  -23.9981  -45.1731 H         1 UNK         0.3000 
    196 H196        0.4464  -26.8037  -45.1596 H         1 UNK         0.0600 
    197 H197        2.7966  -26.0497  -45.5457 H         1 UNK         0.0600 
    198 H198        2.0255  -25.1299  -44.2617 H         1 UNK         0.0600 
    199 H199        2.2302  -24.4127  -45.8573 H         1 UNK         0.0600 
    200 H200        0.5900  -24.3525  -47.8122 H         1 UNK         0.3000 
    201 H201        1.5652  -26.3075  -49.7070 H         1 UNK         0.0600 
    202 H202        2.3259  -23.9346  -49.6785 H         1 UNK         0.0600 
    203 H203        0.7018  -23.3975  -50.1050 H         1 UNK         0.0600 
    204 H204        1.6361  -24.3689  -51.2351 H         1 UNK         0.0600 
    205 H205       -1.6246  -24.7508  -49.1467 H         1 UNK         0.3000 
    206 H206       -2.7419  -26.1816  -51.5278 H         1 UNK         0.0600 
    207 H207       -2.0637  -23.7937  -52.0097 H         1 UNK         0.0600 
    208 H208       -3.7817  -24.0824  -52.1883 H         1 UNK         0.0600 
    209 H209       -3.1751  -23.2530  -50.7524 H         1 UNK         0.0600 
    210 H210       -2.9679  -26.2578  -48.3402 H         1 UNK         0.3000 
    211 H211       -4.4429  -26.9220  -46.8406 H         1 UNK         0.0600 
    212 H212       -6.3412  -27.6447  -49.1244 H         1 UNK         0.0600 
    213 H213       -6.3650  -28.2812  -47.4876 H         1 UNK         0.0600 
    214 H214       -5.0203  -28.6619  -48.5486 H         1 UNK         0.0600 
    215 H215       -4.4901  -24.1436  -47.8010 H         1 UNK         0.3000 
    216 H216       -5.2721  -22.2181  -47.1529 H         1 UNK         0.0600 
    217 H217       -6.8406  -21.9501  -45.2837 H         1 UNK         0.0600 
    218 H218       -5.7109  -23.2364  -44.9108 H         1 UNK         0.0600 
    219 H219       -7.3578  -23.6206  -45.4084 H         1 UNK         0.0600 
    220 H220       -6.9231  -20.6226  -47.4006 H         1 UNK         0.3000 
    221 H221       -8.4034  -19.4623  -48.5331 H         1 UNK         0.0600 
    222 H222      -10.1515  -21.9761  -48.5085 H         1 UNK         0.0600 
    223 H223      -10.0085  -20.8274  -47.1787 H         1 UNK         0.0600 
    224 H224      -10.7034  -20.3189  -48.7077 H         1 UNK         0.0600 
    225 H225       -6.3784  -20.8599  -50.1071 H         1 UNK         0.3000 
    226 H226       -7.6168  -21.4299  -52.7165 H         1 UNK         0.0600 
    227 H227       -5.7586  -22.8384  -51.8226 H         1 UNK         0.0600 
    228 H228       -5.2904  -22.0578  -53.3241 H         1 UNK         0.0600 
    229 H229       -4.6943  -21.4349  -51.7908 H         1 UNK         0.0600 
    230 H230       -6.3284  -20.4605  -54.6453 H         1 UNK         0.3000 
    231 H231       -5.3460  -17.7619  -54.3846 H         1 UNK         0.0600 
    232 H232       -7.8279  -17.3328  -54.4769 H         1 UNK         0.0600 
    233 H233       -7.9523  -18.3182  -55.9329 H         1 UNK         0.0600 
    234 H234       -7.0567  -16.8037  -55.9615 H         1 UNK         0.0600 
    235 H235       -4.6776  -17.0075  -56.5872 H         1 UNK         0.3000 
    236 H236       -3.4761  -17.1642  -58.4253 H         1 UNK         0.0600 
    237 H237       -5.1035  -19.6623  -59.1194 H         1 UNK         0.0600 
    238 H238       -5.6245  -18.0012  -59.3982 H         1 UNK         0.0600 
    239 H239       -4.2224  -18.6362  -60.2413 H         1 UNK         0.0600 
    240 H240       -2.2787  -18.2335  -56.1206 H         1 UNK         0.3000 
    241 H241       -0.7335  -20.5766  -56.7797 H         1 UNK         0.0600 
    242 H242        1.3121  -17.3798  -58.3090 H         1 UNK         0.3800 
    243 H243       -0.2803  -17.1516  -57.6391 H         1 UNK         0.3800 
    244 H244       -1.3165  -19.6937  -54.4313 H         1 UNK         0.0800 
    245 H245       -0.0465  -18.5206  -54.6242 H         1 UNK         0.0800 
    246 H246        0.6473  -22.2508  -52.5069 H         1 UNK         0.0800 
    247 H247       -0.9009  -21.9992  -53.2754 H         1 UNK         0.0800 
@<TRIPOS>BOND
     1    1    2 1    
     2    1  127 1    
     3    1  128 1    
     4    1  129 1    
     5    2    3 2    
     6    2    4 am   BACKBONE|DICT|INTERRES
     7    4    5 1    
     8    4  130 1    
     9    5    6 1    
    10    5   65 1    
    11    5  131 1    
    12    6    7 1    
    13    6  132 1    
    14    6  133 1    
    15    7    8 1    
    16    8    9 1    
    17    8  134 1    
    18    8  135 1    
    19    9   10 ar   
    20    9   14 ar   
    21   10   11 ar   
    22   10  136 1    
    23   11   12 ar   
    24   11  126 1    
    25   12   13 ar   
    26   12  137 1    
    27   13   14 ar   
    28   13   15 1    
    29   14  138 1    
    30   15   16 1    
    31   15  139 1    
    32   15  140 1    
    33   16   17 1    
    34   17   18 1    
    35   17  141 1    
    36   17  142 1    
    37   18   19 1    
    38   18   67 1    
    39   18  143 1    
    40   19   20 am   BACKBONE|DICT|INTERRES
    41   19  144 1    
    42   20   21 2    
    43   20   22 1    
    44   22   23 1    
    45   22   24 1    
    46   22  145 1    
    47   23  146 1    
    48   23  147 1    
    49   23  148 1    
    50   24   25 am   BACKBONE|DICT|INTERRES
    51   24  149 1    
    52   25   26 2    
    53   25   27 1    
    54   27   28 1    
    55   27   29 1    
    56   27  150 1    
    57   28  151 1    
    58   28  152 1    
    59   28  153 1    
    60   29   30 am   BACKBONE|DICT|INTERRES
    61   29  154 1    
    62   30   31 2    
    63   30   32 1    
    64   32   33 1    
    65   32   34 1    
    66   32  155 1    
    67   33  156 1    
    68   33  157 1    
    69   33  158 1    
    70   34   35 am   BACKBONE|DICT|INTERRES
    71   34  159 1    
    72   35   36 2    
    73   35   37 1    
    74   37   38 1    
    75   37   39 1    
    76   37  160 1    
    77   38  161 1    
    78   38  162 1    
    79   38  163 1    
    80   39   40 am   BACKBONE|DICT|INTERRES
    81   39  164 1    
    82   40   41 2    
    83   40   42 1    
    84   42   43 1    
    85   42   44 1    
    86   42  165 1    
    87   43  166 1    
    88   43  167 1    
    89   43  168 1    
    90   44   45 am   BACKBONE|DICT|INTERRES
    91   44  169 1    
    92   45   46 2    
    93   45   47 1    
    94   47   48 1    
    95   47   49 1    
    96   47  170 1    
    97   48  171 1    
    98   48  172 1    
    99   48  173 1    
   100   49   50 am   BACKBONE|DICT|INTERRES
   101   49  174 1    
   102   50   51 2    
   103   50   52 1    
   104   52   53 1    
   105   52   54 1    
   106   52  175 1    
   107   53  176 1    
   108   53  177 1    
   109   53  178 1    
   110   54   55 am   BACKBONE|DICT|INTERRES
   111   54  179 1    
   112   55   56 2    
   113   55   57 1    
   114   57   58 1    
   115   57   59 1    
   116   57  180 1    
   117   58  181 1    
   118   58  182 1    
   119   58  183 1    
   120   59   60 am   BACKBONE|DICT|INTERRES
   121   59  184 1    
   122   60   61 2    
   123   60   62 1    
   124   62   63 1    
   125   62   64 1    
   126   62  185 1    
   127   63  186 1    
   128   63  187 1    
   129   63  188 1    
   130   64   65 am   BACKBONE|DICT|INTERRES
   131   64  189 1    
   132   65   66 2    
   133   67   68 2    
   134   67   69 am   BACKBONE|DICT|INTERRES
   135   69   70 1    
   136   69  190 1    
   137   70   71 1    
   138   70   72 1    
   139   70  191 1    
   140   71  192 1    
   141   71  193 1    
   142   71  194 1    
   143   72   73 2    
   144   72   74 am   BACKBONE|DICT|INTERRES
   145   74   75 1    
   146   74  195 1    
   147   75   76 1    
   148   75   77 1    
   149   75  196 1    
   150   76  197 1    
   151   76  198 1    
   152   76  199 1    
   153   77   78 2    
   154   77   79 am   BACKBONE|DICT|INTERRES
   155   79   80 1    
   156   79  200 1    
   157   80   81 1    
   158   80   82 1    
   159   80  201 1    
   160   81  202 1    
   161   81  203 1    
   162   81  204 1    
   163   82   83 2    
   164   82   84 am   BACKBONE|DICT|INTERRES
   165   84   85 1    
   166   84  205 1    
   167   85   86 1    
   168   85   87 1    
   169   85  206 1    
   170   86  207 1    
   171   86  208 1    
   172   86  209 1    
   173   87   88 2    
   174   87   89 am   BACKBONE|DICT|INTERRES
   175   89   90 1    
   176   89  210 1    
   177   90   91 1    
   178   90   92 1    
   179   90  211 1    
   180   91  212 1    
   181   91  213 1    
   182   91  214 1    
   183   92   93 2    
   184   92   94 am   BACKBONE|DICT|INTERRES
   185   94   95 1    
   186   94  215 1    
   187   95   96 1    
   188   95   97 1    
   189   95  216 1    
   190   96  217 1    
   191   96  218 1    
   192   96  219 1    
   193   97   98 2    
   194   97   99 am   BACKBONE|DICT|INTERRES
   195   99  100 1    
   196   99  220 1    
   197  100  101 1    
   198  100  102 1    
   199  100  221 1    
   200  101  222 1    
   201  101  223 1    
   202  101  224 1    
   203  102  103 2    
   204  102  104 am   BACKBONE|DICT|INTERRES
   205  104  105 1    
   206  104  225 1    
   207  105  106 1    
   208  105  107 1    
   209  105  226 1    
   210  106  227 1    
   211  106  228 1    
   212  106  229 1    
   213  107  108 2    
   214  107  109 am   BACKBONE|DICT|INTERRES
   215  109  110 1    
   216  109  230 1    
   217  110  111 1    
   218  110  112 1    
   219  110  231 1    
   220  111  232 1    
   221  111  233 1    
   222  111  234 1    
   223  112  113 2    
   224  112  114 am   BACKBONE|DICT|INTERRES
   225  114  115 1    
   226  114  235 1    
   227  115  116 1    
   228  115  117 1    
   229  115  236 1    
   230  116  237 1    
   231  116  238 1    
   232  116  239 1    
   233  117  118 2    
   234  117  119 am   BACKBONE|DICT|INTERRES
   235  119  120 1    
   236  119  240 1    
   237  120  121 1    
   238  120  124 1    
   239  120  241 1    
   240  121  122 am   BACKBONE|DICT|INTERRES
   241  121  123 2    
   242  122  242 1    
   243  122  243 1    
   244  124  125 1    
   245  124  244 1    
   246  124  245 1    
   247  125  126 1    
   248  126  246 1    
   249  126  247 1    
@<TRIPOS>SUBSTRUCTURE
     1 UNK         1 GROUP             0       ****    0 ROOT    
