@<TRIPOS>MOLECULE
3R540
247   249    1
SMALL
USER_CHARGES


@<TRIPOS>ATOM
      1 CA          1.0146  -17.6541  -43.9434 C.3       0 UNK        -0.1800 
      2 C           1.4760  -16.2423  -44.2608 C.2       0 UNK         0.5000 
      3 O           2.0216  -15.5670  -43.3901 O.2       0 UNK        -0.5000 
      4 N           1.2756  -15.7910  -45.5051 N.am      1 UNK        -0.5000 
      5 CA          1.7060  -14.4845  -46.0245 C.3       1 UNK         0.1400 
      6 C6          1.1289  -14.2235  -47.4502 C.3       23 UNK        -0.0398 
      7 S7          2.1104  -13.1896  -48.6015 S.3       23 UNK        -0.2404 
      8 C8          1.4695  -13.7179  -50.2301 C.3       23 UNK        -0.0205 
      9 C9          1.6849  -15.1864  -50.6066 C.ar      23 UNK        -0.0193 
     10 C10         0.9725  -15.6985  -51.6946 C.ar      23 UNK        -0.1150 
     11 C11         1.1103  -17.0345  -52.0801 C.ar      23 UNK        -0.0193 
     12 C12         1.9469  -17.8788  -51.3450 C.ar      23 UNK        -0.1150 
     13 C13         2.6630  -17.3873  -50.2497 C.ar      23 UNK        -0.0193 
     14 C14         2.5571  -16.0353  -49.9118 C.ar      23 UNK        -0.1150 
     15 C15         3.5393  -18.3166  -49.4189 C.3       23 UNK        -0.0205 
     16 S16         3.0328  -18.3561  -47.6660 S.3       23 UNK        -0.2404 
     17 C17         1.3267  -18.9862  -47.7901 C.3       23 UNK        -0.0398 
     18 CA          1.0319  -20.1385  -46.7977 C.3       11 UNK         0.1400 
     19 N          -0.3655  -20.0962  -46.3502 N.am      11 UNK        -0.5000 
     20 C          -0.8469  -20.7153  -45.2616 C.2       10 UNK         0.5000 
     21 O          -0.1807  -21.4863  -44.5714 O.2       10 UNK        -0.5000 
     22 CA         -2.3033  -20.4153  -44.8554 C.3       10 UNK         0.1400 
     23 CB         -2.3418  -19.5362  -43.5950 C.3       10 UNK        -0.1800 
     24 N          -3.0637  -19.7487  -45.9108 N.am      10 UNK        -0.5000 
     25 C          -3.6590  -20.3797  -46.9315 C.2       9 UNK         0.5000 
     26 O          -3.6517  -21.6014  -47.0753 O.2       9 UNK        -0.5000 
     27 CA         -4.3675  -19.4938  -47.9749 C.3       9 UNK         0.1400 
     28 CB         -5.8542  -19.3466  -47.6223 C.3       9 UNK        -0.1800 
     29 N          -3.7797  -18.1600  -48.1290 N.am      9 UNK        -0.5000 
     30 C          -2.5177  -17.9057  -48.5066 C.2       8 UNK         0.5000 
     31 O          -1.6868  -18.7778  -48.7497 O.2       8 UNK        -0.5000 
     32 CA         -2.0932  -16.4264  -48.5318 C.3       8 UNK         0.1400 
     33 CB         -2.4193  -15.7894  -49.8896 C.3       8 UNK        -0.1800 
     34 N          -2.7099  -15.6451  -47.4533 N.am      8 UNK        -0.5000 
     35 C          -2.4753  -15.8540  -46.1508 C.2       7 UNK         0.5000 
     36 O          -1.6861  -16.7031  -45.7327 O.2       7 UNK        -0.5000 
     37 CA         -3.2849  -15.0159  -45.1449 C.3       7 UNK         0.1400 
     38 CB         -4.2760  -15.9106  -44.3842 C.3       7 UNK        -0.1800 
     39 N          -2.4074  -14.3484  -44.1839 N.am      7 UNK        -0.5000 
     40 C          -1.5980  -13.3282  -44.4938 C.2       6 UNK         0.5000 
     41 O          -1.5858  -12.7901  -45.6014 O.2       6 UNK        -0.5000 
     42 CA         -0.6475  -12.8369  -43.3874 C.3       6 UNK         0.1400 
     43 CB          0.0083  -11.4864  -43.7400 C.3       6 UNK        -0.1800 
     44 N          -1.3572  -12.6968  -42.1147 N.am      6 UNK        -0.5000 
     45 C          -1.0922  -13.2082  -40.8992 C.2       5 UNK         0.5000 
     46 O          -1.8403  -12.9620  -39.9547 O.2       5 UNK        -0.5000 
     47 CA          0.1209  -14.1334  -40.6277 C.3       5 UNK         0.1400 
     48 CB         -0.2154  -15.5791  -41.0226 C.3       5 UNK        -0.1800 
     49 N           1.3884  -13.7297  -41.2380 N.am      5 UNK        -0.5000 
     50 C           2.0682  -12.6114  -40.9518 C.2       4 UNK         0.5000 
     51 O           1.7222  -11.8110  -40.0812 O.2       4 UNK        -0.5000 
     52 CA          3.3297  -12.3352  -41.8023 C.3       4 UNK         0.1400 
     53 CB          4.2974  -11.3277  -41.1471 C.3       4 UNK        -0.1800 
     54 N           4.0327  -13.5541  -42.2159 N.am      4 UNK        -0.5000 
     55 C           4.6373  -14.4581  -41.4282 C.2       3 UNK         0.5000 
     56 O           4.7331  -14.3433  -40.2057 O.2       3 UNK        -0.5000 
     57 CA          5.2231  -15.7134  -42.1090 C.3       3 UNK         0.1400 
     58 CB          4.5872  -16.9913  -41.5345 C.3       3 UNK        -0.1800 
     59 N           5.0216  -15.7093  -43.5595 N.am      3 UNK        -0.5000 
     60 C           5.9177  -15.3025  -44.4687 C.2       2 UNK         0.5000 
     61 O           7.0505  -14.9141  -44.1821 O.2       2 UNK        -0.5000 
     62 CA          5.4789  -15.3214  -45.9494 C.3       2 UNK         0.1400 
     63 CB          6.0678  -16.5439  -46.6689 C.3       2 UNK        -0.1800 
     64 N           4.0248  -15.3136  -46.1376 N.am      2 UNK        -0.5000 
     65 C           3.2303  -14.2698  -45.8581 C.2       1 UNK         0.5000 
     66 O           3.6463  -13.2035  -45.4026 O.2       1 UNK        -0.5000 
     67 C           1.4382  -21.5140  -47.3705 C.2       11 UNK         0.5000 
     68 O           2.6145  -21.8750  -47.3211 O.2       11 UNK        -0.5000 
     69 N           0.4537  -22.2662  -47.8729 N.am      12 UNK        -0.5000 
     70 CA          0.5971  -23.6243  -48.3833 C.3       12 UNK         0.1400 
     71 CB          1.0631  -23.5963  -49.8519 C.3       12 UNK        -0.1800 
     72 C          -0.7377  -24.3516  -48.1746 C.2       12 UNK         0.5000 
     73 O          -1.3380  -24.8380  -49.1327 O.2       12 UNK        -0.5000 
     74 N          -1.2048  -24.3743  -46.9178 N.am      13 UNK        -0.5000 
     75 CA         -2.5240  -24.8685  -46.5056 C.3       13 UNK         0.1400 
     76 CB         -2.6505  -24.7620  -44.9791 C.3       13 UNK        -0.1800 
     77 C          -2.8536  -26.2986  -46.9753 C.2       13 UNK         0.5000 
     78 O          -3.9862  -26.5615  -47.3841 O.2       13 UNK        -0.5000 
     79 N          -1.8407  -27.1754  -46.9522 N.am      14 UNK        -0.5000 
     80 CA         -1.9173  -28.5644  -47.4068 C.3       14 UNK         0.1400 
     81 CB         -0.6425  -29.3014  -46.9693 C.3       14 UNK        -0.1800 
     82 C          -2.1280  -28.7130  -48.9269 C.2       14 UNK         0.5000 
     83 O          -2.6735  -29.7282  -49.3608 O.2       14 UNK        -0.5000 
     84 N          -1.7297  -27.7023  -49.7117 N.am      15 UNK        -0.5000 
     85 CA         -1.8980  -27.6444  -51.1634 C.3       15 UNK         0.1400 
     86 CB         -0.7123  -26.8779  -51.7787 C.3       15 UNK        -0.1800 
     87 C          -3.2607  -27.0230  -51.5257 C.2       15 UNK         0.5000 
     88 O          -3.3159  -26.0598  -52.2914 O.2       15 UNK        -0.5000 
     89 N          -4.3351  -27.5786  -50.9457 N.am      16 UNK        -0.5000 
     90 CA         -5.7401  -27.1952  -51.1197 C.3       16 UNK         0.1400 
     91 CB         -6.2261  -27.5831  -52.5322 C.3       16 UNK        -0.1800 
     92 C          -5.9953  -25.7110  -50.7877 C.2       16 UNK         0.5000 
     93 O          -6.5143  -24.9719  -51.6267 O.2       16 UNK        -0.5000 
     94 N          -5.5840  -25.2959  -49.5788 N.am      17 UNK        -0.5000 
     95 CA         -5.6492  -23.9207  -49.0676 C.3       17 UNK         0.1400 
     96 CB         -7.1135  -23.4849  -48.8469 C.3       17 UNK        -0.1800 
     97 C          -4.8541  -22.9403  -49.9534 C.2       17 UNK         0.5000 
     98 O          -5.3725  -21.8873  -50.3272 O.2       17 UNK        -0.5000 
     99 N          -3.6257  -23.3442  -50.3099 N.am      18 UNK        -0.5000 
    100 CA        -2.6924  -22.6722  -51.2161 C.3       18 UNK         0.1400 
    101 CB        -2.1087  -21.4130  -50.5490 C.3       18 UNK        -0.1800 
    102 C         -3.3298  -22.3877  -52.5881 C.2       18 UNK         0.5000 
    103 O         -3.4315  -21.2305  -52.9941 O.2       18 UNK        -0.5000 
    104 N         -3.7917  -23.4601  -53.2467 N.am      19 UNK        -0.5000 
    105 CA        -4.4921  -23.4725  -54.5341 C.3       19 UNK         0.1400 
    106 CB        -3.5190  -23.1114  -55.6758 C.3       19 UNK        -0.1800 
    107 C         -5.7676  -22.6024  -54.5262 C.2       19 UNK         0.5000 
    108 O         -5.9949  -21.8286  -55.4586 O.2       19 UNK        -0.5000 
    109 N         -6.5645  -22.7473  -53.4568 N.am      20 UNK        -0.5000 
    110 CA        -7.7802  -21.9935  -53.1441 C.3       20 UNK         0.1400 
    111 CB        -8.9125  -22.3548  -54.1282 C.3       20 UNK        -0.1800 
    112 C         -7.5210  -20.4754  -53.0357 C.2       20 UNK         0.5000 
    113 O         -8.1709  -19.6859  -53.7239 O.2       20 UNK        -0.5000 
    114 N         -6.5752  -20.1134  -52.1571 N.am      21 UNK        -0.5000 
    115 CA        -6.1180  -18.7632  -51.8255 C.3       21 UNK         0.1400 
    116 CB        -7.2543  -17.9394  -51.1837 C.3       21 UNK        -0.1800 
    117 C         -5.4654  -18.0483  -53.0253 C.2       21 UNK         0.5000 
    118 O         -6.0853  -17.1887  -53.6542 O.2       21 UNK        -0.5000 
    119 N         -4.2105  -18.4172  -53.3044 N.am      22 UNK        -0.5000 
    120 CA        -3.3317  -17.8626  -54.3512 C.3       22 UNK         0.1400 
    121 C         -3.0810  -16.3214  -54.3372 C.2       22 UNK         0.5000 
    122 N         -3.4028  -15.5936  -53.2755 N.am      22 UNK        -0.7600 
    123 O         -2.5833  -15.7758  -55.3184 O.2       22 UNK        -0.5000 
    124 C124       -1.9866  -18.6360  -54.4073 C.3       23 UNK        -0.0398 
    125 S125       -1.0577  -18.5813  -52.8293 S.3       23 UNK        -0.2404 
    126 C126        0.3654  -17.5552  -53.2994 C.3       23 UNK        -0.0205 
    127 H127        0.4514  -17.6758  -43.0118 H         1 UNK         0.0600 
    128 H128        1.8745  -18.3152  -43.8388 H         1 UNK         0.0600 
    129 H129        0.3753  -18.0427  -44.7318 H         1 UNK         0.0600 
    130 H130        0.7562  -16.3747  -46.1440 H         1 UNK         0.3000 
    131 H131        1.2544  -13.7361  -45.3761 H         1 UNK         0.0600 
    132 H132        0.9560  -15.1793  -47.9409 H         1 UNK         0.0800 
    133 H133        0.1383  -13.7764  -47.3649 H         1 UNK         0.0800 
    134 H134        0.4022  -13.4928  -50.2614 H         1 UNK         0.0800 
    135 H135        1.9370  -13.0976  -50.9958 H         1 UNK         0.0800 
    136 H136        0.3082  -15.0503  -52.2496 H         1 UNK         0.1150 
    137 H137        2.0334  -18.9189  -51.6264 H         1 UNK         0.1150 
    138 H138        3.1354  -15.6661  -49.0782 H         1 UNK         0.1150 
    139 H139        3.5194  -19.3328  -49.8160 H         1 UNK         0.0800 
    140 H140        4.5746  -17.9798  -49.4826 H         1 UNK         0.0800 
    141 H141        1.0890  -19.2770  -48.8153 H         1 UNK         0.0800 
    142 H142        0.6834  -18.1322  -47.5779 H         1 UNK         0.0800 
    143 H143        1.6417  -19.9831  -45.9050 H         1 UNK         0.0600 
    144 H144       -0.9924  -19.5253  -46.9051 H         1 UNK         0.3000 
    145 H145       -2.7820  -21.3665  -44.6165 H         1 UNK         0.0600 
    146 H146       -3.3660  -19.3794  -43.2562 H         1 UNK         0.0600 
    147 H147       -1.7969  -20.0029  -42.7734 H         1 UNK         0.0600 
    148 H148       -1.8951  -18.5576  -43.7699 H         1 UNK         0.0600 
    149 H149       -3.0811  -18.7389  -45.8831 H         1 UNK         0.3000 
    150 H150       -4.2946  -19.9959  -48.9376 H         1 UNK         0.0600 
    151 H151       -6.3365  -20.3223  -47.5548 H         1 UNK         0.0600 
    152 H152       -6.3858  -18.7757  -48.3821 H         1 UNK         0.0600 
    153 H153       -5.9935  -18.8431  -46.6648 H         1 UNK         0.0600 
    154 H154       -4.3825  -17.3768  -47.9260 H         1 UNK         0.3000 
    155 H155       -1.0108  -16.3966  -48.3984 H         1 UNK         0.0600 
    156 H156       -1.9579  -16.3525  -50.7026 H         1 UNK         0.0600 
    157 H157       -2.0380  -14.7699  -49.9481 H         1 UNK         0.0600 
    158 H158       -3.4934  -15.7601  -50.0750 H         1 UNK         0.0600 
    159 H159       -3.3576  -14.9209  -47.7295 H         1 UNK         0.3000 
    160 H160       -3.8535  -14.2558  -45.6851 H         1 UNK         0.0600 
    161 H161       -3.7636  -16.6751  -43.7985 H         1 UNK         0.0600 
    162 H162       -4.9508  -16.4219  -45.0721 H         1 UNK         0.0600 
    163 H163       -4.8920  -15.3244  -43.7022 H         1 UNK         0.0600 
    164 H164       -2.3641  -14.7469  -43.2583 H         1 UNK         0.3000 
    165 H165        0.1213  -13.6007  -43.3345 H         1 UNK         0.0600 
    166 H166        0.6317  -11.1154  -42.9286 H         1 UNK         0.0600 
    167 H167        0.6409  -11.5686  -44.6243 H         1 UNK         0.0600 
    168 H168       -0.7418  -10.7216  -43.9448 H         1 UNK         0.0600 
    169 H169       -2.1937  -12.1353  -42.1866 H         1 UNK         0.3000 
    170 H170        0.2879  -14.1282  -39.5484 H         1 UNK         0.0600 
    171 H171       -0.4702  -15.6592  -42.0784 H         1 UNK         0.0600 
    172 H172        0.6203  -16.2502  -40.8229 H         1 UNK         0.0600 
    173 H173       -1.0707  -15.9477  -40.4551 H         1 UNK         0.0600 
    174 H174        1.7503  -14.3441  -41.9632 H         1 UNK         0.3000 
    175 H175        2.9706  -11.8803  -42.7262 H         1 UNK         0.0600 
    176 H176        5.1696  -11.1525  -41.7768 H         1 UNK         0.0600 
    177 H177        4.6485  -11.6735  -40.1746 H         1 UNK         0.0600 
    178 H178        3.8115  -10.3635  -40.9932 H         1 UNK         0.0600 
    179 H179        4.0000  -13.7507  -43.2082 H         1 UNK         0.3000 
    180 H180        6.2907  -15.7367  -41.8817 H         1 UNK         0.0600 
    181 H181        5.0003  -17.8834  -42.0055 H         1 UNK         0.0600 
    182 H182        3.5064  -17.0064  -41.6779 H         1 UNK         0.0600 
    183 H183        4.7752  -17.0754  -40.4635 H         1 UNK         0.0600 
    184 H184        4.0919  -15.9600  -43.8699 H         1 UNK         0.3000 
    185 H185        5.8843  -14.4233  -46.4201 H         1 UNK         0.0600 
    186 H186        7.1555  -16.5592  -46.5884 H         1 UNK         0.0600 
    187 H187        5.6947  -17.4776  -46.2464 H         1 UNK         0.0600 
    188 H188        5.8224  -16.5325  -47.7309 H         1 UNK         0.0600 
    189 H189        3.6077  -16.1691  -46.4787 H         1 UNK         0.3000 
    190 H190       -0.4892  -21.9025  -47.8454 H         1 UNK         0.3000 
    191 H191        1.3434  -24.1603  -47.7933 H         1 UNK         0.0600 
    192 H192        1.1569  -24.6063  -50.2521 H         1 UNK         0.0600 
    193 H193        0.3650  -23.0517  -50.4867 H         1 UNK         0.0600 
    194 H194        2.0387  -23.1198  -49.9467 H         1 UNK         0.0600 
    195 H195       -0.6440  -23.9485  -46.1933 H         1 UNK         0.3000 
    196 H196       -3.2615  -24.2032  -46.9510 H         1 UNK         0.0600 
    197 H197       -3.6376  -25.0845  -44.6450 H         1 UNK         0.0600 
    198 H198       -2.5151  -23.7350  -44.6421 H         1 UNK         0.0600 
    199 H199       -1.9116  -25.3815  -44.4694 H         1 UNK         0.0600 
    200 H200       -0.9438  -26.8588  -46.6141 H         1 UNK         0.3000 
    201 H201       -2.7705  -29.0331  -46.9119 H         1 UNK         0.0600 
    202 H202       -0.5231  -29.2752  -45.8860 H         1 UNK         0.0600 
    203 H203        0.2497  -28.8624  -47.4176 H         1 UNK         0.0600 
    204 H204       -0.6762  -30.3508  -47.2653 H         1 UNK         0.0600 
    205 H205       -1.3867  -26.8510  -49.2800 H         1 UNK         0.3000 
    206 H206       -1.8830  -28.6556  -51.5751 H         1 UNK         0.0600 
    207 H207        0.2395  -27.3230  -51.4888 H         1 UNK         0.0600 
    208 H208       -0.7610  -26.8966  -52.8681 H         1 UNK         0.0600 
    209 H209       -0.7005  -25.8321  -51.4723 H         1 UNK         0.0600 
    210 H210       -4.1657  -28.3558  -50.3191 H         1 UNK         0.3000 
    211 H211       -6.3163  -27.7773  -50.3991 H         1 UNK         0.0600 
    212 H212       -5.7048  -27.0229  -53.3094 H         1 UNK         0.0600 
    213 H213       -7.2925  -27.3849  -52.6463 H         1 UNK         0.0600 
    214 H214       -6.0715  -28.6448  -52.7243 H         1 UNK         0.0600 
    215 H215       -5.1327  -25.9643  -48.9613 H         1 UNK         0.3000 
    216 H216       -5.1654  -23.9219  -48.0924 H         1 UNK         0.0600 
    217 H217       -7.1594  -22.5105  -48.3602 H         1 UNK         0.0600 
    218 H218       -7.6422  -24.1914  -48.2073 H         1 UNK         0.0600 
    219 H219       -7.6631  -23.4053  -49.7850 H         1 UNK         0.0600 
    220 H220       -3.2879  -24.2281  -49.9510 H         1 UNK         0.3000 
    221 H221       -1.8739  -23.3720  -51.3877 H         1 UNK         0.0600 
    222 H222       -2.8269  -20.5947  -50.5284 H         1 UNK         0.0600 
    223 H223       -1.7990  -21.6093  -49.5239 H         1 UNK         0.0600 
    224 H224       -1.2333  -21.0583  -51.0926 H         1 UNK         0.0600 
    225 H225       -3.6697  -24.3761  -52.8151 H         1 UNK         0.3000 
    226 H226       -4.8224  -24.5003  -54.6914 H         1 UNK         0.0600 
    227 H227       -2.6425  -23.7592  -55.6654 H         1 UNK         0.0600 
    228 H228       -3.9972  -23.2286  -56.6489 H         1 UNK         0.0600 
    229 H229       -3.1742  -22.0794  -55.6023 H         1 UNK         0.0600 
    230 H230       -6.3046  -23.4410  -52.7593 H         1 UNK         0.3000 
    231 H231       -8.0929  -22.3229  -52.1520 H         1 UNK         0.0600 
    232 H232       -8.6848  -22.0381  -55.1463 H         1 UNK         0.0600 
    233 H233       -9.8476  -21.8746  -53.8381 H         1 UNK         0.0600 
    234 H234       -9.0913  -23.4299  -54.1434 H         1 UNK         0.0600 
    235 H235       -6.0984  -20.8537  -51.6432 H         1 UNK         0.3000 
    236 H236       -5.3438  -18.8878  -51.0663 H         1 UNK         0.0600 
    237 H237       -7.6958  -18.4660  -50.3383 H         1 UNK         0.0600 
    238 H238       -6.8787  -16.9842  -50.8155 H         1 UNK         0.0600 
    239 H239       -8.0552  -17.7228  -51.8912 H         1 UNK         0.0600 
    240 H240       -3.8176  -19.2111  -52.8087 H         1 UNK         0.3000 
    241 H241       -3.8485  -18.0549  -55.2928 H         1 UNK         0.0600 
    242 H242       -3.8367  -16.0245  -52.4777 H         1 UNK         0.3800 
    243 H243       -3.2411  -14.5996  -53.2892 H         1 UNK         0.3800 
    244 H244       -2.1769  -19.6819  -54.6479 H         1 UNK         0.0800 
    245 H245       -1.3620  -18.2704  -55.2241 H         1 UNK         0.0800 
    246 H246        1.0424  -18.1407  -53.9229 H         1 UNK         0.0800 
    247 H247        0.0244  -16.7198  -53.9131 H         1 UNK         0.0800 
@<TRIPOS>BOND
     1    1    2 1    
     2    1  127 1    
     3    1  128 1    
     4    1  129 1    
     5    2    3 2    
     6    2    4 am   BACKBONE|DICT|INTERRES
     7    4    5 1    
     8    4  130 1    
     9    5    6 1    
    10    5   65 1    
    11    5  131 1    
    12    6    7 1    
    13    6  132 1    
    14    6  133 1    
    15    7    8 1    
    16    8    9 1    
    17    8  134 1    
    18    8  135 1    
    19    9   10 ar   
    20    9   14 ar   
    21   10   11 ar   
    22   10  136 1    
    23   11   12 ar   
    24   11  126 1    
    25   12   13 ar   
    26   12  137 1    
    27   13   14 ar   
    28   13   15 1    
    29   14  138 1    
    30   15   16 1    
    31   15  139 1    
    32   15  140 1    
    33   16   17 1    
    34   17   18 1    
    35   17  141 1    
    36   17  142 1    
    37   18   19 1    
    38   18   67 1    
    39   18  143 1    
    40   19   20 am   BACKBONE|DICT|INTERRES
    41   19  144 1    
    42   20   21 2    
    43   20   22 1    
    44   22   23 1    
    45   22   24 1    
    46   22  145 1    
    47   23  146 1    
    48   23  147 1    
    49   23  148 1    
    50   24   25 am   BACKBONE|DICT|INTERRES
    51   24  149 1    
    52   25   26 2    
    53   25   27 1    
    54   27   28 1    
    55   27   29 1    
    56   27  150 1    
    57   28  151 1    
    58   28  152 1    
    59   28  153 1    
    60   29   30 am   BACKBONE|DICT|INTERRES
    61   29  154 1    
    62   30   31 2    
    63   30   32 1    
    64   32   33 1    
    65   32   34 1    
    66   32  155 1    
    67   33  156 1    
    68   33  157 1    
    69   33  158 1    
    70   34   35 am   BACKBONE|DICT|INTERRES
    71   34  159 1    
    72   35   36 2    
    73   35   37 1    
    74   37   38 1    
    75   37   39 1    
    76   37  160 1    
    77   38  161 1    
    78   38  162 1    
    79   38  163 1    
    80   39   40 am   BACKBONE|DICT|INTERRES
    81   39  164 1    
    82   40   41 2    
    83   40   42 1    
    84   42   43 1    
    85   42   44 1    
    86   42  165 1    
    87   43  166 1    
    88   43  167 1    
    89   43  168 1    
    90   44   45 am   BACKBONE|DICT|INTERRES
    91   44  169 1    
    92   45   46 2    
    93   45   47 1    
    94   47   48 1    
    95   47   49 1    
    96   47  170 1    
    97   48  171 1    
    98   48  172 1    
    99   48  173 1    
   100   49   50 am   BACKBONE|DICT|INTERRES
   101   49  174 1    
   102   50   51 2    
   103   50   52 1    
   104   52   53 1    
   105   52   54 1    
   106   52  175 1    
   107   53  176 1    
   108   53  177 1    
   109   53  178 1    
   110   54   55 am   BACKBONE|DICT|INTERRES
   111   54  179 1    
   112   55   56 2    
   113   55   57 1    
   114   57   58 1    
   115   57   59 1    
   116   57  180 1    
   117   58  181 1    
   118   58  182 1    
   119   58  183 1    
   120   59   60 am   BACKBONE|DICT|INTERRES
   121   59  184 1    
   122   60   61 2    
   123   60   62 1    
   124   62   63 1    
   125   62   64 1    
   126   62  185 1    
   127   63  186 1    
   128   63  187 1    
   129   63  188 1    
   130   64   65 am   BACKBONE|DICT|INTERRES
   131   64  189 1    
   132   65   66 2    
   133   67   68 2    
   134   67   69 am   BACKBONE|DICT|INTERRES
   135   69   70 1    
   136   69  190 1    
   137   70   71 1    
   138   70   72 1    
   139   70  191 1    
   140   71  192 1    
   141   71  193 1    
   142   71  194 1    
   143   72   73 2    
   144   72   74 am   BACKBONE|DICT|INTERRES
   145   74   75 1    
   146   74  195 1    
   147   75   76 1    
   148   75   77 1    
   149   75  196 1    
   150   76  197 1    
   151   76  198 1    
   152   76  199 1    
   153   77   78 2    
   154   77   79 am   BACKBONE|DICT|INTERRES
   155   79   80 1    
   156   79  200 1    
   157   80   81 1    
   158   80   82 1    
   159   80  201 1    
   160   81  202 1    
   161   81  203 1    
   162   81  204 1    
   163   82   83 2    
   164   82   84 am   BACKBONE|DICT|INTERRES
   165   84   85 1    
   166   84  205 1    
   167   85   86 1    
   168   85   87 1    
   169   85  206 1    
   170   86  207 1    
   171   86  208 1    
   172   86  209 1    
   173   87   88 2    
   174   87   89 am   BACKBONE|DICT|INTERRES
   175   89   90 1    
   176   89  210 1    
   177   90   91 1    
   178   90   92 1    
   179   90  211 1    
   180   91  212 1    
   181   91  213 1    
   182   91  214 1    
   183   92   93 2    
   184   92   94 am   BACKBONE|DICT|INTERRES
   185   94   95 1    
   186   94  215 1    
   187   95   96 1    
   188   95   97 1    
   189   95  216 1    
   190   96  217 1    
   191   96  218 1    
   192   96  219 1    
   193   97   98 2    
   194   97   99 am   BACKBONE|DICT|INTERRES
   195   99  100 1    
   196   99  220 1    
   197  100  101 1    
   198  100  102 1    
   199  100  221 1    
   200  101  222 1    
   201  101  223 1    
   202  101  224 1    
   203  102  103 2    
   204  102  104 am   BACKBONE|DICT|INTERRES
   205  104  105 1    
   206  104  225 1    
   207  105  106 1    
   208  105  107 1    
   209  105  226 1    
   210  106  227 1    
   211  106  228 1    
   212  106  229 1    
   213  107  108 2    
   214  107  109 am   BACKBONE|DICT|INTERRES
   215  109  110 1    
   216  109  230 1    
   217  110  111 1    
   218  110  112 1    
   219  110  231 1    
   220  111  232 1    
   221  111  233 1    
   222  111  234 1    
   223  112  113 2    
   224  112  114 am   BACKBONE|DICT|INTERRES
   225  114  115 1    
   226  114  235 1    
   227  115  116 1    
   228  115  117 1    
   229  115  236 1    
   230  116  237 1    
   231  116  238 1    
   232  116  239 1    
   233  117  118 2    
   234  117  119 am   BACKBONE|DICT|INTERRES
   235  119  120 1    
   236  119  240 1    
   237  120  121 1    
   238  120  124 1    
   239  120  241 1    
   240  121  122 am   BACKBONE|DICT|INTERRES
   241  121  123 2    
   242  122  242 1    
   243  122  243 1    
   244  124  125 1    
   245  124  244 1    
   246  124  245 1    
   247  125  126 1    
   248  126  246 1    
   249  126  247 1    
@<TRIPOS>SUBSTRUCTURE
     1 UNK         1 GROUP             0       ****    0 ROOT    
