@<TRIPOS>MOLECULE
3R540
247   249    1
SMALL
USER_CHARGES


@<TRIPOS>ATOM
      1 CA         -0.7717  -11.7146  -53.2392 C.3       0 UNK        -0.1800 
      2 C          -0.9105  -12.2351  -51.8159 C.2       0 UNK         0.5000 
      3 O          -2.0264  -12.3130  -51.3011 O.2       0 UNK        -0.5000 
      4 N           0.2177  -12.5770  -51.1786 N.am      1 UNK        -0.5000 
      5 CA          0.3701  -13.1337  -49.8242 C.3       1 UNK         0.1400 
      6 C6         -0.3758  -14.4777  -49.6061 C.3       23 UNK        -0.0398 
      7 S7          0.4035  -15.8408  -50.5320 S.3       23 UNK        -0.2404 
      8 C8          0.4127  -17.1609  -49.2756 C.3       23 UNK        -0.0205 
      9 C9          1.3213  -18.3160  -49.6689 C.ar      23 UNK        -0.0193 
     10 C10         1.0473  -19.0730  -50.8107 C.ar      23 UNK        -0.1150 
     11 C11         1.8696  -20.1440  -51.1744 C.ar      23 UNK        -0.0193 
     12 C12         2.9731  -20.4606  -50.3750 C.ar      23 UNK        -0.1150 
     13 C13         3.2587  -19.7128  -49.2276 C.ar      23 UNK        -0.0193 
     14 C14         2.4300  -18.6411  -48.8817 C.ar      23 UNK        -0.1150 
     15 C15         4.4736  -20.0436  -48.3705 C.3       23 UNK        -0.0205 
     16 S16         4.0173  -20.8757  -46.8153 S.3       23 UNK        -0.2404 
     17 C17         3.4320  -22.4937  -47.4222 C.3       23 UNK        -0.0398 
     18 CA          3.7674  -23.6672  -46.4632 C.3       11 UNK         0.1400 
     19 N           3.2551  -23.4382  -45.1065 N.am      11 UNK        -0.5000 
     20 C           3.7304  -24.0054  -43.9892 C.2       10 UNK         0.5000 
     21 O           4.7273  -24.7269  -43.9604 O.2       10 UNK        -0.5000 
     22 CA          2.9312  -23.7589  -42.6940 C.3       10 UNK         0.1400 
     23 CB          3.5543  -22.6077  -41.8903 C.3       10 UNK        -0.1800 
     24 N           1.5165  -23.4653  -42.9481 N.am      10 UNK        -0.5000 
     25 C           0.6156  -24.3655  -43.3742 C.2       9 UNK         0.5000 
     26 O           0.8794  -25.5531  -43.5573 O.2       9 UNK        -0.5000 
     27 CA         -0.7939  -23.8462  -43.7293 C.3       9 UNK         0.1400 
     28 CB         -1.7129  -23.8827  -42.5003 C.3       9 UNK        -0.1800 
     29 N          -0.7692  -22.4906  -44.2802 N.am      9 UNK        -0.5000 
     30 C          -0.1518  -22.1483  -45.4181 C.2       8 UNK         0.5000 
     31 O           0.2692  -22.9810  -46.2243 O.2       8 UNK        -0.5000 
     32 CA          0.1048  -20.6462  -45.6710 C.3       8 UNK         0.1400 
     33 CB         -0.6189  -20.1658  -46.9308 C.3       8 UNK        -0.1800 
     34 N          -0.2166  -19.7367  -44.5648 N.am      8 UNK        -0.5000 
     35 C           0.3633  -19.7247  -43.3558 C.2       7 UNK         0.5000 
     36 O           1.1387  -20.5987  -42.9698 O.2       7 UNK        -0.5000 
     37 CA          0.0303  -18.5541  -42.4147 C.3       7 UNK         0.1400 
     38 CB          1.2360  -17.6064  -42.3145 C.3       7 UNK        -0.1800 
     39 N          -1.1340  -17.7836  -42.8580 N.am      7 UNK        -0.5000 
     40 C          -2.3685  -17.8977  -42.3487 C.2       6 UNK         0.5000 
     41 O          -2.6699  -18.7164  -41.4807 O.2       6 UNK        -0.5000 
     42 CA         -3.4523  -16.9335  -42.8742 C.3       6 UNK         0.1400 
     43 CB         -3.7677  -15.8619  -41.8194 C.3       6 UNK        -0.1800 
     44 N          -3.0565  -16.2608  -44.1106 N.am      6 UNK        -0.5000 
     45 C          -3.2766  -16.7280  -45.3465 C.2       5 UNK         0.5000 
     46 O          -3.9354  -17.7396  -45.5889 O.2       5 UNK        -0.5000 
     47 CA         -2.6404  -15.9447  -46.5118 C.3       5 UNK         0.1400 
     48 CB         -3.6836  -15.0343  -47.1718 C.3       5 UNK        -0.1800 
     49 N          -1.4821  -15.1384  -46.1140 N.am      5 UNK        -0.5000 
     50 C          -0.3291  -15.6421  -45.6463 C.2       4 UNK         0.5000 
     51 O          -0.1321  -16.8490  -45.5170 O.2       4 UNK        -0.5000 
     52 CA          0.7731  -14.6576  -45.2126 C.3       4 UNK         0.1400 
     53 CB          1.9572  -14.7075  -46.1899 C.3       4 UNK        -0.1800 
     54 N           0.3006  -13.2785  -45.0641 N.am      4 UNK        -0.5000 
     55 C          -0.4984  -12.8624  -44.0684 C.2       3 UNK         0.5000 
     56 O          -0.9122  -13.6084  -43.1795 O.2       3 UNK        -0.5000 
     57 CA         -0.9450  -11.3855  -44.0807 C.3       3 UNK         0.1400 
     58 CB         -0.0264  -10.5412  -43.1850 C.3       3 UNK        -0.1800 
     59 N          -0.9902  -10.7865  -45.4172 N.am      3 UNK        -0.5000 
     60 C          -1.7850  -11.1935  -46.4160 C.2       2 UNK         0.5000 
     61 O          -2.5847  -12.1228  -46.3066 O.2       2 UNK        -0.5000 
     62 CA         -1.6283  -10.5004  -47.7861 C.3       2 UNK         0.1400 
     63 CB         -0.7934   -9.2007  -47.7492 C.3       2 UNK        -0.1800 
     64 N          -1.0857  -11.4304  -48.7811 N.am      2 UNK        -0.5000 
     65 C           0.0534  -12.1306  -48.6940 C.2       1 UNK         0.5000 
     66 O           0.8469  -12.0207  -47.7578 O.2       1 UNK        -0.5000 
     67 C           3.2395  -24.9952  -47.0563 C.2       11 UNK         0.5000 
     68 O           3.6738  -25.3775  -48.1430 O.2       11 UNK        -0.5000 
     69 N           2.2910  -25.6471  -46.3607 N.am      12 UNK        -0.5000 
     70 CA          1.5169  -26.8242  -46.7705 C.3       12 UNK         0.1400 
     71 CB          2.4296  -28.0501  -46.9820 C.3       12 UNK        -0.1800 
     72 C           0.5891  -26.5457  -47.9733 C.2       12 UNK         0.5000 
     73 O           0.2103  -27.4778  -48.6844 O.2       12 UNK        -0.5000 
     74 N           0.2326  -25.2695  -48.1729 N.am      13 UNK        -0.5000 
     75 CA         -0.5940  -24.7881  -49.2797 C.3       13 UNK         0.1400 
     76 CB          0.0907  -23.5500  -49.8770 C.3       13 UNK        -0.1800 
     77 C          -2.0434  -24.4851  -48.8447 C.2       13 UNK         0.5000 
     78 O          -2.8799  -24.2310  -49.7101 O.2       13 UNK        -0.5000 
     79 N          -2.3029  -24.5580  -47.5299 N.am      14 UNK        -0.5000 
     80 CA         -3.5543  -24.3168  -46.8037 C.3       14 UNK         0.1400 
     81 CB         -4.7589  -25.0555  -47.4189 C.3       14 UNK        -0.1800 
     82 C          -3.8444  -22.8204  -46.5895 C.2       14 UNK         0.5000 
     83 O          -3.7956  -22.0220  -47.5254 O.2       14 UNK        -0.5000 
     84 N          -4.1503  -22.4740  -45.3345 N.am      15 UNK        -0.5000 
     85 CA         -4.4878  -21.1236  -44.8898 C.3       15 UNK         0.1400 
     86 CB         -4.3377  -21.0721  -43.3594 C.3       15 UNK        -0.1800 
     87 C          -5.8993  -20.6790  -45.3286 C.2       15 UNK         0.5000 
     88 O          -6.6515  -21.4585  -45.9175 O.2       15 UNK        -0.5000 
     89 N          -6.2216  -19.4174  -45.0141 N.am      16 UNK        -0.5000 
     90 CA         -7.4507  -18.6912  -45.3504 C.3       16 UNK         0.1400 
     91 CB         -8.7066  -19.3863  -44.7825 C.3       16 UNK        -0.1800 
     92 C          -7.5392  -18.3831  -46.8574 C.2       16 UNK         0.5000 
     93 O          -8.6184  -18.4542  -47.4465 O.2       16 UNK        -0.5000 
     94 N          -6.3805  -18.0456  -47.4443 N.am      17 UNK        -0.5000 
     95 CA         -6.1627  -17.6451  -48.8400 C.3       17 UNK         0.1400 
     96 CB         -6.9488  -16.3616  -49.1810 C.3       17 UNK        -0.1800 
     97 C          -6.3896  -18.7561  -49.8848 C.2       17 UNK         0.5000 
     98 O          -6.3488  -18.4661  -51.0805 O.2       17 UNK        -0.5000 
     99 N          -6.5572  -20.0126  -49.4467 N.am      18 UNK        -0.5000 
    100 CA        -6.6538  -21.1891  -50.3187 C.3       18 UNK         0.1400 
    101 CB        -7.0073  -22.4167  -49.4670 C.3       18 UNK        -0.1800 
    102 C         -5.3646  -21.4328  -51.1304 C.2       18 UNK         0.5000 
    103 O         -5.4282  -21.8984  -52.2688 O.2       18 UNK        -0.5000 
    104 N         -4.2266  -21.0544  -50.5374 N.am      19 UNK        -0.5000 
    105 CA        -2.8881  -21.1142  -51.1116 C.3       19 UNK         0.1400 
    106 CB        -1.8904  -20.7791  -50.0025 C.3       19 UNK        -0.1800 
    107 C         -2.6452  -20.1774  -52.3067 C.2       19 UNK         0.5000 
    108 O         -1.6886  -20.4070  -53.0447 O.2       19 UNK        -0.5000 
    109 N         -3.4886  -19.1488  -52.4952 N.am      20 UNK        -0.5000 
    110 CA        -3.3385  -18.1089  -53.5247 C.3       20 UNK         0.1400 
    111 CB        -4.4642  -17.0763  -53.3695 C.3       20 UNK        -0.1800 
    112 C         -3.2795  -18.6346  -54.9754 C.2       20 UNK         0.5000 
    113 O         -2.7638  -17.9414  -55.8541 O.2       20 UNK        -0.5000 
    114 N         -3.7523  -19.8706  -55.1871 N.am      21 UNK        -0.5000 
    115 CA        -3.6306  -20.6472  -56.4194 C.3       21 UNK         0.1400 
    116 CB        -4.3474  -21.9918  -56.2222 C.3       21 UNK        -0.1800 
    117 C         -2.1793  -20.8751  -56.8985 C.2       21 UNK         0.5000 
    118 O         -1.9905  -21.1212  -58.0910 O.2       21 UNK        -0.5000 
    119 N         -1.1832  -20.7755  -56.0009 N.am      22 UNK        -0.5000 
    120 CA         0.2443  -20.7876  -56.3705 C.3       22 UNK         0.1400 
    121 C          0.7450  -19.4989  -57.0953 C.2       22 UNK         0.5000 
    122 N         -0.0197  -18.4123  -57.1408 N.am      22 UNK        -0.7600 
    123 O          1.8434  -19.4928  -57.6448 O.2       22 UNK        -0.5000 
    124 C124        1.1700  -21.2256  -55.2003 C.3       23 UNK        -0.0398 
    125 S125        1.5030  -19.9547  -53.9270 S.3       23 UNK        -0.2404 
    126 C126        1.5508  -20.9707  -52.4146 C.3       23 UNK        -0.0205 
    127 H127       -1.1713  -10.7030  -53.3092 H         1 UNK         0.0600 
    128 H128       -1.3293  -12.3511  -53.9263 H         1 UNK         0.0600 
    129 H129        0.2687  -11.6930  -53.5644 H         1 UNK         0.0600 
    130 H130        1.0912  -12.4556  -51.6719 H         1 UNK         0.3000 
    131 H131        1.4378  -13.3386  -49.7256 H         1 UNK         0.0600 
    132 H132       -0.3772  -14.7405  -48.5500 H         1 UNK         0.0800 
    133 H133       -1.4256  -14.4093  -49.8916 H         1 UNK         0.0800 
    134 H134        0.7314  -16.7514  -48.3166 H         1 UNK         0.0800 
    135 H135       -0.6034  -17.5312  -49.1347 H         1 UNK         0.0800 
    136 H136        0.1902  -18.8273  -51.4225 H         1 UNK         0.1150 
    137 H137        3.6121  -21.2889  -50.6465 H         1 UNK         0.1150 
    138 H138        2.6493  -18.0648  -47.9938 H         1 UNK         0.1150 
    139 H139        5.1834  -20.6616  -48.9226 H         1 UNK         0.0800 
    140 H140        5.0019  -19.1200  -48.1301 H         1 UNK         0.0800 
    141 H141        2.3592  -22.4186  -47.6003 H         1 UNK         0.0800 
    142 H142        3.8822  -22.6784  -48.3990 H         1 UNK         0.0800 
    143 H143        4.8547  -23.7536  -46.4101 H         1 UNK         0.0600 
    144 H144        2.4338  -22.8564  -45.0374 H         1 UNK         0.3000 
    145 H145        2.9885  -24.6667  -42.0897 H         1 UNK         0.0600 
    146 H146        3.0061  -22.4288  -40.9652 H         1 UNK         0.0600 
    147 H147        3.5642  -21.6778  -42.4600 H         1 UNK         0.0600 
    148 H148        4.5858  -22.8358  -41.6191 H         1 UNK         0.0600 
    149 H149        1.2429  -22.4895  -42.8590 H         1 UNK         0.3000 
    150 H150       -1.2087  -24.5139  -44.4866 H         1 UNK         0.0600 
    151 H151       -1.7268  -24.8772  -42.0523 H         1 UNK         0.0600 
    152 H152       -2.7400  -23.6371  -42.7671 H         1 UNK         0.0600 
    153 H153       -1.3864  -23.1809  -41.7317 H         1 UNK         0.0600 
    154 H154       -1.0616  -21.7450  -43.6667 H         1 UNK         0.3000 
    155 H155        1.1759  -20.5462  -45.8524 H         1 UNK         0.0600 
    156 H156       -0.2585  -20.7157  -47.7991 H         1 UNK         0.0600 
    157 H157       -0.4266  -19.1105  -47.1215 H         1 UNK         0.0600 
    158 H158       -1.6978  -20.3058  -46.8596 H         1 UNK         0.0600 
    159 H159       -0.7928  -18.9427  -44.8061 H         1 UNK         0.3000 
    160 H160       -0.1507  -18.9733  -41.4228 H         1 UNK         0.0600 
    161 H161        1.5226  -17.2140  -43.2905 H         1 UNK         0.0600 
    162 H162        2.1044  -18.1233  -41.9040 H         1 UNK         0.0600 
    163 H163        1.0222  -16.7608  -41.6604 H         1 UNK         0.0600 
    164 H164       -0.9703  -17.1271  -43.6102 H         1 UNK         0.3000 
    165 H165       -4.3593  -17.5161  -43.0464 H         1 UNK         0.0600 
    166 H166       -4.5686  -15.2029  -42.1551 H         1 UNK         0.0600 
    167 H167       -4.0933  -16.3164  -40.8827 H         1 UNK         0.0600 
    168 H168       -2.8954  -15.2444  -41.6001 H         1 UNK         0.0600 
    169 H169       -2.5244  -15.4071  -44.0060 H         1 UNK         0.3000 
    170 H170       -2.3040  -16.6751  -47.2505 H         1 UNK         0.0600 
    171 H171       -4.0719  -14.2958  -46.4699 H         1 UNK         0.0600 
    172 H172       -3.2657  -14.5008  -48.0256 H         1 UNK         0.0600 
    173 H173       -4.5341  -15.6095  -47.5310 H         1 UNK         0.0600 
    174 H174       -1.5999  -14.1330  -46.1534 H         1 UNK         0.3000 
    175 H175        1.1356  -14.9904  -44.2381 H         1 UNK         0.0600 
    176 H176        1.6589  -14.4609  -47.2076 H         1 UNK         0.0600 
    177 H177        2.7452  -14.0152  -45.8934 H         1 UNK         0.0600 
    178 H178        2.3959  -15.7060  -46.2160 H         1 UNK         0.0600 
    179 H179        0.5702  -12.6241  -45.7918 H         1 UNK         0.3000 
    180 H180       -1.9546  -11.3485  -43.6663 H         1 UNK         0.0600 
    181 H181       -0.3821   -9.5133  -43.1116 H         1 UNK         0.0600 
    182 H182        0.9955  -10.5179  -43.5657 H         1 UNK         0.0600 
    183 H183        0.0096  -10.9439  -42.1718 H         1 UNK         0.0600 
    184 H184       -0.3336  -10.0421  -45.6015 H         1 UNK         0.3000 
    185 H185       -2.6351  -10.2402  -48.1157 H         1 UNK         0.0600 
    186 H186       -0.7856   -8.7198  -48.7274 H         1 UNK         0.0600 
    187 H187       -1.2144   -8.4825  -47.0444 H         1 UNK         0.0600 
    188 H188        0.2443   -9.3790  -47.4657 H         1 UNK         0.0600 
    189 H189       -1.6736  -11.6150  -49.5905 H         1 UNK         0.3000 
    190 H190        2.0196  -25.2584  -45.4670 H         1 UNK         0.3000 
    191 H191        0.8561  -27.0529  -45.9335 H         1 UNK         0.0600 
    192 H192        1.8395  -28.9577  -47.1138 H         1 UNK         0.0600 
    193 H193        3.0799  -28.2101  -46.1221 H         1 UNK         0.0600 
    194 H194        3.0596  -27.9420  -47.8651 H         1 UNK         0.0600 
    195 H195        0.5581  -24.5617  -47.5229 H         1 UNK         0.3000 
    196 H196       -0.6503  -25.5451  -50.0645 H         1 UNK         0.0600 
    197 H197       -0.4601  -23.1827  -50.7427 H         1 UNK         0.0600 
    198 H198        1.1007  -23.7831  -50.2149 H         1 UNK         0.0600 
    199 H199        0.1641  -22.7408  -49.1503 H         1 UNK         0.0600 
    200 H200       -1.5037  -24.7412  -46.9417 H         1 UNK         0.3000 
    201 H201       -3.3878  -24.7612  -45.8212 H         1 UNK         0.0600 
    202 H202       -5.0374  -24.6503  -48.3912 H         1 UNK         0.0600 
    203 H203       -5.6346  -24.9684  -46.7747 H         1 UNK         0.0600 
    204 H204       -4.5498  -26.1178  -47.5442 H         1 UNK         0.0600 
    205 H205       -4.2318  -23.1980  -44.6373 H         1 UNK         0.3000 
    206 H206       -3.7703  -20.4287  -45.3308 H         1 UNK         0.0600 
    207 H207       -3.3097  -21.2707  -43.0580 H         1 UNK         0.0600 
    208 H208       -4.5971  -20.0920  -42.9598 H         1 UNK         0.0600 
    209 H209       -4.9811  -21.8023  -42.8672 H         1 UNK         0.0600 
    210 H210       -5.4875  -18.8420  -44.6206 H         1 UNK         0.3000 
    211 H211       -7.3687  -17.7228  -44.8546 H         1 UNK         0.0600 
    212 H212       -8.9243  -20.3233  -45.2952 H         1 UNK         0.0600 
    213 H213       -9.5844  -18.7483  -44.8906 H         1 UNK         0.0600 
    214 H214       -8.5919  -19.6023  -43.7204 H         1 UNK         0.0600 
    215 H215       -5.5507  -18.0448  -46.8597 H         1 UNK         0.3000 
    216 H216       -5.1013  -17.4057  -48.9120 H         1 UNK         0.0600 
    217 H217       -6.6377  -15.9573  -50.1450 H         1 UNK         0.0600 
    218 H218       -6.7847  -15.5827  -48.4368 H         1 UNK         0.0600 
    219 H219       -8.0215  -16.5472  -49.2392 H         1 UNK         0.0600 
    220 H220       -6.5835  -20.1798  -48.4507 H         1 UNK         0.3000 
    221 H221       -7.4646  -21.0184  -51.0298 H         1 UNK         0.0600 
    222 H222       -7.0654  -23.3174  -50.0794 H         1 UNK         0.0600 
    223 H223       -7.9727  -22.2914  -48.9765 H         1 UNK         0.0600 
    224 H224       -6.2614  -22.5920  -48.6916 H         1 UNK         0.0600 
    225 H225       -4.2776  -20.7657  -49.5701 H         1 UNK         0.3000 
    226 H226       -2.7097  -22.1357  -51.4519 H         1 UNK         0.0600 
    227 H227       -1.9763  -21.4841  -49.1797 H         1 UNK         0.0600 
    228 H228       -0.8687  -20.8472  -50.3662 H         1 UNK         0.0600 
    229 H229       -2.0386  -19.7731  -49.6084 H         1 UNK         0.0600 
    230 H230       -4.2840  -19.0543  -51.8767 H         1 UNK         0.3000 
    231 H231       -2.3887  -17.6054  -53.3334 H         1 UNK         0.0600 
    232 H232       -4.3504  -16.2614  -54.0856 H         1 UNK         0.0600 
    233 H233       -4.4617  -16.6345  -52.3729 H         1 UNK         0.0600 
    234 H234       -5.4441  -17.5254  -53.5358 H         1 UNK         0.0600 
    235 H235       -4.1418  -20.3577  -54.3924 H         1 UNK         0.3000 
    236 H236       -4.1473  -20.0936  -57.2057 H         1 UNK         0.0600 
    237 H237       -3.8922  -22.5741  -55.4199 H         1 UNK         0.0600 
    238 H238       -5.3994  -21.8467  -55.9758 H         1 UNK         0.0600 
    239 H239       -4.3076  -22.5949  -57.1303 H         1 UNK         0.0600 
    240 H240       -1.3967  -20.5761  -55.0277 H         1 UNK         0.3000 
    241 H241        0.3491  -21.5743  -57.1204 H         1 UNK         0.0600 
    242 H242        0.3172  -17.5923  -57.6194 H         1 UNK         0.3800 
    243 H243       -0.9285  -18.3904  -56.6925 H         1 UNK         0.3800 
    244 H244        2.1352  -21.5397  -55.6007 H         1 UNK         0.0800 
    245 H245        0.7515  -22.1130  -54.7235 H         1 UNK         0.0800 
    246 H246        0.5891  -21.4640  -52.2762 H         1 UNK         0.0800 
    247 H247        2.2887  -21.7633  -52.5466 H         1 UNK         0.0800 
@<TRIPOS>BOND
     1    1    2 1    
     2    1  127 1    
     3    1  128 1    
     4    1  129 1    
     5    2    3 2    
     6    2    4 am   BACKBONE|DICT|INTERRES
     7    4    5 1    
     8    4  130 1    
     9    5    6 1    
    10    5   65 1    
    11    5  131 1    
    12    6    7 1    
    13    6  132 1    
    14    6  133 1    
    15    7    8 1    
    16    8    9 1    
    17    8  134 1    
    18    8  135 1    
    19    9   10 ar   
    20    9   14 ar   
    21   10   11 ar   
    22   10  136 1    
    23   11   12 ar   
    24   11  126 1    
    25   12   13 ar   
    26   12  137 1    
    27   13   14 ar   
    28   13   15 1    
    29   14  138 1    
    30   15   16 1    
    31   15  139 1    
    32   15  140 1    
    33   16   17 1    
    34   17   18 1    
    35   17  141 1    
    36   17  142 1    
    37   18   19 1    
    38   18   67 1    
    39   18  143 1    
    40   19   20 am   BACKBONE|DICT|INTERRES
    41   19  144 1    
    42   20   21 2    
    43   20   22 1    
    44   22   23 1    
    45   22   24 1    
    46   22  145 1    
    47   23  146 1    
    48   23  147 1    
    49   23  148 1    
    50   24   25 am   BACKBONE|DICT|INTERRES
    51   24  149 1    
    52   25   26 2    
    53   25   27 1    
    54   27   28 1    
    55   27   29 1    
    56   27  150 1    
    57   28  151 1    
    58   28  152 1    
    59   28  153 1    
    60   29   30 am   BACKBONE|DICT|INTERRES
    61   29  154 1    
    62   30   31 2    
    63   30   32 1    
    64   32   33 1    
    65   32   34 1    
    66   32  155 1    
    67   33  156 1    
    68   33  157 1    
    69   33  158 1    
    70   34   35 am   BACKBONE|DICT|INTERRES
    71   34  159 1    
    72   35   36 2    
    73   35   37 1    
    74   37   38 1    
    75   37   39 1    
    76   37  160 1    
    77   38  161 1    
    78   38  162 1    
    79   38  163 1    
    80   39   40 am   BACKBONE|DICT|INTERRES
    81   39  164 1    
    82   40   41 2    
    83   40   42 1    
    84   42   43 1    
    85   42   44 1    
    86   42  165 1    
    87   43  166 1    
    88   43  167 1    
    89   43  168 1    
    90   44   45 am   BACKBONE|DICT|INTERRES
    91   44  169 1    
    92   45   46 2    
    93   45   47 1    
    94   47   48 1    
    95   47   49 1    
    96   47  170 1    
    97   48  171 1    
    98   48  172 1    
    99   48  173 1    
   100   49   50 am   BACKBONE|DICT|INTERRES
   101   49  174 1    
   102   50   51 2    
   103   50   52 1    
   104   52   53 1    
   105   52   54 1    
   106   52  175 1    
   107   53  176 1    
   108   53  177 1    
   109   53  178 1    
   110   54   55 am   BACKBONE|DICT|INTERRES
   111   54  179 1    
   112   55   56 2    
   113   55   57 1    
   114   57   58 1    
   115   57   59 1    
   116   57  180 1    
   117   58  181 1    
   118   58  182 1    
   119   58  183 1    
   120   59   60 am   BACKBONE|DICT|INTERRES
   121   59  184 1    
   122   60   61 2    
   123   60   62 1    
   124   62   63 1    
   125   62   64 1    
   126   62  185 1    
   127   63  186 1    
   128   63  187 1    
   129   63  188 1    
   130   64   65 am   BACKBONE|DICT|INTERRES
   131   64  189 1    
   132   65   66 2    
   133   67   68 2    
   134   67   69 am   BACKBONE|DICT|INTERRES
   135   69   70 1    
   136   69  190 1    
   137   70   71 1    
   138   70   72 1    
   139   70  191 1    
   140   71  192 1    
   141   71  193 1    
   142   71  194 1    
   143   72   73 2    
   144   72   74 am   BACKBONE|DICT|INTERRES
   145   74   75 1    
   146   74  195 1    
   147   75   76 1    
   148   75   77 1    
   149   75  196 1    
   150   76  197 1    
   151   76  198 1    
   152   76  199 1    
   153   77   78 2    
   154   77   79 am   BACKBONE|DICT|INTERRES
   155   79   80 1    
   156   79  200 1    
   157   80   81 1    
   158   80   82 1    
   159   80  201 1    
   160   81  202 1    
   161   81  203 1    
   162   81  204 1    
   163   82   83 2    
   164   82   84 am   BACKBONE|DICT|INTERRES
   165   84   85 1    
   166   84  205 1    
   167   85   86 1    
   168   85   87 1    
   169   85  206 1    
   170   86  207 1    
   171   86  208 1    
   172   86  209 1    
   173   87   88 2    
   174   87   89 am   BACKBONE|DICT|INTERRES
   175   89   90 1    
   176   89  210 1    
   177   90   91 1    
   178   90   92 1    
   179   90  211 1    
   180   91  212 1    
   181   91  213 1    
   182   91  214 1    
   183   92   93 2    
   184   92   94 am   BACKBONE|DICT|INTERRES
   185   94   95 1    
   186   94  215 1    
   187   95   96 1    
   188   95   97 1    
   189   95  216 1    
   190   96  217 1    
   191   96  218 1    
   192   96  219 1    
   193   97   98 2    
   194   97   99 am   BACKBONE|DICT|INTERRES
   195   99  100 1    
   196   99  220 1    
   197  100  101 1    
   198  100  102 1    
   199  100  221 1    
   200  101  222 1    
   201  101  223 1    
   202  101  224 1    
   203  102  103 2    
   204  102  104 am   BACKBONE|DICT|INTERRES
   205  104  105 1    
   206  104  225 1    
   207  105  106 1    
   208  105  107 1    
   209  105  226 1    
   210  106  227 1    
   211  106  228 1    
   212  106  229 1    
   213  107  108 2    
   214  107  109 am   BACKBONE|DICT|INTERRES
   215  109  110 1    
   216  109  230 1    
   217  110  111 1    
   218  110  112 1    
   219  110  231 1    
   220  111  232 1    
   221  111  233 1    
   222  111  234 1    
   223  112  113 2    
   224  112  114 am   BACKBONE|DICT|INTERRES
   225  114  115 1    
   226  114  235 1    
   227  115  116 1    
   228  115  117 1    
   229  115  236 1    
   230  116  237 1    
   231  116  238 1    
   232  116  239 1    
   233  117  118 2    
   234  117  119 am   BACKBONE|DICT|INTERRES
   235  119  120 1    
   236  119  240 1    
   237  120  121 1    
   238  120  124 1    
   239  120  241 1    
   240  121  122 am   BACKBONE|DICT|INTERRES
   241  121  123 2    
   242  122  242 1    
   243  122  243 1    
   244  124  125 1    
   245  124  244 1    
   246  124  245 1    
   247  125  126 1    
   248  126  246 1    
   249  126  247 1    
@<TRIPOS>SUBSTRUCTURE
     1 UNK         1 GROUP             0       ****    0 ROOT    
