@<TRIPOS>MOLECULE
3R540
247   249    1
SMALL
USER_CHARGES


@<TRIPOS>ATOM
      1 CA          2.9954  -10.8135  -45.6961 C.3       0 UNK        -0.1800 
      2 C           2.5849  -12.1959  -46.1794 C.2       0 UNK         0.5000 
      3 O           1.6074  -12.7534  -45.6752 O.2       0 UNK        -0.5000 
      4 N           3.3287  -12.7631  -47.1394 N.am      1 UNK        -0.5000 
      5 CA          3.0130  -14.0531  -47.7600 C.3       1 UNK         0.1400 
      6 C6          4.2042  -14.6521  -48.5499 C.3       23 UNK        -0.0398 
      7 S7          4.3951  -16.4309  -48.1916 S.3       23 UNK        -0.2404 
      8 C8          4.5546  -17.1594  -49.8540 C.3       23 UNK        -0.0205 
      9 C9          3.2256  -17.3981  -50.5638 C.ar      23 UNK        -0.0193 
     10 C10         3.0958  -17.0747  -51.9194 C.ar      23 UNK        -0.1150 
     11 C11         1.9276  -17.3901  -52.6205 C.ar      23 UNK        -0.0193 
     12 C12         0.8775  -18.0217  -51.9503 C.ar      23 UNK        -0.1150 
     13 C13         0.9812  -18.3266  -50.5914 C.ar      23 UNK        -0.0193 
     14 C14         2.1590  -18.0209  -49.9038 C.ar      23 UNK        -0.1150 
     15 C15        -0.1783  -19.0061  -49.8852 C.3       23 UNK        -0.0205 
     16 S16         0.0440  -20.8124  -49.8584 S.3       23 UNK        -0.2404 
     17 C17         0.8398  -21.0627  -48.2277 C.3       23 UNK        -0.0398 
     18 CA          0.3557  -22.2883  -47.4027 C.3       11 UNK         0.1400 
     19 N           0.7754  -22.1946  -46.0027 N.am      11 UNK        -0.5000 
     20 C           0.6280  -23.1575  -45.0803 C.2       10 UNK         0.5000 
     21 O           0.1862  -24.2820  -45.3208 O.2       10 UNK        -0.5000 
     22 CA          0.9862  -22.7781  -43.6321 C.3       10 UNK         0.1400 
     23 CB          2.5066  -22.8152  -43.4180 C.3       10 UNK        -0.1800 
     24 N           0.4684  -21.4619  -43.2531 N.am      10 UNK        -0.5000 
     25 C          -0.8327  -21.1399  -43.2036 C.2       9 UNK         0.5000 
     26 O          -1.7445  -21.9364  -43.4268 O.2       9 UNK        -0.5000 
     27 CA         -1.1715  -19.6676  -42.9063 C.3       9 UNK         0.1400 
     28 CB         -1.0511  -19.3621  -41.4060 C.3       9 UNK        -0.1800 
     29 N          -0.3377  -18.7363  -43.6661 N.am      9 UNK        -0.5000 
     30 C          -0.3252  -18.6434  -45.0032 C.2       8 UNK         0.5000 
     31 O          -1.0391  -19.3095  -45.7500 O.2       8 UNK        -0.5000 
     32 CA          0.6936  -17.6711  -45.6126 C.3       8 UNK         0.1400 
     33 CB          0.1756  -16.2295  -45.5146 C.3       8 UNK        -0.1800 
     34 N           2.0007  -17.7902  -44.9682 N.am      8 UNK        -0.5000 
     35 C           2.8015  -18.8616  -45.0805 C.2       7 UNK         0.5000 
     36 O           2.5417  -19.8363  -45.7849 O.2       7 UNK        -0.5000 
     37 CA          4.0841  -18.8689  -44.2282 C.3       7 UNK         0.1400 
     38 CB          5.2294  -18.1688  -44.9734 C.3       7 UNK        -0.1800 
     39 N           3.8988  -18.2326  -42.9243 N.am      7 UNK        -0.5000 
     40 C           3.0946  -18.6919  -41.9542 C.2       6 UNK         0.5000 
     41 O           2.4756  -19.7530  -42.0244 O.2       6 UNK        -0.5000 
     42 CA          2.8987  -17.7701  -40.7339 C.3       6 UNK         0.1400 
     43 CB          3.9696  -18.0457  -39.6686 C.3       6 UNK        -0.1800 
     44 N           2.9226  -16.3482  -41.0969 N.am      6 UNK        -0.5000 
     45 C           2.0295  -15.7666  -41.9093 C.2       5 UNK         0.5000 
     46 O           1.0576  -16.3619  -42.3778 O.2       5 UNK        -0.5000 
     47 CA          2.3438  -14.3211  -42.3417 C.3       5 UNK         0.1400 
     48 CB          3.3994  -14.3319  -43.4593 C.3       5 UNK        -0.1800 
     49 N           1.1680  -13.5681  -42.7939 N.am      5 UNK        -0.5000 
     50 C           0.1621  -13.2038  -41.9853 C.2       4 UNK         0.5000 
     51 O           0.1181  -13.5015  -40.7899 O.2       4 UNK        -0.5000 
     52 CA         -0.9632  -12.3204  -42.5590 C.3       4 UNK         0.1400 
     53 CB         -0.8638  -10.8994  -41.9788 C.3       4 UNK        -0.1800 
     54 N          -0.9802  -12.2101  -44.0185 N.am      4 UNK        -0.5000 
     55 C          -1.6882  -12.9977  -44.8368 C.2       3 UNK         0.5000 
     56 O          -2.2733  -14.0153  -44.4642 O.2       3 UNK        -0.5000 
     57 CA         -1.8094  -12.5642  -46.3095 C.3       3 UNK         0.1400 
     58 CB         -1.3629  -11.1146  -46.5936 C.3       3 UNK        -0.1800 
     59 N          -1.0469  -13.4816  -47.1456 N.am      3 UNK        -0.5000 
     60 C          -1.4609  -14.0093  -48.3063 C.2       2 UNK         0.5000 
     61 O          -2.5596  -13.7632  -48.8064 O.2       2 UNK        -0.5000 
     62 CA         -0.5064  -14.9943  -49.0248 C.3       2 UNK         0.1400 
     63 CB         -0.5467  -14.8341  -50.5570 C.3       2 UNK        -0.1800 
     64 N           0.8730  -14.9534  -48.5209 N.am      2 UNK        -0.5000 
     65 C           1.7367  -13.9341  -48.6166 C.2       1 UNK         0.5000 
     66 O           1.5463  -12.9183  -49.2893 O.2       1 UNK        -0.5000 
     67 C          -1.1605  -22.5570  -47.5027 C.2       11 UNK         0.5000 
     68 O          -1.5490  -23.5371  -48.1340 O.2       11 UNK        -0.5000 
     69 N          -1.9797  -21.7220  -46.8469 N.am      12 UNK        -0.5000 
     70 CA         -3.4389  -21.8318  -46.8224 C.3       12 UNK         0.1400 
     71 CB         -4.0390  -20.6570  -46.0378 C.3       12 UNK        -0.1800 
     72 C          -3.9443  -23.1759  -46.2739 C.2       12 UNK         0.5000 
     73 O          -4.8612  -23.7519  -46.8592 O.2       12 UNK        -0.5000 
     74 N          -3.3136  -23.6692  -45.1995 N.am      13 UNK        -0.5000 
     75 CA         -3.5920  -24.9749  -44.6032 C.3       13 UNK         0.1400 
     76 CB         -2.8141  -25.1159  -43.2860 C.3       13 UNK        -0.1800 
     77 C          -3.2795  -26.1456  -45.5539 C.2       13 UNK         0.5000 
     78 O          -4.1026  -27.0521  -45.6859 O.2       13 UNK        -0.5000 
     79 N          -2.1152  -26.0954  -46.2163 N.am      14 UNK        -0.5000 
     80 CA         -1.6734  -27.0996  -47.1870 C.3       14 UNK         0.1400 
     81 CB         -0.1827  -26.8870  -47.4921 C.3       14 UNK        -0.1800 
     82 C          -2.5017  -27.0839  -48.4863 C.2       14 UNK         0.5000 
     83 O          -2.8274  -28.1450  -49.0194 O.2       14 UNK        -0.5000 
     84 N          -2.8319  -25.8786  -48.9631 N.am      15 UNK        -0.5000 
     85 CA         -3.5921  -25.6207  -50.1851 C.3       15 UNK         0.1400 
     86 CB         -3.3407  -24.1632  -50.5987 C.3       15 UNK        -0.1800 
     87 C          -5.1081  -25.8433  -50.0451 C.2       15 UNK         0.5000 
     88 O          -5.8076  -25.8008  -51.0591 O.2       15 UNK        -0.5000 
     89 N          -5.5980  -25.9809  -48.8028 N.am      16 UNK        -0.5000 
     90 CA         -7.0125  -25.9721  -48.4044 C.3       16 UNK         0.1400 
     91 CB         -7.7269  -27.2467  -48.8983 C.3       16 UNK        -0.1800 
     92 C          -7.7266  -24.6705  -48.8373 C.2       16 UNK         0.5000 
     93 O          -8.8861  -24.7002  -49.2512 O.2       16 UNK        -0.5000 
     94 N          -6.9747  -23.5604  -48.7846 N.am      17 UNK        -0.5000 
     95 CA         -7.2831  -22.1991  -49.2365 C.3       17 UNK         0.1400 
     96 CB         -8.4531  -21.6121  -48.4231 C.3       17 UNK        -0.1800 
     97 C          -7.5086  -22.0300  -50.7585 C.2       17 UNK         0.5000 
     98 O          -7.6940  -20.8966  -51.2021 O.2       17 UNK        -0.5000 
     99 N          -7.4832  -23.1190  -51.5403 N.am      18 UNK        -0.5000 
    100 CA        -7.7873  -23.1185  -52.9715 C.3       18 UNK         0.1400 
    101 CB        -8.2545  -24.5206  -53.3959 C.3       18 UNK        -0.1800 
    102 C         -6.5889  -22.6479  -53.8095 C.2       18 UNK         0.5000 
    103 O         -6.6905  -21.6518  -54.5261 O.2       18 UNK        -0.5000 
    104 N         -5.4595  -23.3572  -53.6805 N.am      19 UNK        -0.5000 
    105 CA        -4.2126  -23.0725  -54.4025 C.3       19 UNK         0.1400 
    106 CB        -3.3572  -24.3497  -54.4544 C.3       19 UNK        -0.1800 
    107 C         -3.4149  -21.8852  -53.8194 C.2       19 UNK         0.5000 
    108 O         -2.4121  -21.4812  -54.4076 O.2       19 UNK        -0.5000 
    109 N         -3.8744  -21.3396  -52.6849 N.am      20 UNK        -0.5000 
    110 CA        -3.2813  -20.2031  -51.9778 C.3       20 UNK         0.1400 
    111 CB        -3.7776  -20.2243  -50.5237 C.3       20 UNK        -0.1800 
    112 C         -3.5646  -18.8354  -52.6336 C.2       20 UNK         0.5000 
    113 O         -3.0371  -17.8261  -52.1631 O.2       20 UNK        -0.5000 
    114 N         -4.3905  -18.8123  -53.6897 N.am      21 UNK        -0.5000 
    115 CA        -4.7592  -17.6402  -54.4853 C.3       21 UNK         0.1400 
    116 CB        -5.9808  -18.0047  -55.3475 C.3       21 UNK        -0.1800 
    117 C         -3.5786  -17.1053  -55.3274 C.2       21 UNK         0.5000 
    118 O         -3.5544  -17.2709  -56.5486 O.2       21 UNK        -0.5000 
    119 N         -2.6062  -16.5007  -54.6387 N.am      22 UNK        -0.5000 
    120 CA        -1.3987  -15.8679  -55.1848 C.3       22 UNK         0.1400 
    121 C         -1.7070  -14.6861  -56.1485 C.2       22 UNK         0.5000 
    122 N         -0.9580  -14.5469  -57.2338 N.am      22 UNK        -0.7600 
    123 O         -2.5965  -13.8744  -55.9007 O.2       22 UNK        -0.5000 
    124 C124       -0.4683  -15.4281  -54.0245 C.3       23 UNK        -0.0398 
    125 S125        1.2997  -15.3938  -54.4742 S.3       23 UNK        -0.2404 
    126 C126        1.8207  -17.1024  -54.1127 C.3       23 UNK        -0.0205 
    127 H127        2.2041  -10.0943  -45.9065 H         1 UNK         0.0600 
    128 H128        3.9088  -10.4691  -46.1814 H         1 UNK         0.0600 
    129 H129        3.1658  -10.8295  -44.6197 H         1 UNK         0.0600 
    130 H130        4.0997  -12.2499  -47.5415 H         1 UNK         0.3000 
    131 H131        2.7913  -14.7203  -46.9250 H         1 UNK         0.0600 
    132 H132        4.1149  -14.4817  -49.6249 H         1 UNK         0.0800 
    133 H133        5.1401  -14.1759  -48.2545 H         1 UNK         0.0800 
    134 H134        5.0566  -18.1226  -49.7547 H         1 UNK         0.0800 
    135 H135        5.2160  -16.5348  -50.4566 H         1 UNK         0.0800 
    136 H136        3.9184  -16.6081  -52.4430 H         1 UNK         0.1150 
    137 H137       -0.0234  -18.2834  -52.4878 H         1 UNK         0.1150 
    138 H138        2.2553  -18.2932  -48.8623 H         1 UNK         0.1150 
    139 H139       -0.3054  -18.6053  -48.8794 H         1 UNK         0.0800 
    140 H140       -1.1052  -18.7738  -50.4081 H         1 UNK         0.0800 
    141 H141        0.6858  -20.1616  -47.6377 H         1 UNK         0.0800 
    142 H142        1.9179  -21.1266  -48.3800 H         1 UNK         0.0800 
    143 H143        0.8499  -23.1677  -47.8210 H         1 UNK         0.0600 
    144 H144        1.1916  -21.3128  -45.7219 H         1 UNK         0.3000 
    145 H145        0.5301  -23.5185  -42.9717 H         1 UNK         0.0600 
    146 H146        2.7621  -22.6195  -42.3764 H         1 UNK         0.0600 
    147 H147        2.9137  -23.7938  -43.6752 H         1 UNK         0.0600 
    148 H148        3.0182  -22.0737  -44.0321 H         1 UNK         0.0600 
    149 H149        1.1560  -20.7580  -42.9983 H         1 UNK         0.3000 
    150 H150       -2.2087  -19.4996  -43.2034 H         1 UNK         0.0600 
    151 H151       -1.7068  -20.0104  -40.8235 H         1 UNK         0.0600 
    152 H152       -1.3348  -18.3319  -41.1896 H         1 UNK         0.0600 
    153 H153       -0.0349  -19.5118  -41.0417 H         1 UNK         0.0600 
    154 H154        0.2584  -18.1108  -43.1343 H         1 UNK         0.3000 
    155 H155        0.8179  -17.9166  -46.6688 H         1 UNK         0.0600 
    156 H156       -0.1693  -15.9776  -44.5130 H         1 UNK         0.0600 
    157 H157       -0.6800  -16.0928  -46.1748 H         1 UNK         0.0600 
    158 H158        0.9369  -15.5023  -45.7862 H         1 UNK         0.0600 
    159 H159        2.2446  -17.0694  -44.3062 H         1 UNK         0.3000 
    160 H160        4.3678  -19.9100  -44.0613 H         1 UNK         0.0600 
    161 H161        5.0174  -17.1114  -45.1377 H         1 UNK         0.0600 
    162 H162        5.3960  -18.6251  -45.9503 H         1 UNK         0.0600 
    163 H163        6.1647  -18.2416  -44.4182 H         1 UNK         0.0600 
    164 H164        4.3805  -17.3593  -42.7730 H         1 UNK         0.3000 
    165 H165        1.9203  -17.9929  -40.3031 H         1 UNK         0.0600 
    166 H166        3.7963  -17.4503  -38.7720 H         1 UNK         0.0600 
    167 H167        3.9590  -19.0943  -39.3679 H         1 UNK         0.0600 
    168 H168        4.9718  -17.8192  -40.0346 H         1 UNK         0.0600 
    169 H169        3.6993  -15.8057  -40.7466 H         1 UNK         0.3000 
    170 H170        2.7631  -13.7974  -41.4801 H         1 UNK         0.0600 
    171 H171        4.2927  -14.8816  -43.1611 H         1 UNK         0.0600 
    172 H172        3.0185  -14.7946  -44.3700 H         1 UNK         0.0600 
    173 H173        3.7198  -13.3193  -43.7020 H         1 UNK         0.0600 
    174 H174        1.1398  -13.2991  -43.7720 H         1 UNK         0.3000 
    175 H175       -1.9085  -12.7510  -42.2213 H         1 UNK         0.0600 
    176 H176        0.0640  -10.4083  -42.2752 H         1 UNK         0.0600 
    177 H177       -1.6947  -10.2777  -42.3131 H         1 UNK         0.0600 
    178 H178       -0.8928  -10.9156  -40.8884 H         1 UNK         0.0600 
    179 H179       -0.4810  -11.4285  -44.4176 H         1 UNK         0.3000 
    180 H180       -2.8718  -12.6369  -46.5510 H         1 UNK         0.0600 
    181 H181       -0.2953  -10.9718  -46.4287 H         1 UNK         0.0600 
    182 H182       -1.9001  -10.4045  -45.9635 H         1 UNK         0.0600 
    183 H183       -1.5707  -10.8435  -47.6288 H         1 UNK         0.0600 
    184 H184       -0.1272  -13.7143  -46.7940 H         1 UNK         0.3000 
    185 H185       -0.8752  -15.9946  -48.7944 H         1 UNK         0.0600 
    186 H186        0.2304  -15.4292  -51.0334 H         1 UNK         0.0600 
    187 H187       -1.5067  -15.1624  -50.9569 H         1 UNK         0.0600 
    188 H188       -0.4029  -13.7975  -50.8625 H         1 UNK         0.0600 
    189 H189        1.1556  -15.7591  -47.9838 H         1 UNK         0.3000 
    190 H190       -1.5812  -20.9221  -46.3582 H         1 UNK         0.3000 
    191 H191       -3.7879  -21.7569  -47.8521 H         1 UNK         0.0600 
    192 H192       -3.6930  -20.6461  -45.0039 H         1 UNK         0.0600 
    193 H193       -5.1282  -20.7124  -46.0215 H         1 UNK         0.0600 
    194 H194       -3.7685  -19.7031  -46.4909 H         1 UNK         0.0600 
    195 H195       -2.5959  -23.1060  -44.7519 H         1 UNK         0.3000 
    196 H196       -4.6584  -25.0126  -44.3715 H         1 UNK         0.0600 
    197 H197       -3.0117  -26.0798  -42.8156 H         1 UNK         0.0600 
    198 H198       -3.1020  -24.3414  -42.5749 H         1 UNK         0.0600 
    199 H199       -1.7377  -25.0398  -43.4429 H         1 UNK         0.0600 
    200 H200       -1.4843  -25.3189  -46.0454 H         1 UNK         0.3000 
    201 H201       -1.7883  -28.0854  -46.7315 H         1 UNK         0.0600 
    202 H202        0.4202  -26.9757  -46.5882 H         1 UNK         0.0600 
    203 H203        0.0037  -25.9014  -47.9207 H         1 UNK         0.0600 
    204 H204        0.1821  -27.6301  -48.2021 H         1 UNK         0.0600 
    205 H205       -2.4614  -25.0549  -48.4906 H         1 UNK         0.3000 
    206 H206       -3.2299  -26.2794  -50.9768 H         1 UNK         0.0600 
    207 H207       -2.2888  -23.9857  -50.8236 H         1 UNK         0.0600 
    208 H208       -3.9140  -23.8987  -51.4827 H         1 UNK         0.0600 
    209 H209       -3.6388  -23.4733  -49.8095 H         1 UNK         0.0600 
    210 H210       -4.9340  -25.9495  -48.0403 H         1 UNK         0.3000 
    211 H211       -7.0251  -25.9818  -47.3136 H         1 UNK         0.0600 
    212 H212       -7.8044  -27.2737  -49.9856 H         1 UNK         0.0600 
    213 H213       -8.7390  -27.3074  -48.4970 H         1 UNK         0.0600 
    214 H214       -7.1968  -28.1435  -48.5776 H         1 UNK         0.0600 
    215 H215       -6.0640  -23.6675  -48.3449 H         1 UNK         0.3000 
    216 H216       -6.3961  -21.6092  -49.0015 H         1 UNK         0.0600 
    217 H217       -8.5988  -20.5556  -48.6514 H         1 UNK         0.0600 
    218 H218       -8.2650  -21.6876  -47.3521 H         1 UNK         0.0600 
    219 H219       -9.3923  -22.1230  -48.6366 H         1 UNK         0.0600 
    220 H220       -7.3010  -24.0191  -51.1154 H         1 UNK         0.3000 
    221 H221       -8.6130  -22.4273  -53.1550 H         1 UNK         0.0600 
    222 H222       -7.4976  -25.2816  -53.2031 H         1 UNK         0.0600 
    223 H223       -9.1582  -24.8100  -52.8592 H         1 UNK         0.0600 
    224 H224       -8.4862  -24.5493  -54.4614 H         1 UNK         0.0600 
    225 H225       -5.4617  -24.1629  -53.0695 H         1 UNK         0.3000 
    226 H226       -4.4663  -22.8052  -55.4306 H         1 UNK         0.0600 
    227 H227       -3.9060  -25.1721  -54.9135 H         1 UNK         0.0600 
    228 H228       -2.4575  -24.1919  -55.0506 H         1 UNK         0.0600 
    229 H229       -3.0367  -24.6730  -53.4649 H         1 UNK         0.0600 
    230 H230       -4.7229  -21.7198  -52.2941 H         1 UNK         0.3000 
    231 H231       -2.1975  -20.3331  -51.9714 H         1 UNK         0.0600 
    232 H232       -3.4561  -21.1360  -50.0243 H         1 UNK         0.0600 
    233 H233       -4.8648  -20.1659  -50.4677 H         1 UNK         0.0600 
    234 H234       -3.3766  -19.3884  -49.9497 H         1 UNK         0.0600 
    235 H235       -4.7745  -19.6931  -54.0006 H         1 UNK         0.3000 
    236 H236       -5.0618  -16.8438  -53.8022 H         1 UNK         0.0600 
    237 H237       -6.3019  -17.1548  -55.9510 H         1 UNK         0.0600 
    238 H238       -5.7637  -18.8297  -56.0274 H         1 UNK         0.0600 
    239 H239       -6.8270  -18.2999  -54.7266 H         1 UNK         0.0600 
    240 H240       -2.6977  -16.4974  -53.6288 H         1 UNK         0.3000 
    241 H241       -0.8933  -16.6475  -55.7581 H         1 UNK         0.0600 
    242 H242       -1.1387  -13.7777  -57.8601 H         1 UNK         0.3800 
    243 H243       -0.2067  -15.1869  -57.4408 H         1 UNK         0.3800 
    244 H244       -0.7526  -14.4456  -53.6432 H         1 UNK         0.0800 
    245 H245       -0.5838  -16.1023  -53.1786 H         1 UNK         0.0800 
    246 H246        2.7903  -17.2755  -54.5819 H         1 UNK         0.0800 
    247 H247        1.1305  -17.8017  -54.5873 H         1 UNK         0.0800 
@<TRIPOS>BOND
     1    1    2 1    
     2    1  127 1    
     3    1  128 1    
     4    1  129 1    
     5    2    3 2    
     6    2    4 am   BACKBONE|DICT|INTERRES
     7    4    5 1    
     8    4  130 1    
     9    5    6 1    
    10    5   65 1    
    11    5  131 1    
    12    6    7 1    
    13    6  132 1    
    14    6  133 1    
    15    7    8 1    
    16    8    9 1    
    17    8  134 1    
    18    8  135 1    
    19    9   10 ar   
    20    9   14 ar   
    21   10   11 ar   
    22   10  136 1    
    23   11   12 ar   
    24   11  126 1    
    25   12   13 ar   
    26   12  137 1    
    27   13   14 ar   
    28   13   15 1    
    29   14  138 1    
    30   15   16 1    
    31   15  139 1    
    32   15  140 1    
    33   16   17 1    
    34   17   18 1    
    35   17  141 1    
    36   17  142 1    
    37   18   19 1    
    38   18   67 1    
    39   18  143 1    
    40   19   20 am   BACKBONE|DICT|INTERRES
    41   19  144 1    
    42   20   21 2    
    43   20   22 1    
    44   22   23 1    
    45   22   24 1    
    46   22  145 1    
    47   23  146 1    
    48   23  147 1    
    49   23  148 1    
    50   24   25 am   BACKBONE|DICT|INTERRES
    51   24  149 1    
    52   25   26 2    
    53   25   27 1    
    54   27   28 1    
    55   27   29 1    
    56   27  150 1    
    57   28  151 1    
    58   28  152 1    
    59   28  153 1    
    60   29   30 am   BACKBONE|DICT|INTERRES
    61   29  154 1    
    62   30   31 2    
    63   30   32 1    
    64   32   33 1    
    65   32   34 1    
    66   32  155 1    
    67   33  156 1    
    68   33  157 1    
    69   33  158 1    
    70   34   35 am   BACKBONE|DICT|INTERRES
    71   34  159 1    
    72   35   36 2    
    73   35   37 1    
    74   37   38 1    
    75   37   39 1    
    76   37  160 1    
    77   38  161 1    
    78   38  162 1    
    79   38  163 1    
    80   39   40 am   BACKBONE|DICT|INTERRES
    81   39  164 1    
    82   40   41 2    
    83   40   42 1    
    84   42   43 1    
    85   42   44 1    
    86   42  165 1    
    87   43  166 1    
    88   43  167 1    
    89   43  168 1    
    90   44   45 am   BACKBONE|DICT|INTERRES
    91   44  169 1    
    92   45   46 2    
    93   45   47 1    
    94   47   48 1    
    95   47   49 1    
    96   47  170 1    
    97   48  171 1    
    98   48  172 1    
    99   48  173 1    
   100   49   50 am   BACKBONE|DICT|INTERRES
   101   49  174 1    
   102   50   51 2    
   103   50   52 1    
   104   52   53 1    
   105   52   54 1    
   106   52  175 1    
   107   53  176 1    
   108   53  177 1    
   109   53  178 1    
   110   54   55 am   BACKBONE|DICT|INTERRES
   111   54  179 1    
   112   55   56 2    
   113   55   57 1    
   114   57   58 1    
   115   57   59 1    
   116   57  180 1    
   117   58  181 1    
   118   58  182 1    
   119   58  183 1    
   120   59   60 am   BACKBONE|DICT|INTERRES
   121   59  184 1    
   122   60   61 2    
   123   60   62 1    
   124   62   63 1    
   125   62   64 1    
   126   62  185 1    
   127   63  186 1    
   128   63  187 1    
   129   63  188 1    
   130   64   65 am   BACKBONE|DICT|INTERRES
   131   64  189 1    
   132   65   66 2    
   133   67   68 2    
   134   67   69 am   BACKBONE|DICT|INTERRES
   135   69   70 1    
   136   69  190 1    
   137   70   71 1    
   138   70   72 1    
   139   70  191 1    
   140   71  192 1    
   141   71  193 1    
   142   71  194 1    
   143   72   73 2    
   144   72   74 am   BACKBONE|DICT|INTERRES
   145   74   75 1    
   146   74  195 1    
   147   75   76 1    
   148   75   77 1    
   149   75  196 1    
   150   76  197 1    
   151   76  198 1    
   152   76  199 1    
   153   77   78 2    
   154   77   79 am   BACKBONE|DICT|INTERRES
   155   79   80 1    
   156   79  200 1    
   157   80   81 1    
   158   80   82 1    
   159   80  201 1    
   160   81  202 1    
   161   81  203 1    
   162   81  204 1    
   163   82   83 2    
   164   82   84 am   BACKBONE|DICT|INTERRES
   165   84   85 1    
   166   84  205 1    
   167   85   86 1    
   168   85   87 1    
   169   85  206 1    
   170   86  207 1    
   171   86  208 1    
   172   86  209 1    
   173   87   88 2    
   174   87   89 am   BACKBONE|DICT|INTERRES
   175   89   90 1    
   176   89  210 1    
   177   90   91 1    
   178   90   92 1    
   179   90  211 1    
   180   91  212 1    
   181   91  213 1    
   182   91  214 1    
   183   92   93 2    
   184   92   94 am   BACKBONE|DICT|INTERRES
   185   94   95 1    
   186   94  215 1    
   187   95   96 1    
   188   95   97 1    
   189   95  216 1    
   190   96  217 1    
   191   96  218 1    
   192   96  219 1    
   193   97   98 2    
   194   97   99 am   BACKBONE|DICT|INTERRES
   195   99  100 1    
   196   99  220 1    
   197  100  101 1    
   198  100  102 1    
   199  100  221 1    
   200  101  222 1    
   201  101  223 1    
   202  101  224 1    
   203  102  103 2    
   204  102  104 am   BACKBONE|DICT|INTERRES
   205  104  105 1    
   206  104  225 1    
   207  105  106 1    
   208  105  107 1    
   209  105  226 1    
   210  106  227 1    
   211  106  228 1    
   212  106  229 1    
   213  107  108 2    
   214  107  109 am   BACKBONE|DICT|INTERRES
   215  109  110 1    
   216  109  230 1    
   217  110  111 1    
   218  110  112 1    
   219  110  231 1    
   220  111  232 1    
   221  111  233 1    
   222  111  234 1    
   223  112  113 2    
   224  112  114 am   BACKBONE|DICT|INTERRES
   225  114  115 1    
   226  114  235 1    
   227  115  116 1    
   228  115  117 1    
   229  115  236 1    
   230  116  237 1    
   231  116  238 1    
   232  116  239 1    
   233  117  118 2    
   234  117  119 am   BACKBONE|DICT|INTERRES
   235  119  120 1    
   236  119  240 1    
   237  120  121 1    
   238  120  124 1    
   239  120  241 1    
   240  121  122 am   BACKBONE|DICT|INTERRES
   241  121  123 2    
   242  122  242 1    
   243  122  243 1    
   244  124  125 1    
   245  124  244 1    
   246  124  245 1    
   247  125  126 1    
   248  126  246 1    
   249  126  247 1    
@<TRIPOS>SUBSTRUCTURE
     1 UNK         1 GROUP             0       ****    0 ROOT    
