@<TRIPOS>MOLECULE
3R540
247   249    1
SMALL
USER_CHARGES


@<TRIPOS>ATOM
      1 CA          2.9444  -10.6038  -44.2727 C.3       0 UNK        -0.1800 
      2 C           3.6606  -10.8705  -45.5875 C.2       0 UNK         0.5000 
      3 O           4.8899  -10.8331  -45.6384 O.2       0 UNK        -0.5000 
      4 N           2.8969  -11.1466  -46.6523 N.am      1 UNK        -0.5000 
      5 CA          3.3973  -11.3653  -48.0169 C.3       1 UNK         0.1400 
      6 C6          2.2544  -11.3035  -49.0600 C.3       23 UNK        -0.0398 
      7 S7          0.9933  -12.6126  -48.8591 S.3       23 UNK        -0.2404 
      8 C8          1.3420  -13.6182  -50.3340 C.3       23 UNK        -0.0205 
      9 C9          0.6592  -14.9752  -50.2800 C.ar      23 UNK        -0.0193 
     10 C10        -0.7322  -15.0688  -50.3543 C.ar      23 UNK        -0.1150 
     11 C11        -1.3588  -16.3173  -50.3637 C.ar      23 UNK        -0.0193 
     12 C12        -0.5811  -17.4768  -50.2872 C.ar      23 UNK        -0.1150 
     13 C13         0.8158  -17.4023  -50.2013 C.ar      23 UNK        -0.0193 
     14 C14         1.4228  -16.1429  -50.1984 C.ar      23 UNK        -0.1150 
     15 C15         1.7189  -18.6384  -50.1449 C.3       23 UNK        -0.0205 
     16 S16         0.8995  -20.2306  -49.7807 S.3       23 UNK        -0.2404 
     17 C17         0.3974  -19.9613  -48.0478 C.3       23 UNK        -0.0398 
     18 CA         -0.7109  -20.9156  -47.5426 C.3       11 UNK         0.1400 
     19 N          -0.9276  -20.7388  -46.1016 N.am      11 UNK        -0.5000 
     20 C          -1.7851  -21.4288  -45.3355 C.2       10 UNK         0.5000 
     21 O          -2.5207  -22.3195  -45.7590 O.2       10 UNK        -0.5000 
     22 CA         -1.8806  -21.0112  -43.8591 C.3       10 UNK         0.1400 
     23 CB         -0.6382  -21.4586  -43.0744 C.3       10 UNK        -0.1800 
     24 N          -2.0712  -19.5681  -43.7206 N.am      10 UNK        -0.5000 
     25 C          -3.1767  -18.9160  -44.1090 C.2       9 UNK         0.5000 
     26 O          -4.1878  -19.4785  -44.5292 O.2       9 UNK        -0.5000 
     27 CA         -3.1434  -17.3778  -44.0457 C.3       9 UNK         0.1400 
     28 CB         -3.5185  -16.8857  -42.6401 C.3       9 UNK        -0.1800 
     29 N          -1.8507  -16.8120  -44.4353 N.am      9 UNK        -0.5000 
     30 C          -1.3023  -16.9230  -45.6541 C.2       8 UNK         0.5000 
     31 O          -1.8417  -17.5015  -46.5964 O.2       8 UNK        -0.5000 
     32 CA          0.1128  -16.3427  -45.8318 C.3       8 UNK         0.1400 
     33 CB          0.0739  -14.8174  -46.0017 C.3       8 UNK        -0.1800 
     34 N           0.9966  -16.6930  -44.7192 N.am      8 UNK        -0.5000 
     35 C           1.3734  -17.9453  -44.4228 C.2       7 UNK         0.5000 
     36 O           1.0414  -18.9336  -45.0754 O.2       7 UNK        -0.5000 
     37 CA          2.2157  -18.1333  -43.1515 C.3       7 UNK         0.1400 
     38 CB          3.6955  -17.8161  -43.4156 C.3       7 UNK        -0.1800 
     39 N           1.7149  -17.3211  -42.0428 N.am      7 UNK        -0.5000 
     40 C           0.5399  -17.5294  -41.4296 C.2       6 UNK         0.5000 
     41 O          -0.2215  -18.4550  -41.7066 O.2       6 UNK        -0.5000 
     42 CA          0.1263  -16.5049  -40.3582 C.3       6 UNK         0.1400 
     43 CB          0.7504  -16.8595  -39.0004 C.3       6 UNK        -0.1800 
     44 N           0.4966  -15.1367  -40.7201 N.am      6 UNK        -0.5000 
     45 C          -0.0132  -14.4589  -41.7588 C.2       5 UNK         0.5000 
     46 O          -0.8878  -14.9003  -42.5021 O.2       5 UNK        -0.5000 
     47 CA          0.6050  -13.0801  -42.0476 C.3       5 UNK         0.1400 
     48 CB         -0.0959  -11.9846  -41.2316 C.3       5 UNK        -0.1800 
     49 N           2.0439  -13.0503  -41.7739 N.am      5 UNK        -0.5000 
     50 C           2.9530  -13.7255  -42.4866 C.2       4 UNK         0.5000 
     51 O           2.6773  -14.4211  -43.4693 O.2       4 UNK        -0.5000 
     52 CA          4.4053  -13.6261  -42.0096 C.3       4 UNK         0.1400 
     53 CB          4.7459  -14.7691  -41.0377 C.3       4 UNK        -0.1800 
     54 N           5.2595  -13.6822  -43.1853 N.am      4 UNK        -0.5000 
     55 C           6.5169  -13.2379  -43.2767 C.2       3 UNK         0.5000 
     56 O           7.1480  -12.7924  -42.3171 O.2       3 UNK        -0.5000 
     57 CA          7.1709  -13.2364  -44.6747 C.3       3 UNK         0.1400 
     58 CB          8.4908  -14.0340  -44.7045 C.3       3 UNK        -0.1800 
     59 N           6.2576  -13.6236  -45.7597 N.am      3 UNK        -0.5000 
     60 C           5.8106  -14.8428  -46.0996 C.2       2 UNK         0.5000 
     61 O           6.1798  -15.8823  -45.5541 O.2       2 UNK        -0.5000 
     62 CA          4.7270  -14.9029  -47.1993 C.3       2 UNK         0.1400 
     63 CB          3.7138  -16.0287  -46.9335 C.3       2 UNK        -0.1800 
     64 N           3.9918  -13.6406  -47.3003 N.am      2 UNK        -0.5000 
     65 C           4.2502  -12.6476  -48.1617 C.2       1 UNK         0.5000 
     66 O           5.1333  -12.6979  -49.0180 O.2       1 UNK        -0.5000 
     67 C          -2.0180  -20.7879  -48.3562 C.2       11 UNK         0.5000 
     68 O          -2.2580  -21.5997  -49.2500 O.2       11 UNK        -0.5000 
     69 N          -2.8765  -19.8310  -47.9766 N.am      12 UNK        -0.5000 
     70 CA         -4.2051  -19.6050  -48.5481 C.3       12 UNK         0.1400 
     71 CB         -4.8200  -18.3460  -47.9165 C.3       12 UNK        -0.1800 
     72 C          -5.1833  -20.7923  -48.4359 C.2       12 UNK         0.5000 
     73 O          -6.1843  -20.7842  -49.1477 O.2       12 UNK        -0.5000 
     74 N          -4.8927  -21.7809  -47.5800 N.am      13 UNK        -0.5000 
     75 CA         -5.6246  -23.0431  -47.4855 C.3       13 UNK         0.1400 
     76 CB         -6.0748  -23.2563  -46.0318 C.3       13 UNK        -0.1800 
     77 C          -4.7552  -24.2202  -47.9603 C.2       13 UNK         0.5000 
     78 O          -5.2317  -25.0617  -48.7244 O.2       13 UNK        -0.5000 
     79 N          -3.4994  -24.2619  -47.4935 N.am      14 UNK        -0.5000 
     80 CA         -2.5604  -25.3681  -47.6757 C.3       14 UNK         0.1400 
     81 CB         -1.3613  -25.1692  -46.7362 C.3       14 UNK        -0.1800 
     82 C          -2.0743  -25.5772  -49.1190 C.2       14 UNK         0.5000 
     83 O          -1.6581  -26.6909  -49.4409 O.2       14 UNK        -0.5000 
     84 N          -2.1276  -24.5359  -49.9621 N.am      15 UNK        -0.5000 
     85 CA         -1.7593  -24.5836  -51.3786 C.3       15 UNK         0.1400 
     86 CB         -1.9300  -23.1910  -51.9903 C.3       15 UNK        -0.1800 
     87 C          -2.5777  -25.6342  -52.1509 C.2       15 UNK         0.5000 
     88 O          -3.7943  -25.4791  -52.2935 O.2       15 UNK        -0.5000 
     89 N          -1.8943  -26.7147  -52.5577 N.am      16 UNK        -0.5000 
     90 CA         -2.4257  -27.9417  -53.1701 C.3       16 UNK         0.1400 
     91 CB         -3.0358  -27.6319  -54.5524 C.3       16 UNK        -0.1800 
     92 C          -3.4161  -28.7166  -52.2690 C.2       16 UNK         0.5000 
     93 O          -4.1363  -29.5825  -52.7678 O.2       16 UNK        -0.5000 
     94 N          -3.4616  -28.3670  -50.9723 N.am      17 UNK        -0.5000 
     95 CA         -4.4656  -28.7442  -49.9712 C.3       17 UNK         0.1400 
     96 CB         -4.3150  -30.2306  -49.5886 C.3       17 UNK        -0.1800 
     97 C          -5.9084  -28.3725  -50.3877 C.2       17 UNK         0.5000 
     98 O          -6.8564  -29.0405  -49.9697 O.2       17 UNK        -0.5000 
     99 N          -6.0498  -27.3376  -51.2280 N.am      18 UNK        -0.5000 
    100 CA        -7.2911  -26.9956  -51.9196 C.3       18 UNK         0.1400 
    101 CB        -7.3615  -27.7851  -53.2417 C.3       18 UNK        -0.1800 
    102 C         -7.4395  -25.4807  -52.1410 C.2       18 UNK         0.5000 
    103 O         -8.2249  -25.0777  -53.0006 O.2       18 UNK        -0.5000 
    104 N         -6.7004  -24.6677  -51.3690 N.am      19 UNK        -0.5000 
    105 CA        -6.7013  -23.1999  -51.3959 C.3       19 UNK         0.1400 
    106 CB        -8.0558  -22.6628  -50.8812 C.3       19 UNK        -0.1800 
    107 C         -6.3079  -22.6052  -52.7671 C.2       19 UNK         0.5000 
    108 O         -6.8880  -21.6093  -53.2012 O.2       19 UNK        -0.5000 
    109 N         -5.3423  -23.2400  -53.4460 N.am      20 UNK        -0.5000 
    110 CA        -4.9725  -22.9252  -54.8289 C.3       20 UNK         0.1400 
    111 CB        -4.1309  -24.0784  -55.3952 C.3       20 UNK        -0.1800 
    112 C         -4.2442  -21.5787  -55.0188 C.2       20 UNK         0.5000 
    113 O         -4.2557  -21.0474  -56.1300 O.2       20 UNK        -0.5000 
    114 N         -3.6050  -21.0625  -53.9598 N.am      21 UNK        -0.5000 
    115 CA        -2.7967  -19.8424  -54.0050 C.3       21 UNK         0.1400 
    116 CB        -1.8742  -19.7773  -52.7779 C.3       21 UNK        -0.1800 
    117 C         -3.6308  -18.5557  -54.1168 C.2       21 UNK         0.5000 
    118 O         -3.2753  -17.6779  -54.9047 O.2       21 UNK        -0.5000 
    119 N         -4.7054  -18.4624  -53.3245 N.am      22 UNK        -0.5000 
    120 CA        -5.5696  -17.2797  -53.2204 C.3       22 UNK         0.1400 
    121 C         -7.0494  -17.7326  -53.1941 C.2       22 UNK         0.5000 
    122 N         -7.8421  -17.3702  -54.1936 N.am      22 UNK        -0.7600 
    123 O         -7.4934  -18.3833  -52.2522 O.2       22 UNK        -0.5000 
    124 C124       -5.2367  -16.4024  -51.9805 C.3       23 UNK        -0.0398 
    125 S125       -3.5365  -15.7303  -51.9935 S.3       23 UNK        -0.2404 
    126 C126       -2.8744  -16.4182  -50.4441 C.3       23 UNK        -0.0205 
    127 H127        1.9911  -11.1303  -44.2247 H         1 UNK         0.0600 
    128 H128        3.5579  -10.9291  -43.4332 H         1 UNK         0.0600 
    129 H129        2.7555   -9.5365  -44.1597 H         1 UNK         0.0600 
    130 H130        1.8919  -11.1762  -46.5508 H         1 UNK         0.3000 
    131 H131        4.0689  -10.5324  -48.2369 H         1 UNK         0.0600 
    132 H132        1.7477  -10.3404  -48.9850 H         1 UNK         0.0800 
    133 H133        2.6650  -11.3308  -50.0709 H         1 UNK         0.0800 
    134 H134        1.0077  -13.0813  -51.2228 H         1 UNK         0.0800 
    135 H135        2.4208  -13.7457  -50.4375 H         1 UNK         0.0800 
    136 H136       -1.3277  -14.1689  -50.4186 H         1 UNK         0.1150 
    137 H137       -1.0749  -18.4363  -50.2973 H         1 UNK         0.1150 
    138 H138        2.5006  -16.0728  -50.1496 H         1 UNK         0.1150 
    139 H139        2.2229  -18.7323  -51.1075 H         1 UNK         0.0800 
    140 H140        2.5023  -18.4800  -49.4019 H         1 UNK         0.0800 
    141 H141        0.0868  -18.9248  -47.9145 H         1 UNK         0.0800 
    142 H142        1.2927  -20.0859  -47.4377 H         1 UNK         0.0800 
    143 H143       -0.3538  -21.9380  -47.6781 H         1 UNK         0.0600 
    144 H144       -0.3527  -20.0260  -45.6577 H         1 UNK         0.3000 
    145 H145       -2.7494  -21.5117  -43.4265 H         1 UNK         0.0600 
    146 H146       -0.7446  -21.2370  -42.0124 H         1 UNK         0.0600 
    147 H147       -0.4838  -22.5342  -43.1684 H         1 UNK         0.0600 
    148 H148        0.2667  -20.9643  -43.4278 H         1 UNK         0.0600 
    149 H149       -1.3049  -19.0419  -43.3138 H         1 UNK         0.3000 
    150 H150       -3.8916  -17.0037  -44.7476 H         1 UNK         0.0600 
    151 H151       -4.4898  -17.2768  -42.3348 H         1 UNK         0.0600 
    152 H152       -3.5808  -15.7979  -42.6070 H         1 UNK         0.0600 
    153 H153       -2.7874  -17.2021  -41.8958 H         1 UNK         0.0600 
    154 H154       -1.3595  -16.2756  -43.7249 H         1 UNK         0.3000 
    155 H155        0.5358  -16.7698  -46.7435 H         1 UNK         0.0600 
    156 H156       -0.3351  -14.3204  -45.1222 H         1 UNK         0.0600 
    157 H157       -0.5455  -14.5397  -46.8555 H         1 UNK         0.0600 
    158 H158        1.0709  -14.4151  -46.1799 H         1 UNK         0.0600 
    159 H159        1.3373  -15.9308  -44.1447 H         1 UNK         0.3000 
    160 H160        2.1450  -19.1835  -42.8602 H         1 UNK         0.0600 
    161 H161        4.3068  -18.0312  -42.5394 H         1 UNK         0.0600 
    162 H162        3.8504  -16.7717  -43.6849 H         1 UNK         0.0600 
    163 H163        4.0825  -18.4215  -44.2363 H         1 UNK         0.0600 
    164 H164        2.2625  -16.5158  -41.7826 H         1 UNK         0.3000 
    165 H165       -0.9602  -16.5469  -40.2574 H         1 UNK         0.0600 
    166 H166        0.4040  -16.1832  -38.2187 H         1 UNK         0.0600 
    167 H167        0.4763  -17.8712  -38.6980 H         1 UNK         0.0600 
    168 H168        1.8396  -16.8094  -39.0303 H         1 UNK         0.0600 
    169 H169        1.2085  -14.6933  -40.1592 H         1 UNK         0.3000 
    170 H170        0.4531  -12.8654  -43.1076 H         1 UNK         0.0600 
    171 H171       -1.1681  -11.9753  -41.4322 H         1 UNK         0.0600 
    172 H172        0.0366  -12.1314  -40.1590 H         1 UNK         0.0600 
    173 H173        0.2897  -10.9971  -41.4863 H         1 UNK         0.0600 
    174 H174        2.3426  -12.4965  -40.9837 H         1 UNK         0.3000 
    175 H175        4.5471  -12.6650  -41.5108 H         1 UNK         0.0600 
    176 H176        5.7647  -14.6766  -40.6612 H         1 UNK         0.0600 
    177 H177        4.0811  -14.7624  -40.1731 H         1 UNK         0.0600 
    178 H178        4.6573  -15.7443  -41.5158 H         1 UNK         0.0600 
    179 H179        4.7997  -14.0315  -44.0153 H         1 UNK         0.3000 
    180 H180        7.4229  -12.1944  -44.8771 H         1 UNK         0.0600 
    181 H181        8.3504  -15.0702  -44.3966 H         1 UNK         0.0600 
    182 H182        9.2225  -13.5952  -44.0254 H         1 UNK         0.0600 
    183 H183        8.9323  -14.0332  -45.7010 H         1 UNK         0.0600 
    184 H184        5.8457  -12.8357  -46.2441 H         1 UNK         0.3000 
    185 H185        5.2315  -15.1172  -48.1434 H         1 UNK         0.0600 
    186 H186        2.9172  -16.0337  -47.6767 H         1 UNK         0.0600 
    187 H187        4.1910  -17.0089  -46.9614 H         1 UNK         0.0600 
    188 H188        3.2554  -15.9137  -45.9528 H         1 UNK         0.0600 
    189 H189        3.2533  -13.4972  -46.6267 H         1 UNK         0.3000 
    190 H190       -2.5796  -19.1723  -47.2615 H         1 UNK         0.3000 
    191 H191       -4.0670  -19.4231  -49.6147 H         1 UNK         0.0600 
    192 H192       -5.0291  -18.4920  -46.8571 H         1 UNK         0.0600 
    193 H193       -5.7606  -18.0843  -48.4027 H         1 UNK         0.0600 
    194 H194       -4.1582  -17.4863  -48.0073 H         1 UNK         0.0600 
    195 H195       -4.0496  -21.7054  -47.0231 H         1 UNK         0.3000 
    196 H196       -6.5179  -23.0235  -48.1121 H         1 UNK         0.0600 
    197 H197       -5.2289  -23.2747  -45.3433 H         1 UNK         0.0600 
    198 H198       -6.6107  -24.2001  -45.9225 H         1 UNK         0.0600 
    199 H199       -6.7472  -22.4608  -45.7105 H         1 UNK         0.0600 
    200 H200       -3.1854  -23.5256  -46.8640 H         1 UNK         0.3000 
    201 H201       -3.0738  -26.2841  -47.3764 H         1 UNK         0.0600 
    202 H202       -0.8100  -24.2599  -46.9769 H         1 UNK         0.0600 
    203 H203       -0.6636  -26.0047  -46.8073 H         1 UNK         0.0600 
    204 H204       -1.6810  -25.1019  -45.6961 H         1 UNK         0.0600 
    205 H205       -2.4469  -23.6392  -49.6113 H         1 UNK         0.3000 
    206 H206       -0.7014  -24.8467  -51.4387 H         1 UNK         0.0600 
    207 H207       -1.2243  -22.4915  -51.5433 H         1 UNK         0.0600 
    208 H208       -1.7407  -23.2019  -53.0643 H         1 UNK         0.0600 
    209 H209       -2.9355  -22.8052  -51.8241 H         1 UNK         0.0600 
    210 H210       -0.9070  -26.7482  -52.3436 H         1 UNK         0.3000 
    211 H211       -1.5709  -28.6019  -53.3224 H         1 UNK         0.0600 
    212 H212       -3.9750  -27.0865  -54.4623 H         1 UNK         0.0600 
    213 H213       -3.2466  -28.5501  -55.1016 H         1 UNK         0.0600 
    214 H214       -2.3569  -27.0373  -55.1636 H         1 UNK         0.0600 
    215 H215       -2.7824  -27.6840  -50.6485 H         1 UNK         0.3000 
    216 H216       -4.2477  -28.1490  -49.0834 H         1 UNK         0.0600 
    217 H217       -3.2909  -30.4590  -49.2934 H         1 UNK         0.0600 
    218 H218       -4.9583  -30.4861  -48.7459 H         1 UNK         0.0600 
    219 H219       -4.5812  -30.8898  -50.4153 H         1 UNK         0.0600 
    220 H220       -5.2239  -26.8252  -51.5211 H         1 UNK         0.3000 
    221 H221       -8.1431  -27.2848  -51.3013 H         1 UNK         0.0600 
    222 H222       -6.5500  -27.5052  -53.9145 H         1 UNK         0.0600 
    223 H223       -7.2922  -28.8588  -53.0660 H         1 UNK         0.0600 
    224 H224       -8.3021  -27.6057  -53.7636 H         1 UNK         0.0600 
    225 H225       -6.0968  -25.0866  -50.6693 H         1 UNK         0.3000 
    226 H226       -5.9232  -22.8863  -50.7006 H         1 UNK         0.0600 
    227 H227       -8.2786  -23.0445  -49.8853 H         1 UNK         0.0600 
    228 H228       -8.0502  -21.5743  -50.8162 H         1 UNK         0.0600 
    229 H229       -8.8806  -22.9378  -51.5386 H         1 UNK         0.0600 
    230 H230       -4.9072  -24.0596  -53.0301 H         1 UNK         0.3000 
    231 H231       -5.8939  -22.8713  -55.4129 H         1 UNK         0.0600 
    232 H232       -4.6872  -25.0150  -55.3698 H         1 UNK         0.0600 
    233 H233       -3.2066  -24.2188  -54.8349 H         1 UNK         0.0600 
    234 H234       -3.8590  -23.8933  -56.4352 H         1 UNK         0.0600 
    235 H235       -3.6501  -21.5574  -53.0828 H         1 UNK         0.3000 
    236 H236       -2.1588  -19.8909  -54.8905 H         1 UNK         0.0600 
    237 H237       -2.4261  -19.8868  -51.8435 H         1 UNK         0.0600 
    238 H238       -1.1123  -20.5542  -52.8180 H         1 UNK         0.0600 
    239 H239       -1.3461  -18.8236  -52.7401 H         1 UNK         0.0600 
    240 H240       -4.9870  -19.2571  -52.7682 H         1 UNK         0.3000 
    241 H241       -5.4351  -16.6561  -54.1067 H         1 UNK         0.0600 
    242 H242       -7.4990  -16.8319  -54.9744 H         1 UNK         0.3800 
    243 H243       -8.8095  -17.6540  -54.1764 H         1 UNK         0.3800 
    244 H244       -5.9189  -15.5519  -51.9333 H         1 UNK         0.0800 
    245 H245       -5.4022  -16.9673  -51.0614 H         1 UNK         0.0800 
    246 H246       -3.3165  -15.8928  -49.5968 H         1 UNK         0.0800 
    247 H247       -3.1790  -17.4605  -50.3668 H         1 UNK         0.0800 
@<TRIPOS>BOND
     1    1    2 1    
     2    1  127 1    
     3    1  128 1    
     4    1  129 1    
     5    2    3 2    
     6    2    4 am   BACKBONE|DICT|INTERRES
     7    4    5 1    
     8    4  130 1    
     9    5    6 1    
    10    5   65 1    
    11    5  131 1    
    12    6    7 1    
    13    6  132 1    
    14    6  133 1    
    15    7    8 1    
    16    8    9 1    
    17    8  134 1    
    18    8  135 1    
    19    9   10 ar   
    20    9   14 ar   
    21   10   11 ar   
    22   10  136 1    
    23   11   12 ar   
    24   11  126 1    
    25   12   13 ar   
    26   12  137 1    
    27   13   14 ar   
    28   13   15 1    
    29   14  138 1    
    30   15   16 1    
    31   15  139 1    
    32   15  140 1    
    33   16   17 1    
    34   17   18 1    
    35   17  141 1    
    36   17  142 1    
    37   18   19 1    
    38   18   67 1    
    39   18  143 1    
    40   19   20 am   BACKBONE|DICT|INTERRES
    41   19  144 1    
    42   20   21 2    
    43   20   22 1    
    44   22   23 1    
    45   22   24 1    
    46   22  145 1    
    47   23  146 1    
    48   23  147 1    
    49   23  148 1    
    50   24   25 am   BACKBONE|DICT|INTERRES
    51   24  149 1    
    52   25   26 2    
    53   25   27 1    
    54   27   28 1    
    55   27   29 1    
    56   27  150 1    
    57   28  151 1    
    58   28  152 1    
    59   28  153 1    
    60   29   30 am   BACKBONE|DICT|INTERRES
    61   29  154 1    
    62   30   31 2    
    63   30   32 1    
    64   32   33 1    
    65   32   34 1    
    66   32  155 1    
    67   33  156 1    
    68   33  157 1    
    69   33  158 1    
    70   34   35 am   BACKBONE|DICT|INTERRES
    71   34  159 1    
    72   35   36 2    
    73   35   37 1    
    74   37   38 1    
    75   37   39 1    
    76   37  160 1    
    77   38  161 1    
    78   38  162 1    
    79   38  163 1    
    80   39   40 am   BACKBONE|DICT|INTERRES
    81   39  164 1    
    82   40   41 2    
    83   40   42 1    
    84   42   43 1    
    85   42   44 1    
    86   42  165 1    
    87   43  166 1    
    88   43  167 1    
    89   43  168 1    
    90   44   45 am   BACKBONE|DICT|INTERRES
    91   44  169 1    
    92   45   46 2    
    93   45   47 1    
    94   47   48 1    
    95   47   49 1    
    96   47  170 1    
    97   48  171 1    
    98   48  172 1    
    99   48  173 1    
   100   49   50 am   BACKBONE|DICT|INTERRES
   101   49  174 1    
   102   50   51 2    
   103   50   52 1    
   104   52   53 1    
   105   52   54 1    
   106   52  175 1    
   107   53  176 1    
   108   53  177 1    
   109   53  178 1    
   110   54   55 am   BACKBONE|DICT|INTERRES
   111   54  179 1    
   112   55   56 2    
   113   55   57 1    
   114   57   58 1    
   115   57   59 1    
   116   57  180 1    
   117   58  181 1    
   118   58  182 1    
   119   58  183 1    
   120   59   60 am   BACKBONE|DICT|INTERRES
   121   59  184 1    
   122   60   61 2    
   123   60   62 1    
   124   62   63 1    
   125   62   64 1    
   126   62  185 1    
   127   63  186 1    
   128   63  187 1    
   129   63  188 1    
   130   64   65 am   BACKBONE|DICT|INTERRES
   131   64  189 1    
   132   65   66 2    
   133   67   68 2    
   134   67   69 am   BACKBONE|DICT|INTERRES
   135   69   70 1    
   136   69  190 1    
   137   70   71 1    
   138   70   72 1    
   139   70  191 1    
   140   71  192 1    
   141   71  193 1    
   142   71  194 1    
   143   72   73 2    
   144   72   74 am   BACKBONE|DICT|INTERRES
   145   74   75 1    
   146   74  195 1    
   147   75   76 1    
   148   75   77 1    
   149   75  196 1    
   150   76  197 1    
   151   76  198 1    
   152   76  199 1    
   153   77   78 2    
   154   77   79 am   BACKBONE|DICT|INTERRES
   155   79   80 1    
   156   79  200 1    
   157   80   81 1    
   158   80   82 1    
   159   80  201 1    
   160   81  202 1    
   161   81  203 1    
   162   81  204 1    
   163   82   83 2    
   164   82   84 am   BACKBONE|DICT|INTERRES
   165   84   85 1    
   166   84  205 1    
   167   85   86 1    
   168   85   87 1    
   169   85  206 1    
   170   86  207 1    
   171   86  208 1    
   172   86  209 1    
   173   87   88 2    
   174   87   89 am   BACKBONE|DICT|INTERRES
   175   89   90 1    
   176   89  210 1    
   177   90   91 1    
   178   90   92 1    
   179   90  211 1    
   180   91  212 1    
   181   91  213 1    
   182   91  214 1    
   183   92   93 2    
   184   92   94 am   BACKBONE|DICT|INTERRES
   185   94   95 1    
   186   94  215 1    
   187   95   96 1    
   188   95   97 1    
   189   95  216 1    
   190   96  217 1    
   191   96  218 1    
   192   96  219 1    
   193   97   98 2    
   194   97   99 am   BACKBONE|DICT|INTERRES
   195   99  100 1    
   196   99  220 1    
   197  100  101 1    
   198  100  102 1    
   199  100  221 1    
   200  101  222 1    
   201  101  223 1    
   202  101  224 1    
   203  102  103 2    
   204  102  104 am   BACKBONE|DICT|INTERRES
   205  104  105 1    
   206  104  225 1    
   207  105  106 1    
   208  105  107 1    
   209  105  226 1    
   210  106  227 1    
   211  106  228 1    
   212  106  229 1    
   213  107  108 2    
   214  107  109 am   BACKBONE|DICT|INTERRES
   215  109  110 1    
   216  109  230 1    
   217  110  111 1    
   218  110  112 1    
   219  110  231 1    
   220  111  232 1    
   221  111  233 1    
   222  111  234 1    
   223  112  113 2    
   224  112  114 am   BACKBONE|DICT|INTERRES
   225  114  115 1    
   226  114  235 1    
   227  115  116 1    
   228  115  117 1    
   229  115  236 1    
   230  116  237 1    
   231  116  238 1    
   232  116  239 1    
   233  117  118 2    
   234  117  119 am   BACKBONE|DICT|INTERRES
   235  119  120 1    
   236  119  240 1    
   237  120  121 1    
   238  120  124 1    
   239  120  241 1    
   240  121  122 am   BACKBONE|DICT|INTERRES
   241  121  123 2    
   242  122  242 1    
   243  122  243 1    
   244  124  125 1    
   245  124  244 1    
   246  124  245 1    
   247  125  126 1    
   248  126  246 1    
   249  126  247 1    
@<TRIPOS>SUBSTRUCTURE
     1 UNK         1 GROUP             0       ****    0 ROOT    
