@<TRIPOS>MOLECULE
3R540
247   249    1
SMALL
USER_CHARGES


@<TRIPOS>ATOM
      1 CA         -5.1870  -15.6464  -49.8663 C.3       0 UNK        -0.1800 
      2 C          -3.8814  -14.8725  -49.7503 C.2       0 UNK         0.5000 
      3 O          -3.2362  -14.6044  -50.7631 O.2       0 UNK        -0.5000 
      4 N          -3.4834  -14.5260  -48.5225 N.am      1 UNK        -0.5000 
      5 CA         -2.1964  -13.9043  -48.2072 C.3       1 UNK         0.1400 
      6 C6         -0.9892  -14.8727  -48.3495 C.3       23 UNK        -0.0398 
      7 S7         -1.2111  -16.4570  -47.4665 S.3       23 UNK        -0.2404 
      8 C8         -1.1659  -17.6391  -48.8551 C.3       23 UNK        -0.0205 
      9 C9          0.2342  -17.9638  -49.3616 C.ar      23 UNK        -0.0193 
     10 C10         0.4309  -18.2588  -50.7120 C.ar      23 UNK        -0.1150 
     11 C11         1.6914  -18.6369  -51.1831 C.ar      23 UNK        -0.0193 
     12 C12         2.7615  -18.7394  -50.2868 C.ar      23 UNK        -0.1150 
     13 C13         2.5795  -18.4442  -48.9317 C.ar      23 UNK        -0.0193 
     14 C14         1.3196  -18.0408  -48.4854 C.ar      23 UNK        -0.1150 
     15 C15         3.7380  -18.5387  -47.9465 C.3       23 UNK        -0.0205 
     16 S16         3.8971  -20.1949  -47.1950 S.3       23 UNK        -0.2404 
     17 C17         2.3618  -20.3325  -46.2157 C.3       23 UNK        -0.0398 
     18 CA          1.4341  -21.4406  -46.7651 C.3       11 UNK         0.1400 
     19 N           1.9408  -22.7676  -46.4181 N.am      11 UNK        -0.5000 
     20 C           1.5636  -23.9131  -46.9937 C.2       10 UNK         0.5000 
     21 O           0.7705  -23.9785  -47.9325 O.2       10 UNK        -0.5000 
     22 CA          2.1489  -25.2010  -46.3835 C.3       10 UNK         0.1400 
     23 CB          3.5224  -25.5133  -46.9958 C.3       10 UNK        -0.1800 
     24 N           2.2743  -25.1242  -44.9238 N.am      10 UNK        -0.5000 
     25 C           1.2299  -25.1118  -44.0836 C.2       9 UNK         0.5000 
     26 O           0.0591  -25.1935  -44.4555 O.2       9 UNK        -0.5000 
     27 CA          1.5390  -24.9377  -42.5818 C.3       9 UNK         0.1400 
     28 CB          1.9114  -26.2872  -41.9497 C.3       9 UNK        -0.1800 
     29 N           2.5847  -23.9517  -42.2749 N.am      9 UNK        -0.5000 
     30 C           2.5613  -22.6654  -42.6507 C.2       8 UNK         0.5000 
     31 O           1.7019  -22.2015  -43.3957 O.2       8 UNK        -0.5000 
     32 CA          3.7093  -21.7650  -42.1527 C.3       8 UNK         0.1400 
     33 CB          5.0011  -22.0816  -42.9239 C.3       8 UNK        -0.1800 
     34 N           3.4267  -20.3330  -42.3046 N.am      8 UNK        -0.5000 
     35 C           2.4682  -19.6394  -41.6716 C.2       7 UNK         0.5000 
     36 O           1.7247  -20.1276  -40.8173 O.2       7 UNK        -0.5000 
     37 CA          2.3491  -18.1305  -41.9994 C.3       7 UNK         0.1400 
     38 CB          3.2869  -17.6444  -43.1302 C.3       7 UNK        -0.1800 
     39 N           0.9690  -17.7137  -42.2691 N.am      7 UNK        -0.5000 
     40 C           0.1709  -18.1505  -43.2521 C.2       6 UNK         0.5000 
     41 O           0.5101  -18.9983  -44.0701 O.2       6 UNK        -0.5000 
     42 CA         -1.2264  -17.5140  -43.3944 C.3       6 UNK         0.1400 
     43 CB         -2.2773  -18.2627  -42.5521 C.3       6 UNK        -0.1800 
     44 N          -1.2650  -16.0647  -43.1557 N.am      6 UNK        -0.5000 
     45 C          -1.1029  -15.3946  -42.0054 C.2       5 UNK         0.5000 
     46 O          -0.8921  -15.9320  -40.9166 O.2       5 UNK        -0.5000 
     47 CA         -1.1333  -13.8588  -42.1284 C.3       5 UNK         0.1400 
     48 CB         -0.8117  -13.1267  -40.8091 C.3       5 UNK        -0.1800 
     49 N          -0.2674  -13.3939  -43.2146 N.am      5 UNK        -0.5000 
     50 C           1.0619  -13.5444  -43.3274 C.2       4 UNK         0.5000 
     51 O           1.7772  -14.0696  -42.4741 O.2       4 UNK        -0.5000 
     52 CA          1.7004  -13.0250  -44.6280 C.3       4 UNK         0.1400 
     53 CB          1.8654  -14.1787  -45.6310 C.3       4 UNK        -0.1800 
     54 N           0.9022  -11.9579  -45.2386 N.am      4 UNK        -0.5000 
     55 C           0.9759  -10.6652  -44.8884 C.2       3 UNK         0.5000 
     56 O           1.7863  -10.2251  -44.0721 O.2       3 UNK        -0.5000 
     57 CA         -0.0253   -9.6974  -45.5518 C.3       3 UNK         0.1400 
     58 CB          0.5745   -9.1011  -46.8343 C.3       3 UNK        -0.1800 
     59 N          -1.3094  -10.3238  -45.8723 N.am      3 UNK        -0.5000 
     60 C          -2.2238  -10.7039  -44.9680 C.2       2 UNK         0.5000 
     61 O          -2.1090  -10.5120  -43.7577 O.2       2 UNK        -0.5000 
     62 CA         -3.4569  -11.4656  -45.5000 C.3       2 UNK         0.1400 
     63 CB         -4.6191  -10.4946  -45.7562 C.3       2 UNK        -0.1800 
     64 N          -3.2047  -12.2462  -46.7184 N.am      2 UNK        -0.5000 
     65 C          -2.2939  -13.2232  -46.8301 C.2       1 UNK         0.5000 
     66 O          -1.5654  -13.5715  -45.8984 O.2       1 UNK        -0.5000 
     67 C          -0.0319  -21.2703  -46.3105 C.2       11 UNK         0.5000 
     68 O          -0.8303  -20.7033  -47.0518 O.2       11 UNK        -0.5000 
     69 N          -0.3903  -21.8199  -45.1431 N.am      12 UNK        -0.5000 
     70 CA         -1.7537  -21.8436  -44.6158 C.3       12 UNK         0.1400 
     71 CB         -1.7292  -22.2804  -43.1444 C.3       12 UNK        -0.1800 
     72 C          -2.6876  -22.7403  -45.4480 C.2       12 UNK         0.5000 
     73 O          -3.8419  -22.3741  -45.6726 O.2       12 UNK        -0.5000 
     74 N          -2.1623  -23.8709  -45.9416 N.am      13 UNK        -0.5000 
     75 CA         -2.8425  -24.7385  -46.9041 C.3       13 UNK         0.1400 
     76 CB         -2.0478  -26.0396  -47.0870 C.3       13 UNK        -0.1800 
     77 C          -3.0795  -24.0358  -48.2548 C.2       13 UNK         0.5000 
     78 O          -4.1478  -24.2026  -48.8434 O.2       13 UNK        -0.5000 
     79 N          -2.1087  -23.2222  -48.6972 N.am      14 UNK        -0.5000 
     80 CA         -2.2477  -22.3541  -49.8649 C.3       14 UNK         0.1400 
     81 CB         -0.8805  -21.8114  -50.3046 C.3       14 UNK        -0.1800 
     82 C          -3.2549  -21.2146  -49.6351 C.2       14 UNK         0.5000 
     83 O          -4.0245  -20.9149  -50.5443 O.2       14 UNK        -0.5000 
     84 N          -3.2799  -20.6291  -48.4292 N.am      15 UNK        -0.5000 
     85 CA         -4.2301  -19.5879  -48.0210 C.3       15 UNK         0.1400 
     86 CB         -3.8810  -19.0627  -46.6179 C.3       15 UNK        -0.1800 
     87 C          -5.6867  -20.0786  -48.0660 C.2       15 UNK         0.5000 
     88 O          -6.5532  -19.3659  -48.5725 O.2       15 UNK        -0.5000 
     89 N          -5.9134  -21.3175  -47.6066 N.am      16 UNK        -0.5000 
     90 CA         -7.1950  -22.0230  -47.6927 C.3       16 UNK         0.1400 
     91 CB         -7.1052  -23.3253  -46.8833 C.3       16 UNK        -0.1800 
     92 C          -7.6452  -22.3093  -49.1420 C.2       16 UNK         0.5000 
     93 O          -8.8460  -22.4108  -49.3937 O.2       16 UNK        -0.5000 
     94 N          -6.6820  -22.3994  -50.0683 N.am      17 UNK        -0.5000 
     95 CA         -6.8892  -22.5448  -51.5095 C.3       17 UNK         0.1400 
     96 CB         -5.7914  -23.4665  -52.0706 C.3       17 UNK        -0.1800 
     97 C          -6.9012  -21.1877  -52.2470 C.2       17 UNK         0.5000 
     98 O          -6.8752  -21.1785  -53.4775 O.2       17 UNK        -0.5000 
     99 N          -6.9049  -20.0666  -51.5070 N.am      18 UNK        -0.5000 
    100 CA        -6.8751  -18.6818  -51.9961 C.3       18 UNK         0.1400 
    101 CB        -8.1930  -18.3310  -52.7171 C.3       18 UNK        -0.1800 
    102 C         -5.6205  -18.3574  -52.8392 C.2       18 UNK         0.5000 
    103 O         -5.7018  -17.5940  -53.8022 O.2       18 UNK        -0.5000 
    104 N         -4.4886  -18.9701  -52.4631 N.am      19 UNK        -0.5000 
    105 CA        -3.1597  -18.9133  -53.0810 C.3       19 UNK         0.1400 
    106 CB        -2.6199  -17.4700  -53.1360 C.3       19 UNK        -0.1800 
    107 C         -3.0505  -19.6334  -54.4414 C.2       19 UNK         0.5000 
    108 O         -1.9749  -19.6086  -55.0408 O.2       19 UNK        -0.5000 
    109 N         -4.1211  -20.3032  -54.8988 N.am      20 UNK        -0.5000 
    110 CA        -4.1617  -21.0261  -56.1754 C.3       20 UNK         0.1400 
    111 CB        -5.6061  -21.4438  -56.4855 C.3       20 UNK        -0.1800 
    112 C         -3.2291  -22.2514  -56.2116 C.2       20 UNK         0.5000 
    113 O         -2.7307  -22.6062  -57.2810 O.2       20 UNK        -0.5000 
    114 N         -2.9715  -22.8452  -55.0367 N.am      21 UNK        -0.5000 
    115 CA        -2.0529  -23.9693  -54.8339 C.3       21 UNK         0.1400 
    116 CB        -2.1459  -24.4289  -53.3718 C.3       21 UNK        -0.1800 
    117 C         -0.5874  -23.6518  -55.1970 C.2       21 UNK         0.5000 
    118 O          0.1702  -24.5737  -55.5022 O.2       21 UNK        -0.5000 
    119 N         -0.2208  -22.3639  -55.1729 N.am      22 UNK        -0.5000 
    120 CA         1.0914  -21.8565  -55.5995 C.3       22 UNK         0.1400 
    121 C          1.2511  -21.7426  -57.1460 C.2       22 UNK         0.5000 
    122 N          0.2175  -21.9640  -57.9519 N.am      22 UNK        -0.7600 
    123 O          2.3435  -21.4568  -57.6286 O.2       22 UNK        -0.5000 
    124 C124        1.4406  -20.5144  -54.9071 C.3       23 UNK        -0.0398 
    125 S125        1.3967  -20.6181  -53.0859 S.3       23 UNK        -0.2404 
    126 C126        1.8871  -18.9208  -52.6633 C.3       23 UNK        -0.0205 
    127 H127       -5.7090  -15.7090  -48.9112 H         1 UNK         0.0600 
    128 H128       -4.9827  -16.6605  -50.2086 H         1 UNK         0.0600 
    129 H129       -5.8493  -15.1671  -50.5871 H         1 UNK         0.0600 
    130 H130       -4.0525  -14.7603  -47.7206 H         1 UNK         0.3000 
    131 H131       -2.0364  -13.0904  -48.9176 H         1 UNK         0.0600 
    132 H132       -0.8166  -15.0756  -49.4070 H         1 UNK         0.0800 
    133 H133       -0.0698  -14.4011  -48.0016 H         1 UNK         0.0800 
    134 H134       -1.5981  -18.5755  -48.5154 H         1 UNK         0.0800 
    135 H135       -1.8038  -17.2783  -49.6633 H         1 UNK         0.0800 
    136 H136       -0.4006  -18.2080  -51.3993 H         1 UNK         0.1150 
    137 H137        3.7354  -19.0438  -50.6436 H         1 UNK         0.1150 
    138 H138        1.1760  -17.7986  -47.4441 H         1 UNK         0.1150 
    139 H139        4.6714  -18.2960  -48.4564 H         1 UNK         0.0800 
    140 H140        3.6243  -17.7935  -47.1573 H         1 UNK         0.0800 
    141 H141        1.8608  -19.3697  -46.1951 H         1 UNK         0.0800 
    142 H142        2.6281  -20.5296  -45.1776 H         1 UNK         0.0800 
    143 H143        1.4237  -21.3596  -47.8547 H         1 UNK         0.0600 
    144 H144        2.5491  -22.8121  -45.6146 H         1 UNK         0.3000 
    145 H145        1.4717  -26.0224  -46.6279 H         1 UNK         0.0600 
    146 H146        3.9137  -26.4604  -46.6240 H         1 UNK         0.0600 
    147 H147        3.4554  -25.5939  -48.0816 H         1 UNK         0.0600 
    148 H148        4.2524  -24.7352  -46.7689 H         1 UNK         0.0600 
    149 H149        3.2061  -25.0530  -44.5422 H         1 UNK         0.3000 
    150 H150        0.6211  -24.5874  -42.1056 H         1 UNK         0.0600 
    151 H151        2.8524  -26.6716  -42.3450 H         1 UNK         0.0600 
    152 H152        1.1426  -27.0361  -42.1453 H         1 UNK         0.0600 
    153 H153        2.0109  -26.2023  -40.8674 H         1 UNK         0.0600 
    154 H154        3.3366  -24.2709  -41.6812 H         1 UNK         0.3000 
    155 H155        3.8669  -21.9690  -41.0919 H         1 UNK         0.0600 
    156 H156        4.8897  -21.8870  -43.9918 H         1 UNK         0.0600 
    157 H157        5.2863  -23.1281  -42.8093 H         1 UNK         0.0600 
    158 H158        5.8350  -21.4812  -42.5598 H         1 UNK         0.0600 
    159 H159        3.9760  -19.8467  -42.9966 H         1 UNK         0.3000 
    160 H160        2.6434  -17.6064  -41.0892 H         1 UNK         0.0600 
    161 H161        3.0841  -18.1432  -44.0784 H         1 UNK         0.0600 
    162 H162        4.3345  -17.8135  -42.8787 H         1 UNK         0.0600 
    163 H163        3.1713  -16.5726  -43.2930 H         1 UNK         0.0600 
    164 H164        0.5698  -17.0418  -41.6213 H         1 UNK         0.3000 
    165 H165       -1.5102  -17.6374  -44.4412 H         1 UNK         0.0600 
    166 H166       -3.2741  -17.8503  -42.7075 H         1 UNK         0.0600 
    167 H167       -2.3156  -19.3160  -42.8273 H         1 UNK         0.0600 
    168 H168       -2.0558  -18.2192  -41.4858 H         1 UNK         0.0600 
    169 H169       -1.3735  -15.5073  -43.9934 H         1 UNK         0.3000 
    170 H170       -2.1524  -13.5916  -42.4118 H         1 UNK         0.0600 
    171 H171       -1.5311  -13.3905  -40.0331 H         1 UNK         0.0600 
    172 H172        0.1801  -13.3780  -40.4326 H         1 UNK         0.0600 
    173 H173       -0.8570  -12.0455  -40.9402 H         1 UNK         0.0600 
    174 H174       -0.7508  -13.0108  -44.0176 H         1 UNK         0.3000 
    175 H175        2.6939  -12.6403  -44.3878 H         1 UNK         0.0600 
    176 H176        0.9165  -14.6743  -45.8365 H         1 UNK         0.0600 
    177 H177        2.2773  -13.8287  -46.5775 H         1 UNK         0.0600 
    178 H178        2.5455  -14.9368  -45.2408 H         1 UNK         0.0600 
    179 H179        0.1758  -12.2519  -45.8772 H         1 UNK         0.3000 
    180 H180       -0.2098   -8.8807  -44.8505 H         1 UNK         0.0600 
    181 H181        0.7654   -9.8688  -47.5853 H         1 UNK         0.0600 
    182 H182        1.5222   -8.6024  -46.6266 H         1 UNK         0.0600 
    183 H183       -0.0920   -8.3587  -47.2736 H         1 UNK         0.0600 
    184 H184       -1.4955  -10.5068  -46.8471 H         1 UNK         0.3000 
    185 H185       -3.7637  -12.1661  -44.7206 H         1 UNK         0.0600 
    186 H186       -4.8500   -9.9158  -44.8608 H         1 UNK         0.0600 
    187 H187       -4.3843   -9.7875  -46.5528 H         1 UNK         0.0600 
    188 H188       -5.5262  -11.0297  -46.0376 H         1 UNK         0.0600 
    189 H189       -3.7750  -12.0228  -47.5218 H         1 UNK         0.3000 
    190 H190        0.3457  -22.1692  -44.5316 H         1 UNK         0.3000 
    191 H191       -2.1430  -20.8253  -44.6632 H         1 UNK         0.0600 
    192 H192       -1.0897  -21.6258  -42.5512 H         1 UNK         0.0600 
    193 H193       -2.7290  -22.2434  -42.7103 H         1 UNK         0.0600 
    194 H194       -1.3587  -23.2993  -43.0328 H         1 UNK         0.0600 
    195 H195       -1.2285  -24.1433  -45.6534 H         1 UNK         0.3000 
    196 H196       -3.8195  -24.9951  -46.4892 H         1 UNK         0.0600 
    197 H197       -2.5636  -26.7178  -47.7678 H         1 UNK         0.0600 
    198 H198       -1.9238  -26.5620  -46.1382 H         1 UNK         0.0600 
    199 H199       -1.0559  -25.8550  -47.4983 H         1 UNK         0.0600 
    200 H200       -1.2359  -23.1722  -48.1856 H         1 UNK         0.3000 
    201 H201       -2.6387  -22.9660  -50.6784 H         1 UNK         0.0600 
    202 H202       -0.9740  -21.2311  -51.2229 H         1 UNK         0.0600 
    203 H203       -0.1776  -22.6207  -50.5026 H         1 UNK         0.0600 
    204 H204       -0.4349  -21.1579  -49.5561 H         1 UNK         0.0600 
    205 H205       -2.5473  -20.8670  -47.7649 H         1 UNK         0.3000 
    206 H206       -4.1312  -18.7621  -48.7284 H         1 UNK         0.0600 
    207 H207       -2.8247  -18.8145  -46.5265 H         1 UNK         0.0600 
    208 H208       -4.4471  -18.1578  -46.3947 H         1 UNK         0.0600 
    209 H209       -4.1146  -19.7883  -45.8399 H         1 UNK         0.0600 
    210 H210       -5.1456  -21.8150  -47.1661 H         1 UNK         0.3000 
    211 H211       -7.9551  -21.3877  -47.2336 H         1 UNK         0.0600 
    212 H212       -6.3539  -24.0017  -47.2912 H         1 UNK         0.0600 
    213 H213       -8.0592  -23.8540  -46.8859 H         1 UNK         0.0600 
    214 H214       -6.8456  -23.1264  -45.8432 H         1 UNK         0.0600 
    215 H215       -5.7205  -22.2950  -49.7715 H         1 UNK         0.3000 
    216 H216       -7.8543  -23.0202  -51.6948 H         1 UNK         0.0600 
    217 H217       -5.9600  -23.6843  -53.1260 H         1 UNK         0.0600 
    218 H218       -5.7694  -24.4204  -51.5432 H         1 UNK         0.0600 
    219 H219       -4.8032  -23.0160  -51.9838 H         1 UNK         0.0600 
    220 H220       -6.8844  -20.1626  -50.4984 H         1 UNK         0.3000 
    221 H221       -6.8128  -18.0517  -51.1084 H         1 UNK         0.0600 
    222 H222       -8.3021  -18.8798  -53.6530 H         1 UNK         0.0600 
    223 H223       -9.0564  -18.5586  -52.0920 H         1 UNK         0.0600 
    224 H224       -8.2379  -17.2676  -52.9548 H         1 UNK         0.0600 
    225 H225       -4.5454  -19.6256  -51.6845 H         1 UNK         0.3000 
    226 H226       -2.5062  -19.4707  -52.4088 H         1 UNK         0.0600 
    227 H227       -2.6660  -16.9947  -52.1564 H         1 UNK         0.0600 
    228 H228       -1.5771  -17.4538  -53.4546 H         1 UNK         0.0600 
    229 H229       -3.1795  -16.8506  -53.8367 H         1 UNK         0.0600 
    230 H230       -4.9739  -20.3004  -54.3524 H         1 UNK         0.3000 
    231 H231       -3.8323  -20.3382  -56.9569 H         1 UNK         0.0600 
    232 H232       -5.9732  -22.1823  -55.7721 H         1 UNK         0.0600 
    233 H233       -5.6777  -21.8874  -57.4793 H         1 UNK         0.0600 
    234 H234       -6.2810  -20.5879  -56.4610 H         1 UNK         0.0600 
    235 H235       -3.4248  -22.4757  -54.2148 H         1 UNK         0.3000 
    236 H236       -2.3827  -24.7881  -55.4764 H         1 UNK         0.0600 
    237 H237       -1.5314  -25.3139  -53.2015 H         1 UNK         0.0600 
    238 H238       -1.7936  -23.6532  -52.6926 H         1 UNK         0.0600 
    239 H239       -3.1684  -24.6873  -53.0969 H         1 UNK         0.0600 
    240 H240       -0.9062  -21.6599  -54.9338 H         1 UNK         0.3000 
    241 H241        1.8435  -22.5814  -55.2823 H         1 UNK         0.0600 
    242 H242       -0.6950  -22.2067  -57.5849 H         1 UNK         0.3800 
    243 H243        0.3464  -21.8900  -58.9486 H         1 UNK         0.3800 
    244 H244        2.4391  -20.1842  -55.1992 H         1 UNK         0.0800 
    245 H245        0.7508  -19.7323  -55.2286 H         1 UNK         0.0800 
    246 H246        2.9287  -18.7632  -52.9475 H         1 UNK         0.0800 
    247 H247        1.2963  -18.2145  -53.2490 H         1 UNK         0.0800 
@<TRIPOS>BOND
     1    1    2 1    
     2    1  127 1    
     3    1  128 1    
     4    1  129 1    
     5    2    3 2    
     6    2    4 am   BACKBONE|DICT|INTERRES
     7    4    5 1    
     8    4  130 1    
     9    5    6 1    
    10    5   65 1    
    11    5  131 1    
    12    6    7 1    
    13    6  132 1    
    14    6  133 1    
    15    7    8 1    
    16    8    9 1    
    17    8  134 1    
    18    8  135 1    
    19    9   10 ar   
    20    9   14 ar   
    21   10   11 ar   
    22   10  136 1    
    23   11   12 ar   
    24   11  126 1    
    25   12   13 ar   
    26   12  137 1    
    27   13   14 ar   
    28   13   15 1    
    29   14  138 1    
    30   15   16 1    
    31   15  139 1    
    32   15  140 1    
    33   16   17 1    
    34   17   18 1    
    35   17  141 1    
    36   17  142 1    
    37   18   19 1    
    38   18   67 1    
    39   18  143 1    
    40   19   20 am   BACKBONE|DICT|INTERRES
    41   19  144 1    
    42   20   21 2    
    43   20   22 1    
    44   22   23 1    
    45   22   24 1    
    46   22  145 1    
    47   23  146 1    
    48   23  147 1    
    49   23  148 1    
    50   24   25 am   BACKBONE|DICT|INTERRES
    51   24  149 1    
    52   25   26 2    
    53   25   27 1    
    54   27   28 1    
    55   27   29 1    
    56   27  150 1    
    57   28  151 1    
    58   28  152 1    
    59   28  153 1    
    60   29   30 am   BACKBONE|DICT|INTERRES
    61   29  154 1    
    62   30   31 2    
    63   30   32 1    
    64   32   33 1    
    65   32   34 1    
    66   32  155 1    
    67   33  156 1    
    68   33  157 1    
    69   33  158 1    
    70   34   35 am   BACKBONE|DICT|INTERRES
    71   34  159 1    
    72   35   36 2    
    73   35   37 1    
    74   37   38 1    
    75   37   39 1    
    76   37  160 1    
    77   38  161 1    
    78   38  162 1    
    79   38  163 1    
    80   39   40 am   BACKBONE|DICT|INTERRES
    81   39  164 1    
    82   40   41 2    
    83   40   42 1    
    84   42   43 1    
    85   42   44 1    
    86   42  165 1    
    87   43  166 1    
    88   43  167 1    
    89   43  168 1    
    90   44   45 am   BACKBONE|DICT|INTERRES
    91   44  169 1    
    92   45   46 2    
    93   45   47 1    
    94   47   48 1    
    95   47   49 1    
    96   47  170 1    
    97   48  171 1    
    98   48  172 1    
    99   48  173 1    
   100   49   50 am   BACKBONE|DICT|INTERRES
   101   49  174 1    
   102   50   51 2    
   103   50   52 1    
   104   52   53 1    
   105   52   54 1    
   106   52  175 1    
   107   53  176 1    
   108   53  177 1    
   109   53  178 1    
   110   54   55 am   BACKBONE|DICT|INTERRES
   111   54  179 1    
   112   55   56 2    
   113   55   57 1    
   114   57   58 1    
   115   57   59 1    
   116   57  180 1    
   117   58  181 1    
   118   58  182 1    
   119   58  183 1    
   120   59   60 am   BACKBONE|DICT|INTERRES
   121   59  184 1    
   122   60   61 2    
   123   60   62 1    
   124   62   63 1    
   125   62   64 1    
   126   62  185 1    
   127   63  186 1    
   128   63  187 1    
   129   63  188 1    
   130   64   65 am   BACKBONE|DICT|INTERRES
   131   64  189 1    
   132   65   66 2    
   133   67   68 2    
   134   67   69 am   BACKBONE|DICT|INTERRES
   135   69   70 1    
   136   69  190 1    
   137   70   71 1    
   138   70   72 1    
   139   70  191 1    
   140   71  192 1    
   141   71  193 1    
   142   71  194 1    
   143   72   73 2    
   144   72   74 am   BACKBONE|DICT|INTERRES
   145   74   75 1    
   146   74  195 1    
   147   75   76 1    
   148   75   77 1    
   149   75  196 1    
   150   76  197 1    
   151   76  198 1    
   152   76  199 1    
   153   77   78 2    
   154   77   79 am   BACKBONE|DICT|INTERRES
   155   79   80 1    
   156   79  200 1    
   157   80   81 1    
   158   80   82 1    
   159   80  201 1    
   160   81  202 1    
   161   81  203 1    
   162   81  204 1    
   163   82   83 2    
   164   82   84 am   BACKBONE|DICT|INTERRES
   165   84   85 1    
   166   84  205 1    
   167   85   86 1    
   168   85   87 1    
   169   85  206 1    
   170   86  207 1    
   171   86  208 1    
   172   86  209 1    
   173   87   88 2    
   174   87   89 am   BACKBONE|DICT|INTERRES
   175   89   90 1    
   176   89  210 1    
   177   90   91 1    
   178   90   92 1    
   179   90  211 1    
   180   91  212 1    
   181   91  213 1    
   182   91  214 1    
   183   92   93 2    
   184   92   94 am   BACKBONE|DICT|INTERRES
   185   94   95 1    
   186   94  215 1    
   187   95   96 1    
   188   95   97 1    
   189   95  216 1    
   190   96  217 1    
   191   96  218 1    
   192   96  219 1    
   193   97   98 2    
   194   97   99 am   BACKBONE|DICT|INTERRES
   195   99  100 1    
   196   99  220 1    
   197  100  101 1    
   198  100  102 1    
   199  100  221 1    
   200  101  222 1    
   201  101  223 1    
   202  101  224 1    
   203  102  103 2    
   204  102  104 am   BACKBONE|DICT|INTERRES
   205  104  105 1    
   206  104  225 1    
   207  105  106 1    
   208  105  107 1    
   209  105  226 1    
   210  106  227 1    
   211  106  228 1    
   212  106  229 1    
   213  107  108 2    
   214  107  109 am   BACKBONE|DICT|INTERRES
   215  109  110 1    
   216  109  230 1    
   217  110  111 1    
   218  110  112 1    
   219  110  231 1    
   220  111  232 1    
   221  111  233 1    
   222  111  234 1    
   223  112  113 2    
   224  112  114 am   BACKBONE|DICT|INTERRES
   225  114  115 1    
   226  114  235 1    
   227  115  116 1    
   228  115  117 1    
   229  115  236 1    
   230  116  237 1    
   231  116  238 1    
   232  116  239 1    
   233  117  118 2    
   234  117  119 am   BACKBONE|DICT|INTERRES
   235  119  120 1    
   236  119  240 1    
   237  120  121 1    
   238  120  124 1    
   239  120  241 1    
   240  121  122 am   BACKBONE|DICT|INTERRES
   241  121  123 2    
   242  122  242 1    
   243  122  243 1    
   244  124  125 1    
   245  124  244 1    
   246  124  245 1    
   247  125  126 1    
   248  126  246 1    
   249  126  247 1    
@<TRIPOS>SUBSTRUCTURE
     1 UNK         1 GROUP             0       ****    0 ROOT    
