@<TRIPOS>MOLECULE
3R540
247   249    1
SMALL
USER_CHARGES


@<TRIPOS>ATOM
      1 CA         -7.2030  -17.2675  -46.3186 C.3       0 UNK        -0.1800 
      2 C          -6.2740  -16.1096  -46.6526 C.2       0 UNK         0.5000 
      3 O          -6.7270  -15.0933  -47.1779 O.2       0 UNK        -0.5000 
      4 N          -4.9810  -16.2637  -46.3524 N.am      1 UNK        -0.5000 
      5 CA         -3.9102  -15.3079  -46.6386 C.3       1 UNK         0.1400 
      6 C6         -3.0470  -15.8046  -47.8245 C.3       23 UNK        -0.0398 
      7 S7         -2.1460  -14.4684  -48.6711 S.3       23 UNK        -0.2404 
      8 C8         -1.6069  -15.3364  -50.1817 C.3       23 UNK        -0.0205 
      9 C9         -0.7741  -16.5939  -49.9335 C.ar      23 UNK        -0.0193 
     10 C10        -0.9409  -17.6985  -50.7740 C.ar      23 UNK        -0.1150 
     11 C11        -0.1403  -18.8354  -50.6308 C.ar      23 UNK        -0.0193 
     12 C12         0.8049  -18.8824  -49.6027 C.ar      23 UNK        -0.1150 
     13 C13         0.9661  -17.7982  -48.7351 C.ar      23 UNK        -0.0193 
     14 C14         0.1861  -16.6520  -48.9155 C.ar      23 UNK        -0.1150 
     15 C15         2.0122  -17.8472  -47.6302 C.3       23 UNK        -0.0205 
     16 S16         1.6727  -19.1403  -46.3906 S.3       23 UNK        -0.2404 
     17 C17         0.1234  -18.5584  -45.6197 C.3       23 UNK        -0.0398 
     18 CA         -1.0297  -19.5807  -45.7123 C.3       11 UNK         0.1400 
     19 N          -0.6277  -20.8932  -45.2001 N.am      11 UNK        -0.5000 
     20 C          -1.3879  -21.9856  -45.0491 C.2       10 UNK         0.5000 
     21 O          -2.5580  -22.0631  -45.4276 O.2       10 UNK        -0.5000 
     22 CA         -0.7492  -23.1618  -44.2845 C.3       10 UNK         0.1400 
     23 CB         -0.2640  -24.2352  -45.2693 C.3       10 UNK        -0.1800 
     24 N           0.3709  -22.7758  -43.4161 N.am      10 UNK        -0.5000 
     25 C           0.3477  -21.8794  -42.4193 C.2       9 UNK         0.5000 
     26 O          -0.6602  -21.2427  -42.1078 O.2       9 UNK        -0.5000 
     27 CA          1.6720  -21.5916  -41.6816 C.3       9 UNK         0.1400 
     28 CB          1.7649  -22.4061  -40.3782 C.3       9 UNK        -0.1800 
     29 N           2.8952  -21.7362  -42.4880 N.am      9 UNK        -0.5000 
     30 C           3.4428  -22.8479  -43.0082 C.2       8 UNK         0.5000 
     31 O           2.9164  -23.9592  -42.9496 O.2       8 UNK        -0.5000 
     32 CA          4.7921  -22.7023  -43.7437 C.3       8 UNK         0.1400 
     33 CB          4.5621  -22.6692  -45.2630 C.3       8 UNK        -0.1800 
     34 N           5.5484  -21.5099  -43.3599 N.am      8 UNK        -0.5000 
     35 C           6.0554  -21.2609  -42.1441 C.2       7 UNK         0.5000 
     36 O           6.0541  -22.0811  -41.2255 O.2       7 UNK        -0.5000 
     37 CA          6.6370  -19.8503  -41.8991 C.3       7 UNK         0.1400 
     38 CB          8.1698  -19.9106  -41.8058 C.3       7 UNK        -0.1800 
     39 N           6.2663  -18.8402  -42.9005 N.am      7 UNK        -0.5000 
     40 C           5.0216  -18.4411  -43.1964 C.2       6 UNK         0.5000 
     41 O           4.0084  -18.9179  -42.6747 O.2       6 UNK        -0.5000 
     42 CA          4.9013  -17.3793  -44.3035 C.3       6 UNK         0.1400 
     43 CB          5.3049  -17.9717  -45.6651 C.3       6 UNK        -0.1800 
     44 N           3.5200  -16.9200  -44.3977 N.am      6 UNK        -0.5000 
     45 C           3.0507  -15.7630  -43.9227 C.2       5 UNK         0.5000 
     46 O           3.7485  -14.8819  -43.4146 O.2       5 UNK        -0.5000 
     47 CA          1.5242  -15.5948  -43.9962 C.3       5 UNK         0.1400 
     48 CB          0.8588  -16.0893  -42.7033 C.3       5 UNK        -0.1800 
     49 N           1.1068  -14.2237  -44.2662 N.am      5 UNK        -0.5000 
     50 C           1.2853  -13.5983  -45.4378 C.2       4 UNK         0.5000 
     51 O           1.8566  -14.1105  -46.4025 O.2       4 UNK        -0.5000 
     52 CA          0.6993  -12.1800  -45.5492 C.3       4 UNK         0.1400 
     53 CB          0.4728  -11.7342  -47.0057 C.3       4 UNK        -0.1800 
     54 N          -0.5648  -12.0981  -44.8179 N.am      4 UNK        -0.5000 
     55 C          -0.9209  -11.0996  -43.9997 C.2       3 UNK         0.5000 
     56 O          -0.2075  -10.1219  -43.7705 O.2       3 UNK        -0.5000 
     57 CA         -2.3046  -11.1875  -43.3214 C.3       3 UNK         0.1400 
     58 CB         -3.2865  -10.2066  -43.9816 C.3       3 UNK        -0.1800 
     59 N          -2.8990  -12.5252  -43.3425 N.am      3 UNK        -0.5000 
     60 C          -2.4674  -13.5770  -42.6338 C.2       2 UNK         0.5000 
     61 O          -1.5122  -13.5339  -41.8585 O.2       2 UNK        -0.5000 
     62 CA         -3.2127  -14.9092  -42.8544 C.3       2 UNK         0.1400 
     63 CB         -4.3280  -15.0762  -41.8110 C.3       2 UNK        -0.1800 
     64 N          -3.7875  -15.0631  -44.1957 N.am      2 UNK        -0.5000 
     65 C          -3.0995  -15.0470  -45.3488 C.2       1 UNK         0.5000 
     66 O          -1.8864  -14.8427  -45.4008 O.2       1 UNK        -0.5000 
     67 C          -2.2741  -19.0061  -44.9993 C.2       11 UNK         0.5000 
     68 O          -3.0436  -18.2861  -45.6319 O.2       11 UNK        -0.5000 
     69 N          -2.5101  -19.3821  -43.7323 N.am      12 UNK        -0.5000 
     70 CA         -3.7249  -19.0536  -42.9780 C.3       12 UNK         0.1400 
     71 CB         -3.5839  -19.5826  -41.5442 C.3       12 UNK        -0.1800 
     72 C          -5.0304  -19.5711  -43.6243 C.2       12 UNK         0.5000 
     73 O          -6.0849  -18.9777  -43.4017 O.2       12 UNK        -0.5000 
     74 N          -4.9273  -20.6273  -44.4428 N.am      13 UNK        -0.5000 
     75 CA         -5.9909  -21.1706  -45.2900 C.3       13 UNK         0.1400 
     76 CB         -6.1905  -22.6524  -44.9258 C.3       13 UNK        -0.1800 
     77 C          -5.6493  -20.9991  -46.7874 C.2       13 UNK         0.5000 
     78 O          -6.1923  -21.7242  -47.6224 O.2       13 UNK        -0.5000 
     79 N          -4.7137  -20.0857  -47.1008 N.am      14 UNK        -0.5000 
     80 CA         -4.1311  -19.7931  -48.4196 C.3       14 UNK         0.1400 
     81 CB         -5.1779  -19.1323  -49.3377 C.3       14 UNK        -0.1800 
     82 C          -3.4432  -21.0091  -49.0794 C.2       14 UNK         0.5000 
     83 O          -3.2949  -21.0414  -50.2998 O.2       14 UNK        -0.5000 
     84 N          -3.0585  -21.9972  -48.2566 N.am      15 UNK        -0.5000 
     85 CA         -2.5586  -23.3228  -48.6239 C.3       15 UNK         0.1400 
     86 CB         -1.1372  -23.2229  -49.2065 C.3       15 UNK        -0.1800 
     87 C          -3.5484  -24.1358  -49.4907 C.2       15 UNK         0.5000 
     88 O          -3.1264  -24.9663  -50.2982 O.2       15 UNK        -0.5000 
     89 N          -4.8540  -23.8962  -49.2835 N.am      16 UNK        -0.5000 
     90 CA         -5.9930  -24.5376  -49.9417 C.3       16 UNK         0.1400 
     91 CB         -6.1434  -25.9942  -49.4478 C.3       16 UNK        -0.1800 
     92 C          -5.9286  -24.3893  -51.4762 C.2       16 UNK         0.5000 
     93 O          -5.9866  -23.2651  -51.9754 O.2       16 UNK        -0.5000 
     94 N          -5.7959  -25.5101  -52.1986 N.am      17 UNK        -0.5000 
     95 CA         -5.7257  -25.5759  -53.6606 C.3       17 UNK         0.1400 
     96 CB         -5.7372  -27.0497  -54.0934 C.3       17 UNK        -0.1800 
     97 C          -4.5134  -24.8456  -54.2721 C.2       17 UNK         0.5000 
     98 O          -4.5839  -24.4310  -55.4300 O.2       17 UNK        -0.5000 
     99 N          -3.4374  -24.6682  -53.4903 N.am      18 UNK        -0.5000 
    100 CA        -2.2338  -23.9434  -53.9019 C.3       18 UNK         0.1400 
    101 CB        -1.0822  -24.2592  -52.9403 C.3       18 UNK        -0.1800 
    102 C         -2.4394  -22.4226  -54.0453 C.2       18 UNK         0.5000 
    103 O         -1.5896  -21.7688  -54.6482 O.2       18 UNK        -0.5000 
    104 N         -3.5711  -21.8808  -53.5667 N.am      19 UNK        -0.5000 
    105 CA        -3.9783  -20.4850  -53.7617 C.3       19 UNK         0.1400 
    106 CB        -5.3335  -20.2473  -53.0807 C.3       19 UNK        -0.1800 
    107 C         -4.0556  -20.0754  -55.2464 C.2       19 UNK         0.5000 
    108 O         -3.7250  -18.9381  -55.5821 O.2       19 UNK        -0.5000 
    109 N         -4.4381  -21.0260  -56.1118 N.am      20 UNK        -0.5000 
    110 CA        -4.4739  -20.8679  -57.5655 C.3       20 UNK         0.1400 
    111 CB        -5.2507  -22.0453  -58.1738 C.3       20 UNK        -0.1800 
    112 C         -3.0752  -20.7561  -58.2058 C.2       20 UNK         0.5000 
    113 O         -2.9514  -20.1475  -59.2693 O.2       20 UNK        -0.5000 
    114 N         -2.0538  -21.3347  -57.5584 N.am      21 UNK        -0.5000 
    115 CA        -0.6543  -21.2328  -57.9695 C.3       21 UNK         0.1400 
    116 CB         0.1122  -22.4880  -57.5218 C.3       21 UNK        -0.1800 
    117 C         -0.0053  -19.9571  -57.4065 C.2       21 UNK         0.5000 
    118 O          0.7406  -19.2922  -58.1270 O.2       21 UNK        -0.5000 
    119 N         -0.3078  -19.6331  -56.1415 N.am      22 UNK        -0.5000 
    120 CA         0.1429  -18.4073  -55.4636 C.3       22 UNK         0.1400 
    121 C         -0.4487  -17.1046  -56.0726 C.2       22 UNK         0.5000 
    122 N         -1.7200  -17.0786  -56.4537 N.am      22 UNK        -0.7600 
    123 O          0.2552  -16.1069  -56.2018 O.2       22 UNK        -0.5000 
    124 C124       -0.1266  -18.4457  -53.9400 C.3       23 UNK        -0.0398 
    125 S125        0.7496  -19.7964  -53.0815 S.3       23 UNK        -0.2404 
    126 C126       -0.2832  -20.0051  -51.5949 C.3       23 UNK        -0.0205 
    127 H127       -6.6522  -18.1322  -45.9521 H         1 UNK         0.0600 
    128 H128       -7.7579  -17.5730  -47.2056 H         1 UNK         0.0600 
    129 H129       -7.9173  -16.9686  -45.5515 H         1 UNK         0.0600 
    130 H130       -4.6492  -17.1198  -45.9205 H         1 UNK         0.3000 
    131 H131       -4.3478  -14.3455  -46.9108 H         1 UNK         0.0600 
    132 H132       -3.6864  -16.2794  -48.5703 H         1 UNK         0.0800 
    133 H133       -2.3417  -16.5725  -47.5045 H         1 UNK         0.0800 
    134 H134       -1.0165  -14.6467  -50.7857 H         1 UNK         0.0800 
    135 H135       -2.4936  -15.5786  -50.7697 H         1 UNK         0.0800 
    136 H136       -1.6763  -17.6620  -51.5649 H         1 UNK         0.1150 
    137 H137        1.4245  -19.7599  -49.4813 H         1 UNK         0.1150 
    138 H138        0.3321  -15.8004  -48.2651 H         1 UNK         0.1150 
    139 H139        2.9868  -18.0425  -48.0795 H         1 UNK         0.0800 
    140 H140        2.0977  -16.8807  -47.1310 H         1 UNK         0.0800 
    141 H141       -0.1788  -17.6132  -46.0756 H         1 UNK         0.0800 
    142 H142        0.3426  -18.3463  -44.5724 H         1 UNK         0.0800 
    143 H143       -1.2879  -19.7134  -46.7648 H         1 UNK         0.0600 
    144 H144        0.3264  -20.9526  -44.8761 H         1 UNK         0.3000 
    145 H145       -1.5236  -23.5957  -43.6495 H         1 UNK         0.0600 
    146 H146        0.1531  -25.0940  -44.7429 H         1 UNK         0.0600 
    147 H147       -1.0855  -24.6032  -45.8843 H         1 UNK         0.0600 
    148 H148        0.5041  -23.8480  -45.9403 H         1 UNK         0.0600 
    149 H149        1.2409  -23.2843  -43.5432 H         1 UNK         0.3000 
    150 H150        1.6389  -20.5371  -41.4028 H         1 UNK         0.0600 
    151 H151        0.9131  -22.1989  -39.7292 H         1 UNK         0.0600 
    152 H152        2.6672  -22.1547  -39.8206 H         1 UNK         0.0600 
    153 H153        1.7750  -23.4799  -40.5671 H         1 UNK         0.0600 
    154 H154        3.3973  -20.8649  -42.6307 H         1 UNK         0.3000 
    155 H155        5.3958  -23.5792  -43.5019 H         1 UNK         0.0600 
    156 H156        4.0255  -23.5581  -45.5976 H         1 UNK         0.0600 
    157 H157        5.5074  -22.6396  -45.8052 H         1 UNK         0.0600 
    158 H158        3.9750  -21.7997  -45.5627 H         1 UNK         0.0600 
    159 H159        5.6112  -20.7775  -44.0504 H         1 UNK         0.3000 
    160 H160        6.2494  -19.5121  -40.9361 H         1 UNK         0.0600 
    161 H161        8.6176  -20.2178  -42.7516 H         1 UNK         0.0600 
    162 H162        8.4894  -20.6237  -41.0446 H         1 UNK         0.0600 
    163 H163        8.5880  -18.9412  -41.5339 H         1 UNK         0.0600 
    164 H164        7.0372  -18.4096  -43.3909 H         1 UNK         0.3000 
    165 H165        5.5688  -16.5490  -44.0641 H         1 UNK         0.0600 
    166 H166        5.1622  -17.2461  -46.4661 H         1 UNK         0.0600 
    167 H167        6.3567  -18.2593  -45.6775 H         1 UNK         0.0600 
    168 H168        4.7195  -18.8584  -45.9117 H         1 UNK         0.0600 
    169 H169        2.8662  -17.6116  -44.7361 H         1 UNK         0.3000 
    170 H170        1.1601  -16.1965  -44.8261 H         1 UNK         0.0600 
    171 H171        1.1054  -15.4502  -41.8545 H         1 UNK         0.0600 
    172 H172       -0.2247  -16.1100  -42.8058 H         1 UNK         0.0600 
    173 H173        1.1794  -17.1023  -42.4556 H         1 UNK         0.0600 
    174 H174        0.6381  -13.7332  -43.5181 H         1 UNK         0.3000 
    175 H175        1.4394  -11.5148  -45.1001 H         1 UNK         0.0600 
    176 H176       -0.2272  -12.3935  -47.5192 H         1 UNK         0.0600 
    177 H177        0.0733  -10.7210  -47.0503 H         1 UNK         0.0600 
    178 H178        1.4062  -11.7391  -47.5696 H         1 UNK         0.0600 
    179 H179       -1.1835  -12.8946  -44.9329 H         1 UNK         0.3000 
    180 H180       -2.1741  -10.8906  -42.2787 H         1 UNK         0.0600 
    181 H181       -4.2467  -10.2009  -43.4654 H         1 UNK         0.0600 
    182 H182       -3.4669  -10.4612  -45.0268 H         1 UNK         0.0600 
    183 H183       -2.8997   -9.1870  -43.9546 H         1 UNK         0.0600 
    184 H184       -3.6877  -12.6587  -43.9578 H         1 UNK         0.3000 
    185 H185       -2.4938  -15.7172  -42.7138 H         1 UNK         0.0600 
    186 H186       -4.8229  -16.0427  -41.9050 H         1 UNK         0.0600 
    187 H187       -3.9269  -15.0160  -40.7983 H         1 UNK         0.0600 
    188 H188       -5.0886  -14.3007  -41.9090 H         1 UNK         0.0600 
    189 H189       -4.7819  -15.2318  -44.2434 H         1 UNK         0.3000 
    190 H190       -1.8478  -19.9951  -43.2672 H         1 UNK         0.3000 
    191 H191       -3.7963  -17.9660  -42.9359 H         1 UNK         0.0600 
    192 H192       -4.4561  -19.3236  -40.9426 H         1 UNK         0.0600 
    193 H193       -2.7103  -19.1561  -41.0509 H         1 UNK         0.0600 
    194 H194       -3.4808  -20.6684  -41.5267 H         1 UNK         0.0600 
    195 H195       -4.0162  -21.0578  -44.5712 H         1 UNK         0.3000 
    196 H196       -6.9304  -20.6429  -45.1159 H         1 UNK         0.0600 
    197 H197       -5.2963  -23.2405  -45.1372 H         1 UNK         0.0600 
    198 H198       -6.4249  -22.7686  -43.8676 H         1 UNK         0.0600 
    199 H199       -7.0154  -23.0911  -45.4886 H         1 UNK         0.0600 
    200 H200       -4.3093  -19.5483  -46.3420 H         1 UNK         0.3000 
    201 H201       -3.3397  -19.0617  -48.2511 H         1 UNK         0.0600 
    202 H202       -4.7194  -18.7774  -50.2614 H         1 UNK         0.0600 
    203 H203       -5.6372  -18.2699  -48.8559 H         1 UNK         0.0600 
    204 H204       -5.9717  -19.8283  -49.6104 H         1 UNK         0.0600 
    205 H205       -3.1854  -21.8620  -47.2585 H         1 UNK         0.3000 
    206 H206       -2.4831  -23.8789  -47.6895 H         1 UNK         0.0600 
    207 H207       -0.4587  -22.7452  -48.4995 H         1 UNK         0.0600 
    208 H208       -0.7287  -24.2081  -49.4331 H         1 UNK         0.0600 
    209 H209       -1.1257  -22.6370  -50.1226 H         1 UNK         0.0600 
    210 H210       -5.1040  -23.1478  -48.6453 H         1 UNK         0.3000 
    211 H211       -6.8796  -23.9880  -49.6220 H         1 UNK         0.0600 
    212 H212       -7.0260  -26.4684  -49.8790 H         1 UNK         0.0600 
    213 H213       -6.2648  -26.0236  -48.3649 H         1 UNK         0.0600 
    214 H214       -5.2769  -26.6082  -49.6959 H         1 UNK         0.0600 
    215 H215       -5.7272  -26.3885  -51.7057 H         1 UNK         0.3000 
    216 H216       -6.6235  -25.0964  -54.0558 H         1 UNK         0.0600 
    217 H217       -4.8743  -27.5900  -53.7022 H         1 UNK         0.0600 
    218 H218       -5.7150  -27.1384  -55.1805 H         1 UNK         0.0600 
    219 H219       -6.6379  -27.5566  -53.7465 H         1 UNK         0.0600 
    220 H220       -3.4642  -24.9986  -52.5325 H         1 UNK         0.3000 
    221 H221       -1.9448  -24.3118  -54.8885 H         1 UNK         0.0600 
    222 H222       -0.8737  -25.3286  -52.9090 H         1 UNK         0.0600 
    223 H223       -1.3138  -23.9336  -51.9303 H         1 UNK         0.0600 
    224 H224       -0.1643  -23.7551  -53.2458 H         1 UNK         0.0600 
    225 H225       -4.2206  -22.4695  -53.0587 H         1 UNK         0.3000 
    226 H226       -3.2349  -19.8514  -53.2764 H         1 UNK         0.0600 
    227 H227       -6.1232  -20.8447  -53.5379 H         1 UNK         0.0600 
    228 H228       -5.2952  -20.5057  -52.0233 H         1 UNK         0.0600 
    229 H229       -5.6284  -19.1996  -53.1498 H         1 UNK         0.0600 
    230 H230       -4.6675  -21.9427  -55.7513 H         1 UNK         0.3000 
    231 H231       -5.0148  -19.9469  -57.7931 H         1 UNK         0.0600 
    232 H232       -4.7654  -22.9989  -57.9616 H         1 UNK         0.0600 
    233 H233       -5.3242  -21.9476  -59.2578 H         1 UNK         0.0600 
    234 H234       -6.2671  -22.0921  -57.7826 H         1 UNK         0.0600 
    235 H235       -2.2242  -21.7574  -56.6552 H         1 UNK         0.3000 
    236 H236       -0.6013  -21.1852  -59.0594 H         1 UNK         0.0600 
    237 H237        0.1418  -22.5862  -56.4367 H         1 UNK         0.0600 
    238 H238       -0.3414  -23.3923  -57.9279 H         1 UNK         0.0600 
    239 H239        1.1442  -22.4560  -57.8729 H         1 UNK         0.0600 
    240 H240       -0.8693  -20.2763  -55.5910 H         1 UNK         0.3000 
    241 H241        1.2247  -18.3495  -55.5997 H         1 UNK         0.0600 
    242 H242       -2.0964  -16.2341  -56.8531 H         1 UNK         0.3800 
    243 H243       -2.3414  -17.8631  -56.2733 H         1 UNK         0.3800 
    244 H244       -1.1979  -18.5412  -53.7590 H         1 UNK         0.0800 
    245 H245        0.1855  -17.5090  -53.4743 H         1 UNK         0.0800 
    246 H246       -1.3258  -20.1421  -51.8815 H         1 UNK         0.0800 
    247 H247        0.0185  -20.9271  -51.0991 H         1 UNK         0.0800 
@<TRIPOS>BOND
     1    1    2 1    
     2    1  127 1    
     3    1  128 1    
     4    1  129 1    
     5    2    3 2    
     6    2    4 am   BACKBONE|DICT|INTERRES
     7    4    5 1    
     8    4  130 1    
     9    5    6 1    
    10    5   65 1    
    11    5  131 1    
    12    6    7 1    
    13    6  132 1    
    14    6  133 1    
    15    7    8 1    
    16    8    9 1    
    17    8  134 1    
    18    8  135 1    
    19    9   10 ar   
    20    9   14 ar   
    21   10   11 ar   
    22   10  136 1    
    23   11   12 ar   
    24   11  126 1    
    25   12   13 ar   
    26   12  137 1    
    27   13   14 ar   
    28   13   15 1    
    29   14  138 1    
    30   15   16 1    
    31   15  139 1    
    32   15  140 1    
    33   16   17 1    
    34   17   18 1    
    35   17  141 1    
    36   17  142 1    
    37   18   19 1    
    38   18   67 1    
    39   18  143 1    
    40   19   20 am   BACKBONE|DICT|INTERRES
    41   19  144 1    
    42   20   21 2    
    43   20   22 1    
    44   22   23 1    
    45   22   24 1    
    46   22  145 1    
    47   23  146 1    
    48   23  147 1    
    49   23  148 1    
    50   24   25 am   BACKBONE|DICT|INTERRES
    51   24  149 1    
    52   25   26 2    
    53   25   27 1    
    54   27   28 1    
    55   27   29 1    
    56   27  150 1    
    57   28  151 1    
    58   28  152 1    
    59   28  153 1    
    60   29   30 am   BACKBONE|DICT|INTERRES
    61   29  154 1    
    62   30   31 2    
    63   30   32 1    
    64   32   33 1    
    65   32   34 1    
    66   32  155 1    
    67   33  156 1    
    68   33  157 1    
    69   33  158 1    
    70   34   35 am   BACKBONE|DICT|INTERRES
    71   34  159 1    
    72   35   36 2    
    73   35   37 1    
    74   37   38 1    
    75   37   39 1    
    76   37  160 1    
    77   38  161 1    
    78   38  162 1    
    79   38  163 1    
    80   39   40 am   BACKBONE|DICT|INTERRES
    81   39  164 1    
    82   40   41 2    
    83   40   42 1    
    84   42   43 1    
    85   42   44 1    
    86   42  165 1    
    87   43  166 1    
    88   43  167 1    
    89   43  168 1    
    90   44   45 am   BACKBONE|DICT|INTERRES
    91   44  169 1    
    92   45   46 2    
    93   45   47 1    
    94   47   48 1    
    95   47   49 1    
    96   47  170 1    
    97   48  171 1    
    98   48  172 1    
    99   48  173 1    
   100   49   50 am   BACKBONE|DICT|INTERRES
   101   49  174 1    
   102   50   51 2    
   103   50   52 1    
   104   52   53 1    
   105   52   54 1    
   106   52  175 1    
   107   53  176 1    
   108   53  177 1    
   109   53  178 1    
   110   54   55 am   BACKBONE|DICT|INTERRES
   111   54  179 1    
   112   55   56 2    
   113   55   57 1    
   114   57   58 1    
   115   57   59 1    
   116   57  180 1    
   117   58  181 1    
   118   58  182 1    
   119   58  183 1    
   120   59   60 am   BACKBONE|DICT|INTERRES
   121   59  184 1    
   122   60   61 2    
   123   60   62 1    
   124   62   63 1    
   125   62   64 1    
   126   62  185 1    
   127   63  186 1    
   128   63  187 1    
   129   63  188 1    
   130   64   65 am   BACKBONE|DICT|INTERRES
   131   64  189 1    
   132   65   66 2    
   133   67   68 2    
   134   67   69 am   BACKBONE|DICT|INTERRES
   135   69   70 1    
   136   69  190 1    
   137   70   71 1    
   138   70   72 1    
   139   70  191 1    
   140   71  192 1    
   141   71  193 1    
   142   71  194 1    
   143   72   73 2    
   144   72   74 am   BACKBONE|DICT|INTERRES
   145   74   75 1    
   146   74  195 1    
   147   75   76 1    
   148   75   77 1    
   149   75  196 1    
   150   76  197 1    
   151   76  198 1    
   152   76  199 1    
   153   77   78 2    
   154   77   79 am   BACKBONE|DICT|INTERRES
   155   79   80 1    
   156   79  200 1    
   157   80   81 1    
   158   80   82 1    
   159   80  201 1    
   160   81  202 1    
   161   81  203 1    
   162   81  204 1    
   163   82   83 2    
   164   82   84 am   BACKBONE|DICT|INTERRES
   165   84   85 1    
   166   84  205 1    
   167   85   86 1    
   168   85   87 1    
   169   85  206 1    
   170   86  207 1    
   171   86  208 1    
   172   86  209 1    
   173   87   88 2    
   174   87   89 am   BACKBONE|DICT|INTERRES
   175   89   90 1    
   176   89  210 1    
   177   90   91 1    
   178   90   92 1    
   179   90  211 1    
   180   91  212 1    
   181   91  213 1    
   182   91  214 1    
   183   92   93 2    
   184   92   94 am   BACKBONE|DICT|INTERRES
   185   94   95 1    
   186   94  215 1    
   187   95   96 1    
   188   95   97 1    
   189   95  216 1    
   190   96  217 1    
   191   96  218 1    
   192   96  219 1    
   193   97   98 2    
   194   97   99 am   BACKBONE|DICT|INTERRES
   195   99  100 1    
   196   99  220 1    
   197  100  101 1    
   198  100  102 1    
   199  100  221 1    
   200  101  222 1    
   201  101  223 1    
   202  101  224 1    
   203  102  103 2    
   204  102  104 am   BACKBONE|DICT|INTERRES
   205  104  105 1    
   206  104  225 1    
   207  105  106 1    
   208  105  107 1    
   209  105  226 1    
   210  106  227 1    
   211  106  228 1    
   212  106  229 1    
   213  107  108 2    
   214  107  109 am   BACKBONE|DICT|INTERRES
   215  109  110 1    
   216  109  230 1    
   217  110  111 1    
   218  110  112 1    
   219  110  231 1    
   220  111  232 1    
   221  111  233 1    
   222  111  234 1    
   223  112  113 2    
   224  112  114 am   BACKBONE|DICT|INTERRES
   225  114  115 1    
   226  114  235 1    
   227  115  116 1    
   228  115  117 1    
   229  115  236 1    
   230  116  237 1    
   231  116  238 1    
   232  116  239 1    
   233  117  118 2    
   234  117  119 am   BACKBONE|DICT|INTERRES
   235  119  120 1    
   236  119  240 1    
   237  120  121 1    
   238  120  124 1    
   239  120  241 1    
   240  121  122 am   BACKBONE|DICT|INTERRES
   241  121  123 2    
   242  122  242 1    
   243  122  243 1    
   244  124  125 1    
   245  124  244 1    
   246  124  245 1    
   247  125  126 1    
   248  126  246 1    
   249  126  247 1    
@<TRIPOS>SUBSTRUCTURE
     1 UNK         1 GROUP             0       ****    0 ROOT    
