@<TRIPOS>MOLECULE
3R540
247   249    1
SMALL
USER_CHARGES


@<TRIPOS>ATOM
      1 CA         -2.0572  -17.1810  -39.7898 C.3       0 UNK        -0.1800 
      2 C          -1.4203  -16.3395  -40.8865 C.2       0 UNK         0.5000 
      3 O          -0.2779  -16.5947  -41.2634 O.2       0 UNK        -0.5000 
      4 N          -2.1570  -15.3474  -41.4043 N.am      1 UNK        -0.5000 
      5 CA         -1.7356  -14.4358  -42.4751 C.3       1 UNK         0.1400 
      6 C6         -1.4476  -15.1931  -43.8063 C.3       23 UNK        -0.0398 
      7 S7         -1.7671  -14.1803  -45.2904 S.3       23 UNK        -0.2404 
      8 C8         -3.5403  -14.4783  -45.5731 C.3       23 UNK        -0.0205 
      9 C9         -3.8120  -15.9104  -46.0021 C.ar      23 UNK        -0.0193 
     10 C10        -3.4359  -16.3376  -47.2775 C.ar      23 UNK        -0.1150 
     11 C11        -3.6632  -17.6551  -47.6785 C.ar      23 UNK        -0.0193 
     12 C12        -4.2883  -18.5428  -46.8003 C.ar      23 UNK        -0.1150 
     13 C13        -4.6584  -18.1324  -45.5152 C.ar      23 UNK        -0.0193 
     14 C14        -4.4274  -16.8100  -45.1260 C.ar      23 UNK        -0.1150 
     15 C15        -5.3110  -19.1185  -44.5537 C.3       23 UNK        -0.0205 
     16 S16        -4.3104  -19.4535  -43.0595 S.3       23 UNK        -0.2404 
     17 C17        -2.6317  -19.8153  -43.6878 C.3       23 UNK        -0.0398 
     18 CA         -2.5478  -20.8832  -44.8059 C.3       11 UNK         0.1400 
     19 N          -1.3088  -20.7550  -45.5706 N.am      11 UNK        -0.5000 
     20 C          -1.1024  -21.2910  -46.7795 C.2       10 UNK         0.5000 
     21 O          -1.9506  -21.9291  -47.4014 O.2       10 UNK        -0.5000 
     22 CA          0.2972  -21.1022  -47.3840 C.3       10 UNK         0.1400 
     23 CB          0.3659  -19.7754  -48.1493 C.3       10 UNK        -0.1800 
     24 N           1.3484  -21.1391  -46.3661 N.am      10 UNK        -0.5000 
     25 C           1.6915  -22.2427  -45.6855 C.2       9 UNK         0.5000 
     26 O           1.1763  -23.3449  -45.8685 O.2       9 UNK        -0.5000 
     27 CA          2.7441  -22.0745  -44.5753 C.3       9 UNK         0.1400 
     28 CB          4.1612  -22.0563  -45.1672 C.3       9 UNK        -0.1800 
     29 N           2.5368  -20.8674  -43.7743 N.am      9 UNK        -0.5000 
     30 C           1.4458  -20.6144  -43.0372 C.2       8 UNK         0.5000 
     31 O           0.4955  -21.3881  -42.9350 O.2       8 UNK        -0.5000 
     32 CA          1.3822  -19.2549  -42.3221 C.3       8 UNK         0.1400 
     33 CB          1.8705  -19.3874  -40.8721 C.3       8 UNK        -0.1800 
     34 N           2.1447  -18.2018  -42.9964 N.am      8 UNK        -0.5000 
     35 C           1.8520  -17.7025  -44.2043 C.2       7 UNK         0.5000 
     36 O           0.9145  -18.1078  -44.8969 O.2       7 UNK        -0.5000 
     37 CA          2.7809  -16.5707  -44.6887 C.3       7 UNK         0.1400 
     38 CB          4.2173  -17.0859  -44.9295 C.3       7 UNK        -0.1800 
     39 N           2.2573  -15.8473  -45.8536 N.am      7 UNK        -0.5000 
     40 C           2.1651  -16.2793  -47.1208 C.2       6 UNK         0.5000 
     41 O           2.6378  -17.3430  -47.5223 O.2       6 UNK        -0.5000 
     42 CA          1.4077  -15.3899  -48.1224 C.3       6 UNK         0.1400 
     43 CB         -0.0152  -15.9507  -48.3216 C.3       6 UNK        -0.1800 
     44 N           1.3642  -13.9743  -47.7336 N.am      6 UNK        -0.5000 
     45 C           0.9751  -12.9834  -48.5488 C.2       5 UNK         0.5000 
     46 O           0.6214  -13.1535  -49.7168 O.2       5 UNK        -0.5000 
     47 CA          0.9983  -11.5568  -47.9778 C.3       5 UNK         0.1400 
     48 CB         -0.1667  -11.3229  -47.0041 C.3       5 UNK        -0.1800 
     49 N           2.2622  -11.2604  -47.3085 N.am      5 UNK        -0.5000 
     50 C           3.3570  -10.8005  -47.9300 C.2       4 UNK         0.5000 
     51 O           3.4166  -10.5892  -49.1420 O.2       4 UNK        -0.5000 
     52 CA          4.5900  -10.5000  -47.0553 C.3       4 UNK         0.1400 
     53 CB          4.6642   -8.9991  -46.7342 C.3       4 UNK        -0.1800 
     54 N           4.5972  -11.2504  -45.7997 N.am      4 UNK        -0.5000 
     55 C           4.9194  -12.5457  -45.6950 C.2       3 UNK         0.5000 
     56 O           5.2882  -13.2413  -46.6412 O.2       3 UNK        -0.5000 
     57 CA          4.7775  -13.1744  -44.2969 C.3       3 UNK         0.1400 
     58 CB          6.0831  -13.0255  -43.5018 C.3       3 UNK        -0.1800 
     59 N           3.6647  -12.6361  -43.5065 N.am      3 UNK        -0.5000 
     60 C           2.3735  -12.7086  -43.8516 C.2       2 UNK         0.5000 
     61 O           1.9727  -13.1703  -44.9264 O.2       2 UNK        -0.5000 
     62 CA          1.3585  -12.1636  -42.8410 C.3       2 UNK         0.1400 
     63 CB          1.0687  -10.6790  -43.1093 C.3       2 UNK        -0.1800 
     64 N           0.1339  -12.9346  -43.0030 N.am      2 UNK        -0.5000 
     65 C          -0.5881  -13.4926  -42.0282 C.2       1 UNK         0.5000 
     66 O          -0.3914  -13.2743  -40.8294 O.2       1 UNK        -0.5000 
     67 C          -2.7575  -22.3248  -44.3026 C.2       11 UNK         0.5000 
     68 O          -3.8480  -22.8712  -44.4720 O.2       11 UNK        -0.5000 
     69 N          -1.6930  -22.9457  -43.7749 N.am      12 UNK        -0.5000 
     70 CA         -1.6581  -24.3502  -43.3598 C.3       12 UNK         0.1400 
     71 CB         -0.3250  -24.6364  -42.6524 C.3       12 UNK        -0.1800 
     72 C          -1.8738  -25.3303  -44.5295 C.2       12 UNK         0.5000 
     73 O          -2.5475  -26.3461  -44.3559 O.2       12 UNK        -0.5000 
     74 N          -1.3309  -24.9896  -45.7061 N.am      13 UNK        -0.5000 
     75 CA         -1.5044  -25.7292  -46.9578 C.3       13 UNK         0.1400 
     76 CB         -0.3473  -25.3717  -47.9046 C.3       13 UNK        -0.1800 
     77 C          -2.8596  -25.4737  -47.6503 C.2       13 UNK         0.5000 
     78 O          -3.1227  -26.0948  -48.6811 O.2       13 UNK        -0.5000 
     79 N          -3.6745  -24.5496  -47.1172 N.am      14 UNK        -0.5000 
     80 CA         -4.9686  -24.0999  -47.6426 C.3       14 UNK         0.1400 
     81 CB         -6.0233  -25.2184  -47.5134 C.3       14 UNK        -0.1800 
     82 C          -4.8545  -23.5425  -49.0765 C.2       14 UNK         0.5000 
     83 O          -5.6148  -23.9378  -49.9621 O.2       14 UNK        -0.5000 
     84 N          -3.8567  -22.6707  -49.2855 N.am      15 UNK        -0.5000 
     85 CA         -3.4631  -22.0695  -50.5639 C.3       15 UNK         0.1400 
     86 CB         -4.5816  -21.1541  -51.0970 C.3       15 UNK        -0.1800 
     87 C          -3.0055  -23.1268  -51.5901 C.2       15 UNK         0.5000 
     88 O          -3.3217  -23.0156  -52.7771 O.2       15 UNK        -0.5000 
     89 N          -2.2930  -24.1478  -51.0878 N.am      16 UNK        -0.5000 
     90 CA         -1.8619  -25.3672  -51.7796 C.3       16 UNK         0.1400 
     91 CB         -0.8235  -25.0426  -52.8729 C.3       16 UNK        -0.1800 
     92 C          -3.0685  -26.1673  -52.3069 C.2       16 UNK         0.5000 
     93 O          -3.1221  -26.4978  -53.4904 O.2       16 UNK        -0.5000 
     94 N          -4.0508  -26.4009  -51.4237 N.am      17 UNK        -0.5000 
     95 CA         -5.3742  -26.9699  -51.7120 C.3       17 UNK         0.1400 
     96 CB         -5.2588  -28.4763  -52.0223 C.3       17 UNK        -0.1800 
     97 C          -6.1224  -26.1784  -52.8100 C.2       17 UNK         0.5000 
     98 O          -6.6837  -26.7667  -53.7358 O.2       17 UNK        -0.5000 
     99 N          -6.0620  -24.8447  -52.6929 N.am      18 UNK        -0.5000 
    100 CA        -6.5699  -23.8204  -53.6108 C.3       18 UNK         0.1400 
    101 CB        -8.1044  -23.9099  -53.7391 C.3       18 UNK        -0.1800 
    102 C         -5.8719  -23.7547  -54.9887 C.2       18 UNK         0.5000 
    103 O         -6.3303  -22.9945  -55.8432 O.2       18 UNK        -0.5000 
    104 N         -4.7827  -24.5092  -55.2021 N.am      19 UNK        -0.5000 
    105 CA        -4.0525  -24.5344  -56.4721 C.3       19 UNK         0.1400 
    106 CB        -3.2233  -25.8225  -56.5783 C.3       19 UNK        -0.1800 
    107 C         -3.1525  -23.3031  -56.6771 C.2       19 UNK         0.5000 
    108 O         -2.9864  -22.8707  -57.8188 O.2       19 UNK        -0.5000 
    109 N         -2.5841  -22.7618  -55.5895 N.am      20 UNK        -0.5000 
    110 CA        -1.7399  -21.5649  -55.6311 C.3       20 UNK         0.1400 
    111 CB        -0.7321  -21.5893  -54.4706 C.3       20 UNK        -0.1800 
    112 C         -2.5812  -20.2792  -55.5914 C.2       20 UNK         0.5000 
    113 O         -2.2070  -19.2942  -56.2272 O.2       20 UNK        -0.5000 
    114 N         -3.7012  -20.3252  -54.8525 N.am      21 UNK        -0.5000 
    115 CA        -4.6937  -19.2561  -54.6767 C.3       21 UNK         0.1400 
    116 CB        -5.4198  -18.9633  -56.0062 C.3       21 UNK        -0.1800 
    117 C         -4.1397  -17.9818  -53.9956 C.2       21 UNK         0.5000 
    118 O         -4.6670  -16.8897  -54.2159 O.2       21 UNK        -0.5000 
    119 N         -3.1149  -18.1599  -53.1500 N.am      22 UNK        -0.5000 
    120 CA        -2.4476  -17.1289  -52.3326 C.3       22 UNK         0.1400 
    121 C         -1.6061  -16.1071  -53.1599 C.2       22 UNK         0.5000 
    122 N         -1.0255  -15.0954  -52.5264 N.am      22 UNK        -0.7600 
    123 O         -1.4286  -16.2341  -54.3691 O.2       22 UNK        -0.5000 
    124 C124       -3.4020  -16.4370  -51.3105 C.3       23 UNK        -0.0398 
    125 S125       -4.4014  -17.6140  -50.3355 S.3       23 UNK        -0.2404 
    126 C126       -3.2208  -18.1259  -49.0519 C.3       23 UNK        -0.0205 
    127 H127       -1.4550  -17.1329  -38.8826 H         1 UNK         0.0600 
    128 H128       -2.1172  -18.2224  -40.1065 H         1 UNK         0.0600 
    129 H129       -3.0645  -16.8400  -39.5495 H         1 UNK         0.0600 
    130 H130       -3.0741  -15.1672  -41.0212 H         1 UNK         0.3000 
    131 H131       -2.5980  -13.7872  -42.6353 H         1 UNK         0.0600 
    132 H132       -2.0587  -16.0930  -43.8694 H         1 UNK         0.0800 
    133 H133       -0.4190  -15.5563  -43.8402 H         1 UNK         0.0800 
    134 H134       -4.1019  -14.2270  -44.6723 H         1 UNK         0.0800 
    135 H135       -3.8911  -13.7993  -46.3515 H         1 UNK         0.0800 
    136 H136       -2.9577  -15.6442  -47.9544 H         1 UNK         0.1150 
    137 H137       -4.4761  -19.5580  -47.1199 H         1 UNK         0.1150 
    138 H138       -4.7139  -16.4884  -44.1344 H         1 UNK         0.1150 
    139 H139       -6.2749  -18.7151  -44.2406 H         1 UNK         0.0800 
    140 H140       -5.5340  -20.0625  -45.0531 H         1 UNK         0.0800 
    141 H141       -1.9985  -20.0905  -42.8429 H         1 UNK         0.0800 
    142 H142       -2.2292  -18.8692  -44.0547 H         1 UNK         0.0800 
    143 H143       -3.3513  -20.7046  -45.5150 H         1 UNK         0.0600 
    144 H144       -0.5528  -20.2428  -45.1377 H         1 UNK         0.3000 
    145 H145        0.4720  -21.9160  -48.0907 H         1 UNK         0.0600 
    146 H146        1.3371  -19.6427  -48.6262 H         1 UNK         0.0600 
    147 H147       -0.3913  -19.7338  -48.9332 H         1 UNK         0.0600 
    148 H148        0.2002  -18.9276  -47.4838 H         1 UNK         0.0600 
    149 H149        1.7853  -20.2584  -46.1319 H         1 UNK         0.3000 
    150 H150        2.6623  -22.9355  -43.9085 H         1 UNK         0.0600 
    151 H151        4.3473  -22.9524  -45.7608 H         1 UNK         0.0600 
    152 H152        4.9163  -22.0262  -44.3815 H         1 UNK         0.0600 
    153 H153        4.3172  -21.1937  -45.8164 H         1 UNK         0.0600 
    154 H154        3.2667  -20.1715  -43.8006 H         1 UNK         0.3000 
    155 H155        0.3336  -18.9523  -42.3043 H         1 UNK         0.0600 
    156 H156        1.3030  -20.1504  -40.3375 H         1 UNK         0.0600 
    157 H157        1.7438  -18.4513  -40.3278 H         1 UNK         0.0600 
    158 H158        2.9238  -19.6663  -40.8244 H         1 UNK         0.0600 
    159 H159        2.9186  -17.8129  -42.4779 H         1 UNK         0.3000 
    160 H160        2.8181  -15.8332  -43.8861 H         1 UNK         0.0600 
    161 H161        4.2294  -17.9815  -45.5516 H         1 UNK         0.0600 
    162 H162        4.7050  -17.3419  -43.9886 H         1 UNK         0.0600 
    163 H163        4.8371  -16.3366  -45.4213 H         1 UNK         0.0600 
    164 H164        1.8427  -14.9529  -45.6208 H         1 UNK         0.3000 
    165 H165        1.9428  -15.4549  -49.0721 H         1 UNK         0.0600 
    166 H166       -0.6142  -15.3467  -49.0012 H         1 UNK         0.0600 
    167 H167       -0.5488  -16.0189  -47.3735 H         1 UNK         0.0600 
    168 H168        0.0269  -16.9522  -48.7472 H         1 UNK         0.0600 
    169 H169        1.6754  -13.7349  -46.7992 H         1 UNK         0.3000 
    170 H170        0.8644  -10.8660  -48.8133 H         1 UNK         0.0600 
    171 H171       -1.1210  -11.5827  -47.4641 H         1 UNK         0.0600 
    172 H172       -0.0655  -11.9207  -46.1000 H         1 UNK         0.0600 
    173 H173       -0.2234  -10.2763  -46.7050 H         1 UNK         0.0600 
    174 H174        2.3146  -11.4743  -46.3227 H         1 UNK         0.3000 
    175 H175        5.4781  -10.7692  -47.6311 H         1 UNK         0.0600 
    176 H176        3.8033   -8.6684  -46.1517 H         1 UNK         0.0600 
    177 H177        5.5651   -8.7606  -46.1685 H         1 UNK         0.0600 
    178 H178        4.6896   -8.4046  -47.6485 H         1 UNK         0.0600 
    179 H179        4.3138  -10.7542  -44.9676 H         1 UNK         0.3000 
    180 H180        4.5924  -14.2381  -44.4402 H         1 UNK         0.0600 
    181 H181        6.3092  -11.9796  -43.2908 H         1 UNK         0.0600 
    182 H182        6.9272  -13.4390  -44.0555 H         1 UNK         0.0600 
    183 H183        6.0293  -13.5569  -42.5515 H         1 UNK         0.0600 
    184 H184        3.9093  -12.2283  -42.6153 H         1 UNK         0.3000 
    185 H185        1.7612  -12.2858  -41.8333 H         1 UNK         0.0600 
    186 H186        0.6865  -10.5160  -44.1177 H         1 UNK         0.0600 
    187 H187        0.3301  -10.2917  -42.4073 H         1 UNK         0.0600 
    188 H188        1.9708  -10.0764  -42.9971 H         1 UNK         0.0600 
    189 H189       -0.0779  -13.1818  -43.9627 H         1 UNK         0.3000 
    190 H190       -0.8370  -22.4132  -43.6303 H         1 UNK         0.3000 
    191 H191       -2.4666  -24.5059  -42.6427 H         1 UNK         0.0600 
    192 H192        0.5253  -24.4669  -43.3140 H         1 UNK         0.0600 
    193 H193       -0.1987  -23.9987  -41.7773 H         1 UNK         0.0600 
    194 H194       -0.2766  -25.6713  -42.3114 H         1 UNK         0.0600 
    195 H195       -0.7283  -24.1746  -45.7457 H         1 UNK         0.3000 
    196 H196       -1.4479  -26.7982  -46.7428 H         1 UNK         0.0600 
    197 H197        0.6178  -25.5776  -47.4415 H         1 UNK         0.0600 
    198 H198       -0.3667  -24.3176  -48.1830 H         1 UNK         0.0600 
    199 H199       -0.3920  -25.9585  -48.8221 H         1 UNK         0.0600 
    200 H200       -3.3647  -24.0756  -46.2782 H         1 UNK         0.3000 
    201 H201       -5.2867  -23.2679  -47.0128 H         1 UNK         0.0600 
    202 H202       -7.0109  -24.8587  -47.8044 H         1 UNK         0.0600 
    203 H203       -6.0968  -25.5716  -46.4849 H         1 UNK         0.0600 
    204 H204       -5.7885  -26.0750  -48.1459 H         1 UNK         0.0600 
    205 H205       -3.2512  -22.4378  -48.4979 H         1 UNK         0.3000 
    206 H206       -2.5930  -21.4455  -50.3555 H         1 UNK         0.0600 
    207 H207       -4.9236  -20.4666  -50.3252 H         1 UNK         0.0600 
    208 H208       -5.4498  -21.7197  -51.4285 H         1 UNK         0.0600 
    209 H209       -4.2322  -20.5581  -51.9381 H         1 UNK         0.0600 
    210 H210       -2.1395  -24.1468  -50.0903 H         1 UNK         0.3000 
    211 H211       -1.3741  -25.9974  -51.0355 H         1 UNK         0.0600 
    212 H212        0.0020  -24.4542  -52.4729 H         1 UNK         0.0600 
    213 H213       -0.4007  -25.9575  -53.2893 H         1 UNK         0.0600 
    214 H214       -1.2639  -24.4862  -53.6992 H         1 UNK         0.0600 
    215 H215       -3.8943  -26.1175  -50.4597 H         1 UNK         0.3000 
    216 H216       -5.9621  -26.8611  -50.7994 H         1 UNK         0.0600 
    217 H217       -6.2449  -28.9293  -52.1302 H         1 UNK         0.0600 
    218 H218       -4.7114  -28.6589  -52.9476 H         1 UNK         0.0600 
    219 H219       -4.7453  -29.0047  -51.2191 H         1 UNK         0.0600 
    220 H220       -5.6164  -24.4808  -51.8550 H         1 UNK         0.3000 
    221 H221       -6.3461  -22.8671  -53.1353 H         1 UNK         0.0600 
    222 H222       -8.4155  -24.8049  -54.2783 H         1 UNK         0.0600 
    223 H223       -8.5816  -23.9242  -52.7591 H         1 UNK         0.0600 
    224 H224       -8.5041  -23.0507  -54.2789 H         1 UNK         0.0600 
    225 H225       -4.4317  -25.1043  -54.4604 H         1 UNK         0.3000 
    226 H226       -4.7836  -24.5496  -57.2834 H         1 UNK         0.0600 
    227 H227       -3.8309  -26.7054  -56.3786 H         1 UNK         0.0600 
    228 H228       -2.8068  -25.9323  -57.5802 H         1 UNK         0.0600 
    229 H229       -2.3861  -25.8224  -55.8799 H         1 UNK         0.0600 
    230 H230       -2.8057  -23.1369  -54.6717 H         1 UNK         0.3000 
    231 H231       -1.1674  -21.5602  -56.5613 H         1 UNK         0.0600 
    232 H232       -0.0707  -20.7231  -54.5148 H         1 UNK         0.0600 
    233 H233       -0.1023  -22.4775  -54.5145 H         1 UNK         0.0600 
    234 H234       -1.2240  -21.5715  -53.4990 H         1 UNK         0.0600 
    235 H235       -3.8986  -21.1921  -54.3709 H         1 UNK         0.3000 
    236 H236       -5.4391  -19.6550  -53.9874 H         1 UNK         0.0600 
    237 H237       -5.8134  -19.8788  -56.4486 H         1 UNK         0.0600 
    238 H238       -6.2640  -18.2903  -55.8525 H         1 UNK         0.0600 
    239 H239       -4.7575  -18.4953  -56.7349 H         1 UNK         0.0600 
    240 H240       -2.7320  -19.0891  -53.0747 H         1 UNK         0.3000 
    241 H241       -1.7064  -17.6831  -51.7562 H         1 UNK         0.0600 
    242 H242       -0.4695  -14.4485  -53.0639 H         1 UNK         0.3800 
    243 H243       -1.1034  -14.9575  -51.5316 H         1 UNK         0.3800 
    244 H244       -2.8456  -15.8073  -50.6154 H         1 UNK         0.0800 
    245 H245       -4.0896  -15.7688  -51.8307 H         1 UNK         0.0800 
    246 H246       -2.2232  -17.7442  -49.2677 H         1 UNK         0.0800 
    247 H247       -3.1332  -19.2131  -49.0669 H         1 UNK         0.0800 
@<TRIPOS>BOND
     1    1    2 1    
     2    1  127 1    
     3    1  128 1    
     4    1  129 1    
     5    2    3 2    
     6    2    4 am   BACKBONE|DICT|INTERRES
     7    4    5 1    
     8    4  130 1    
     9    5    6 1    
    10    5   65 1    
    11    5  131 1    
    12    6    7 1    
    13    6  132 1    
    14    6  133 1    
    15    7    8 1    
    16    8    9 1    
    17    8  134 1    
    18    8  135 1    
    19    9   10 ar   
    20    9   14 ar   
    21   10   11 ar   
    22   10  136 1    
    23   11   12 ar   
    24   11  126 1    
    25   12   13 ar   
    26   12  137 1    
    27   13   14 ar   
    28   13   15 1    
    29   14  138 1    
    30   15   16 1    
    31   15  139 1    
    32   15  140 1    
    33   16   17 1    
    34   17   18 1    
    35   17  141 1    
    36   17  142 1    
    37   18   19 1    
    38   18   67 1    
    39   18  143 1    
    40   19   20 am   BACKBONE|DICT|INTERRES
    41   19  144 1    
    42   20   21 2    
    43   20   22 1    
    44   22   23 1    
    45   22   24 1    
    46   22  145 1    
    47   23  146 1    
    48   23  147 1    
    49   23  148 1    
    50   24   25 am   BACKBONE|DICT|INTERRES
    51   24  149 1    
    52   25   26 2    
    53   25   27 1    
    54   27   28 1    
    55   27   29 1    
    56   27  150 1    
    57   28  151 1    
    58   28  152 1    
    59   28  153 1    
    60   29   30 am   BACKBONE|DICT|INTERRES
    61   29  154 1    
    62   30   31 2    
    63   30   32 1    
    64   32   33 1    
    65   32   34 1    
    66   32  155 1    
    67   33  156 1    
    68   33  157 1    
    69   33  158 1    
    70   34   35 am   BACKBONE|DICT|INTERRES
    71   34  159 1    
    72   35   36 2    
    73   35   37 1    
    74   37   38 1    
    75   37   39 1    
    76   37  160 1    
    77   38  161 1    
    78   38  162 1    
    79   38  163 1    
    80   39   40 am   BACKBONE|DICT|INTERRES
    81   39  164 1    
    82   40   41 2    
    83   40   42 1    
    84   42   43 1    
    85   42   44 1    
    86   42  165 1    
    87   43  166 1    
    88   43  167 1    
    89   43  168 1    
    90   44   45 am   BACKBONE|DICT|INTERRES
    91   44  169 1    
    92   45   46 2    
    93   45   47 1    
    94   47   48 1    
    95   47   49 1    
    96   47  170 1    
    97   48  171 1    
    98   48  172 1    
    99   48  173 1    
   100   49   50 am   BACKBONE|DICT|INTERRES
   101   49  174 1    
   102   50   51 2    
   103   50   52 1    
   104   52   53 1    
   105   52   54 1    
   106   52  175 1    
   107   53  176 1    
   108   53  177 1    
   109   53  178 1    
   110   54   55 am   BACKBONE|DICT|INTERRES
   111   54  179 1    
   112   55   56 2    
   113   55   57 1    
   114   57   58 1    
   115   57   59 1    
   116   57  180 1    
   117   58  181 1    
   118   58  182 1    
   119   58  183 1    
   120   59   60 am   BACKBONE|DICT|INTERRES
   121   59  184 1    
   122   60   61 2    
   123   60   62 1    
   124   62   63 1    
   125   62   64 1    
   126   62  185 1    
   127   63  186 1    
   128   63  187 1    
   129   63  188 1    
   130   64   65 am   BACKBONE|DICT|INTERRES
   131   64  189 1    
   132   65   66 2    
   133   67   68 2    
   134   67   69 am   BACKBONE|DICT|INTERRES
   135   69   70 1    
   136   69  190 1    
   137   70   71 1    
   138   70   72 1    
   139   70  191 1    
   140   71  192 1    
   141   71  193 1    
   142   71  194 1    
   143   72   73 2    
   144   72   74 am   BACKBONE|DICT|INTERRES
   145   74   75 1    
   146   74  195 1    
   147   75   76 1    
   148   75   77 1    
   149   75  196 1    
   150   76  197 1    
   151   76  198 1    
   152   76  199 1    
   153   77   78 2    
   154   77   79 am   BACKBONE|DICT|INTERRES
   155   79   80 1    
   156   79  200 1    
   157   80   81 1    
   158   80   82 1    
   159   80  201 1    
   160   81  202 1    
   161   81  203 1    
   162   81  204 1    
   163   82   83 2    
   164   82   84 am   BACKBONE|DICT|INTERRES
   165   84   85 1    
   166   84  205 1    
   167   85   86 1    
   168   85   87 1    
   169   85  206 1    
   170   86  207 1    
   171   86  208 1    
   172   86  209 1    
   173   87   88 2    
   174   87   89 am   BACKBONE|DICT|INTERRES
   175   89   90 1    
   176   89  210 1    
   177   90   91 1    
   178   90   92 1    
   179   90  211 1    
   180   91  212 1    
   181   91  213 1    
   182   91  214 1    
   183   92   93 2    
   184   92   94 am   BACKBONE|DICT|INTERRES
   185   94   95 1    
   186   94  215 1    
   187   95   96 1    
   188   95   97 1    
   189   95  216 1    
   190   96  217 1    
   191   96  218 1    
   192   96  219 1    
   193   97   98 2    
   194   97   99 am   BACKBONE|DICT|INTERRES
   195   99  100 1    
   196   99  220 1    
   197  100  101 1    
   198  100  102 1    
   199  100  221 1    
   200  101  222 1    
   201  101  223 1    
   202  101  224 1    
   203  102  103 2    
   204  102  104 am   BACKBONE|DICT|INTERRES
   205  104  105 1    
   206  104  225 1    
   207  105  106 1    
   208  105  107 1    
   209  105  226 1    
   210  106  227 1    
   211  106  228 1    
   212  106  229 1    
   213  107  108 2    
   214  107  109 am   BACKBONE|DICT|INTERRES
   215  109  110 1    
   216  109  230 1    
   217  110  111 1    
   218  110  112 1    
   219  110  231 1    
   220  111  232 1    
   221  111  233 1    
   222  111  234 1    
   223  112  113 2    
   224  112  114 am   BACKBONE|DICT|INTERRES
   225  114  115 1    
   226  114  235 1    
   227  115  116 1    
   228  115  117 1    
   229  115  236 1    
   230  116  237 1    
   231  116  238 1    
   232  116  239 1    
   233  117  118 2    
   234  117  119 am   BACKBONE|DICT|INTERRES
   235  119  120 1    
   236  119  240 1    
   237  120  121 1    
   238  120  124 1    
   239  120  241 1    
   240  121  122 am   BACKBONE|DICT|INTERRES
   241  121  123 2    
   242  122  242 1    
   243  122  243 1    
   244  124  125 1    
   245  124  244 1    
   246  124  245 1    
   247  125  126 1    
   248  126  246 1    
   249  126  247 1    
@<TRIPOS>SUBSTRUCTURE
     1 UNK         1 GROUP             0       ****    0 ROOT    
