@<TRIPOS>MOLECULE
3R540
247   249    1
SMALL
USER_CHARGES


@<TRIPOS>ATOM
      1 CA          2.1891  -17.3393  -49.0629 C.3       0 UNK        -0.1800 
      2 C           2.0298  -16.6391  -47.7217 C.2       0 UNK         0.5000 
      3 O           2.3830  -17.2007  -46.6874 O.2       0 UNK        -0.5000 
      4 N           1.4975  -15.4112  -47.7419 N.am      1 UNK        -0.5000 
      5 CA          1.2483  -14.5787  -46.5574 C.3       1 UNK         0.1400 
      6 C6          0.2792  -13.4068  -46.8643 C.3       23 UNK        -0.0398 
      7 S7         -1.4019  -13.9589  -47.3032 S.3       23 UNK        -0.2404 
      8 C8         -1.2974  -14.0971  -49.1214 C.3       23 UNK        -0.0205 
      9 C9         -1.9176  -15.3870  -49.6484 C.ar      23 UNK        -0.0193 
     10 C10        -2.7229  -15.3603  -50.7913 C.ar      23 UNK        -0.1150 
     11 C11        -3.2975  -16.5354  -51.2865 C.ar      23 UNK        -0.0193 
     12 C12        -3.0617  -17.7458  -50.6302 C.ar      23 UNK        -0.1150 
     13 C13        -2.2585  -17.7874  -49.4894 C.ar      23 UNK        -0.0193 
     14 C14        -1.6794  -16.6106  -49.0129 C.ar      23 UNK        -0.1150 
     15 C15        -2.0379  -19.0898  -48.7444 C.3       23 UNK        -0.0205 
     16 S16        -0.5630  -19.9690  -49.3499 S.3       23 UNK        -0.2404 
     17 C17         0.1574  -20.5731  -47.7759 C.3       23 UNK        -0.0398 
     18 CA         -0.2118  -22.0043  -47.2831 C.3       11 UNK         0.1400 
     19 N          -0.0315  -22.1087  -45.8270 N.am      11 UNK        -0.5000 
     20 C          -0.1712  -23.2091  -45.0716 C.2       10 UNK         0.5000 
     21 O          -0.4980  -24.3090  -45.5130 O.2       10 UNK        -0.5000 
     22 CA          0.0205  -23.0350  -43.5569 C.3       10 UNK         0.1400 
     23 CB          1.5049  -22.8827  -43.1907 C.3       10 UNK        -0.1800 
     24 N          -0.7428  -21.8879  -43.0694 N.am      10 UNK        -0.5000 
     25 C          -2.0738  -21.8916  -42.9075 C.2       9 UNK         0.5000 
     26 O          -2.7732  -22.8958  -43.0385 O.2       9 UNK        -0.5000 
     27 CA         -2.7435  -20.5483  -42.5668 C.3       9 UNK         0.1400 
     28 CB         -2.9270  -20.4032  -41.0488 C.3       9 UNK        -0.1800 
     29 N          -1.9967  -19.3990  -43.0806 N.am      9 UNK        -0.5000 
     30 C          -1.9471  -19.0500  -44.3751 C.2       8 UNK         0.5000 
     31 O          -2.5233  -19.6705  -45.2689 O.2       8 UNK        -0.5000 
     32 CA         -1.0677  -17.8336  -44.7350 C.3       8 UNK         0.1400 
     33 CB         -1.8535  -16.5323  -44.5182 C.3       8 UNK        -0.1800 
     34 N           0.1770  -17.7755  -43.9670 N.am      8 UNK        -0.5000 
     35 C           1.1056  -18.7435  -43.9308 C.2       7 UNK         0.5000 
     36 O           1.0435  -19.7692  -44.6083 O.2       7 UNK        -0.5000 
     37 CA          2.2569  -18.5867  -42.9165 C.3       7 UNK         0.1400 
     38 CB          3.5047  -18.0175  -43.6076 C.3       7 UNK        -0.1800 
     39 N           1.9382  -17.7468  -41.7590 N.am      7 UNK        -0.5000 
     40 C           0.9026  -17.8875  -40.9171 C.2       6 UNK         0.5000 
     41 O           0.0862  -18.8058  -40.9924 O.2       6 UNK        -0.5000 
     42 CA          0.7213  -16.8007  -39.8347 C.3       6 UNK         0.1400 
     43 CB          1.0116  -17.3776  -38.4407 C.3       6 UNK        -0.1800 
     44 N           1.5539  -15.6087  -40.0376 N.am      6 UNK        -0.5000 
     45 C           1.4414  -14.7453  -41.0565 C.2       5 UNK         0.5000 
     46 O           0.5785  -14.8349  -41.9344 O.2       5 UNK        -0.5000 
     47 CA          2.5305  -13.6606  -41.1259 C.3       5 UNK         0.1400 
     48 CB          3.8930  -14.2886  -41.4699 C.3       5 UNK        -0.1800 
     49 N           2.2298  -12.6676  -42.1487 N.am      5 UNK        -0.5000 
     50 C           1.5303  -11.5442  -41.9660 C.2       4 UNK         0.5000 
     51 O           1.0386  -11.2101  -40.8856 O.2       4 UNK        -0.5000 
     52 CA          1.4051  -10.6344  -43.2083 C.3       4 UNK         0.1400 
     53 CB          0.7482   -9.2724  -42.9023 C.3       4 UNK        -0.1800 
     54 N           2.6914  -10.4487  -43.8956 N.am      4 UNK        -0.5000 
     55 C           3.8290   -9.9511  -43.3846 C.2       3 UNK         0.5000 
     56 O           3.9272   -9.5047  -42.2401 O.2       3 UNK        -0.5000 
     57 CA          5.0703   -9.9874  -44.3061 C.3       3 UNK         0.1400 
     58 CB          6.3653   -9.5845  -43.5769 C.3       3 UNK        -0.1800 
     59 N           5.2645  -11.3126  -44.9009 N.am      3 UNK        -0.5000 
     60 C           4.6463  -11.7656  -45.9977 C.2       2 UNK         0.5000 
     61 O           3.8686  -11.0758  -46.6614 O.2       2 UNK        -0.5000 
     62 CA          4.8818  -13.2384  -46.4058 C.3       2 UNK         0.1400 
     63 CB          5.6670  -14.0705  -45.3659 C.3       2 UNK        -0.1800 
     64 N           3.6137  -13.8966  -46.7400 N.am      2 UNK        -0.5000 
     65 C           2.5446  -14.0191  -45.9370 C.2       1 UNK         0.5000 
     66 O           2.5366  -13.6735  -44.7556 O.2       1 UNK        -0.5000 
     67 C          -1.5981  -22.5079  -47.7499 C.2       11 UNK         0.5000 
     68 O          -1.6892  -23.1497  -48.7993 O.2       11 UNK        -0.5000 
     69 N          -2.6384  -22.2736  -46.9369 N.am      12 UNK        -0.5000 
     70 CA         -4.0006  -22.7762  -47.1354 C.3       12 UNK         0.1400 
     71 CB         -4.8879  -22.2924  -45.9802 C.3       12 UNK        -0.1800 
     72 C          -4.1014  -24.3097  -47.2926 C.2       12 UNK         0.5000 
     73 O          -5.0063  -24.7799  -47.9821 O.2       12 UNK        -0.5000 
     74 N          -3.1646  -25.0512  -46.6863 N.am      13 UNK        -0.5000 
     75 CA         -3.0436  -26.5013  -46.8056 C.3       13 UNK         0.1400 
     76 CB         -2.9152  -27.1127  -45.4008 C.3       13 UNK        -0.1800 
     77 C          -1.8375  -26.8835  -47.6794 C.2       13 UNK         0.5000 
     78 O          -1.9984  -27.6334  -48.6417 O.2       13 UNK        -0.5000 
     79 N          -0.6516  -26.3648  -47.3329 N.am      14 UNK        -0.5000 
     80 CA          0.6448  -26.7620  -47.8876 C.3       14 UNK         0.1400 
     81 CB          1.7648  -26.1693  -47.0183 C.3       14 UNK        -0.1800 
     82 C           0.8502  -26.3693  -49.3595 C.2       14 UNK         0.5000 
     83 O           1.5006  -27.1126  -50.0951 O.2       14 UNK        -0.5000 
     84 N           0.2882  -25.2236  -49.7616 N.am      15 UNK        -0.5000 
     85 CA          0.3037  -24.7258  -51.1384 C.3       15 UNK         0.1400 
     86 CB          0.8229  -23.2773  -51.1389 C.3       15 UNK        -0.1800 
     87 C          -1.0937  -24.8153  -51.7780 C.2       15 UNK         0.5000 
     88 O          -1.2869  -24.2841  -52.8719 O.2       15 UNK        -0.5000 
     89 N          -2.0494  -25.4488  -51.0785 N.am      16 UNK        -0.5000 
     90 CA         -3.4639  -25.5959  -51.4320 C.3       16 UNK         0.1400 
     91 CB         -3.6195  -26.5769  -52.6126 C.3       16 UNK        -0.1800 
     92 C          -4.1571  -24.2410  -51.6850 C.2       16 UNK         0.5000 
     93 O          -4.9064  -24.1078  -52.6519 O.2       16 UNK        -0.5000 
     94 N          -3.8520  -23.2466  -50.8378 N.am      17 UNK        -0.5000 
     95 CA         -4.2997  -21.8529  -50.9341 C.3       17 UNK         0.1400 
     96 CB         -5.8272  -21.7369  -50.7563 C.3       17 UNK        -0.1800 
     97 C          -3.7766  -21.1638  -52.2089 C.2       17 UNK         0.5000 
     98 O          -4.5335  -20.4871  -52.9099 O.2       17 UNK        -0.5000 
     99 N          -2.4761  -21.3711  -52.4644 N.am      18 UNK        -0.5000 
    100 CA        -1.7021  -20.9124  -53.6196 C.3       18 UNK         0.1400 
    101 CB        -1.5525  -19.3781  -53.6044 C.3       18 UNK        -0.1800 
    102 C         -2.2753  -21.4645  -54.9389 C.2       18 UNK         0.5000 
    103 O         -2.6230  -20.6984  -55.8374 O.2       18 UNK        -0.5000 
    104 N         -2.3936  -22.7987  -55.0029 N.am      19 UNK        -0.5000 
    105 CA        -2.9762  -23.5843  -56.0962 C.3       19 UNK         0.1400 
    106 CB        -2.0857  -23.5151  -57.3541 C.3       19 UNK        -0.1800 
    107 C         -4.4476  -23.2054  -56.3680 C.2       19 UNK         0.5000 
    108 O         -4.8369  -22.9845  -57.5161 O.2       19 UNK        -0.5000 
    109 N         -5.2264  -23.1200  -55.2812 N.am      20 UNK        -0.5000 
    110 CA        -6.6485  -22.7807  -55.2026 C.3       20 UNK         0.1400 
    111 CB        -7.5063  -23.8098  -55.9675 C.3       20 UNK        -0.1800 
    112 C         -6.9971  -21.3268  -55.5823 C.2       20 UNK         0.5000 
    113 O         -8.1843  -21.0123  -55.6835 O.2       20 UNK        -0.5000 
    114 N         -5.9954  -20.4464  -55.7348 N.am      21 UNK        -0.5000 
    115 CA        -6.1751  -19.0253  -56.0545 C.3       21 UNK         0.1400 
    116 CB        -4.8081  -18.3721  -56.3002 C.3       21 UNK        -0.1800 
    117 C         -6.9548  -18.2476  -54.9773 C.2       21 UNK         0.5000 
    118 O         -7.7119  -17.3376  -55.3187 O.2       21 UNK        -0.5000 
    119 N         -6.7816  -18.6485  -53.7133 N.am      22 UNK        -0.5000 
    120 CA        -7.5413  -18.1599  -52.5521 C.3       22 UNK         0.1400 
    121 C         -8.4504  -19.2673  -51.9409 C.2       22 UNK         0.5000 
    122 N         -8.7992  -20.3185  -52.6750 N.am      22 UNK        -0.7600 
    123 O         -8.8668  -19.1718  -50.7898 O.2       22 UNK        -0.5000 
    124 C124       -6.6123  -17.4912  -51.5050 C.3       23 UNK        -0.0398 
    125 S125       -5.8632  -15.9521  -52.1432 S.3       23 UNK        -0.2404 
    126 C126       -4.1710  -16.4921  -52.5303 C.3       23 UNK        -0.0205 
    127 H127        1.4493  -16.9916  -49.7847 H         1 UNK         0.0600 
    128 H128        2.0643  -18.4151  -48.9468 H         1 UNK         0.0600 
    129 H129        3.1838  -17.1546  -49.4678 H         1 UNK         0.0600 
    130 H130        1.2309  -15.0081  -48.6273 H         1 UNK         0.3000 
    131 H131        0.7913  -15.2123  -45.7953 H         1 UNK         0.0600 
    132 H132        0.6749  -12.7630  -47.6520 H         1 UNK         0.0800 
    133 H133        0.1701  -12.7676  -45.9859 H         1 UNK         0.0800 
    134 H134       -0.2621  -14.0528  -49.4573 H         1 UNK         0.0800 
    135 H135       -1.7953  -13.2285  -49.5552 H         1 UNK         0.0800 
    136 H136       -2.9101  -14.4232  -51.2969 H         1 UNK         0.1150 
    137 H137       -3.5073  -18.6536  -51.0045 H         1 UNK         0.1150 
    138 H138       -1.0559  -16.6486  -48.1315 H         1 UNK         0.1150 
    139 H139       -1.9506  -18.8699  -47.6823 H         1 UNK         0.0800 
    140 H140       -2.9123  -19.7321  -48.8340 H         1 UNK         0.0800 
    141 H141        1.2420  -20.5110  -47.8715 H         1 UNK         0.0800 
    142 H142       -0.0841  -19.8422  -47.0057 H         1 UNK         0.0800 
    143 H143        0.5096  -22.6914  -47.7301 H         1 UNK         0.0600 
    144 H144        0.2656  -21.2541  -45.3600 H         1 UNK         0.3000 
    145 H145       -0.3514  -23.9367  -43.0654 H         1 UNK         0.0600 
    146 H146        1.6351  -22.7755  -42.1137 H         1 UNK         0.0600 
    147 H147        1.9632  -22.0184  -43.6702 H         1 UNK         0.0600 
    148 H148        2.0703  -23.7626  -43.5001 H         1 UNK         0.0600 
    149 H149       -0.2463  -21.0146  -42.9657 H         1 UNK         0.3000 
    150 H150       -3.7334  -20.5465  -43.0286 H         1 UNK         0.0600 
    151 H151       -3.5483  -21.2082  -40.6542 H         1 UNK         0.0600 
    152 H152       -3.4159  -19.4619  -40.7973 H         1 UNK         0.0600 
    153 H153       -1.9737  -20.4389  -40.5208 H         1 UNK         0.0600 
    154 H154       -1.4305  -18.8937  -42.4079 H         1 UNK         0.3000 
    155 H155       -0.7993  -17.9017  -45.7902 H         1 UNK         0.0600 
    156 H156       -2.7477  -16.5088  -45.1425 H         1 UNK         0.0600 
    157 H157       -1.2579  -15.6574  -44.7735 H         1 UNK         0.0600 
    158 H158       -2.1716  -16.4217  -43.4806 H         1 UNK         0.0600 
    159 H159        0.3062  -16.9683  -43.3722 H         1 UNK         0.3000 
    160 H160        2.4942  -19.5837  -42.5406 H         1 UNK         0.0600 
    161 H161        3.3347  -17.0023  -43.9698 H         1 UNK         0.0600 
    162 H162        3.7866  -18.6264  -44.4679 H         1 UNK         0.0600 
    163 H163        4.3592  -17.9958  -42.9312 H         1 UNK         0.0600 
    164 H164        2.5471  -16.9576  -41.6078 H         1 UNK         0.3000 
    165 H165       -0.3248  -16.4894  -39.8658 H         1 UNK         0.0600 
    166 H166        0.8099  -16.6442  -37.6597 H         1 UNK         0.0600 
    167 H167        0.3833  -18.2460  -38.2373 H         1 UNK         0.0600 
    168 H168        2.0507  -17.6949  -38.3451 H         1 UNK         0.0600 
    169 H169        2.2927  -15.4680  -39.3632 H         1 UNK         0.3000 
    170 H170        2.6013  -13.1741  -40.1508 H         1 UNK         0.0600 
    171 H171        3.8558  -14.8361  -42.4127 H         1 UNK         0.0600 
    172 H172        4.6658  -13.5247  -41.5601 H         1 UNK         0.0600 
    173 H173        4.2198  -14.9847  -40.6968 H         1 UNK         0.0600 
    174 H174        2.4917  -12.9230  -43.0991 H         1 UNK         0.3000 
    175 H175        0.7561  -11.1634  -43.9077 H         1 UNK         0.0600 
    176 H176        1.3236   -8.6974  -42.1763 H         1 UNK         0.0600 
    177 H177        0.6513   -8.6703  -43.8057 H         1 UNK         0.0600 
    178 H178       -0.2538   -9.4061  -42.4931 H         1 UNK         0.0600 
    179 H179        2.7368  -10.8001  -44.8447 H         1 UNK         0.3000 
    180 H180        4.9000   -9.2570  -45.0999 H         1 UNK         0.0600 
    181 H181        6.2868   -8.5776  -43.1648 H         1 UNK         0.0600 
    182 H182        7.2175   -9.5880  -44.2567 H         1 UNK         0.0600 
    183 H183        6.5909  -10.2620  -42.7525 H         1 UNK         0.0600 
    184 H184        5.8517  -11.9506  -44.3837 H         1 UNK         0.3000 
    185 H185        5.4698  -13.2112  -47.3241 H         1 UNK         0.0600 
    186 H186        5.1729  -14.0894  -44.3943 H         1 UNK         0.0600 
    187 H187        5.7751  -15.1033  -45.6976 H         1 UNK         0.0600 
    188 H188        6.6737  -13.6765  -45.2220 H         1 UNK         0.0600 
    189 H189        3.5127  -14.1899  -47.7007 H         1 UNK         0.3000 
    190 H190       -2.4877  -21.6922  -46.1209 H         1 UNK         0.3000 
    191 H191       -4.3805  -22.3304  -48.0538 H         1 UNK         0.0600 
    192 H192       -4.8757  -21.2051  -45.8996 H         1 UNK         0.0600 
    193 H193       -4.5623  -22.7039  -45.0250 H         1 UNK         0.0600 
    194 H194       -5.9248  -22.5954  -46.1310 H         1 UNK         0.0600 
    195 H195       -2.4297  -24.5807  -46.1703 H         1 UNK         0.3000 
    196 H196       -3.9355  -26.9261  -47.2710 H         1 UNK         0.0600 
    197 H197       -3.8061  -26.9129  -44.8053 H         1 UNK         0.0600 
    198 H198       -2.0574  -26.7126  -44.8585 H         1 UNK         0.0600 
    199 H199       -2.7961  -28.1956  -45.4543 H         1 UNK         0.0600 
    200 H200       -0.6138  -25.7020  -46.5597 H         1 UNK         0.3000 
    201 H201        0.7095  -27.8504  -47.8270 H         1 UNK         0.0600 
    202 H202        1.6699  -26.4880  -45.9801 H         1 UNK         0.0600 
    203 H203        1.7532  -25.0788  -47.0358 H         1 UNK         0.0600 
    204 H204        2.7456  -26.4928  -47.3694 H         1 UNK         0.0600 
    205 H205       -0.2610  -24.6823  -49.1043 H         1 UNK         0.3000 
    206 H206        0.9737  -25.3227  -51.7598 H         1 UNK         0.0600 
    207 H207        1.7989  -23.2081  -50.6587 H         1 UNK         0.0600 
    208 H208        0.1454  -22.6034  -50.6166 H         1 UNK         0.0600 
    209 H209        0.9368  -22.9017  -52.1564 H         1 UNK         0.0600 
    210 H210       -1.7773  -25.8748  -50.2032 H         1 UNK         0.3000 
    211 H211       -3.9574  -26.0354  -50.5637 H         1 UNK         0.0600 
    212 H212       -3.1807  -26.1810  -53.5291 H         1 UNK         0.0600 
    213 H213       -4.6712  -26.7823  -52.8152 H         1 UNK         0.0600 
    214 H214       -3.1395  -27.5312  -52.3962 H         1 UNK         0.0600 
    215 H215       -3.1713  -23.4369  -50.1083 H         1 UNK         0.3000 
    216 H216       -3.8336  -21.3313  -50.1010 H         1 UNK         0.0600 
    217 H217       -6.1231  -20.6942  -50.6430 H         1 UNK         0.0600 
    218 H218       -6.1647  -22.2678  -49.8663 H         1 UNK         0.0600 
    219 H219       -6.3711  -22.1382  -51.6118 H         1 UNK         0.0600 
    220 H220       -1.9748  -21.9781  -51.8324 H         1 UNK         0.3000 
    221 H221       -0.7039  -21.3395  -53.5132 H         1 UNK         0.0600 
    222 H222       -2.5097  -18.8774  -53.7365 H         1 UNK         0.0600 
    223 H223       -1.1212  -19.0336  -52.6643 H         1 UNK         0.0600 
    224 H224       -0.8958  -19.0428  -54.4075 H         1 UNK         0.0600 
    225 H225       -2.0676  -23.3405  -54.2030 H         1 UNK         0.3000 
    226 H226       -2.9851  -24.6208  -55.7559 H         1 UNK         0.0600 
    227 H227       -1.0616  -23.8117  -57.1278 H         1 UNK         0.0600 
    228 H228       -2.4541  -24.1874  -58.1298 H         1 UNK         0.0600 
    229 H229       -2.0581  -22.5110  -57.7785 H         1 UNK         0.0600 
    230 H230       -4.8160  -23.3465  -54.3782 H         1 UNK         0.3000 
    231 H231       -6.9055  -22.8700  -54.1463 H         1 UNK         0.0600 
    232 H232       -8.5682  -23.6607  -55.7684 H         1 UNK         0.0600 
    233 H233       -7.2626  -24.8282  -55.6646 H         1 UNK         0.0600 
    234 H234       -7.3650  -23.7357  -57.0459 H         1 UNK         0.0600 
    235 H235       -5.0441  -20.7637  -55.5988 H         1 UNK         0.3000 
    236 H236       -6.7497  -18.9675  -56.9811 H         1 UNK         0.0600 
    237 H237       -4.1750  -18.4271  -55.4148 H         1 UNK         0.0600 
    238 H238       -4.2808  -18.8575  -57.1215 H         1 UNK         0.0600 
    239 H239       -4.9177  -17.3187  -56.5609 H         1 UNK         0.0600 
    240 H240       -6.1184  -19.3957  -53.5266 H         1 UNK         0.3000 
    241 H241       -8.2505  -17.3969  -52.8769 H         1 UNK         0.0600 
    242 H242       -9.3981  -21.0208  -52.2711 H         1 UNK         0.3800 
    243 H243       -8.5343  -20.3840  -53.6489 H         1 UNK         0.3800 
    244 H244       -7.1719  -17.2167  -50.6096 H         1 UNK         0.0800 
    245 H245       -5.8411  -18.1877  -51.1772 H         1 UNK         0.0800 
    246 H246       -3.7366  -15.8030  -53.2557 H         1 UNK         0.0800 
    247 H247       -4.2040  -17.4667  -53.0179 H         1 UNK         0.0800 
@<TRIPOS>BOND
     1    1    2 1    
     2    1  127 1    
     3    1  128 1    
     4    1  129 1    
     5    2    3 2    
     6    2    4 am   BACKBONE|DICT|INTERRES
     7    4    5 1    
     8    4  130 1    
     9    5    6 1    
    10    5   65 1    
    11    5  131 1    
    12    6    7 1    
    13    6  132 1    
    14    6  133 1    
    15    7    8 1    
    16    8    9 1    
    17    8  134 1    
    18    8  135 1    
    19    9   10 ar   
    20    9   14 ar   
    21   10   11 ar   
    22   10  136 1    
    23   11   12 ar   
    24   11  126 1    
    25   12   13 ar   
    26   12  137 1    
    27   13   14 ar   
    28   13   15 1    
    29   14  138 1    
    30   15   16 1    
    31   15  139 1    
    32   15  140 1    
    33   16   17 1    
    34   17   18 1    
    35   17  141 1    
    36   17  142 1    
    37   18   19 1    
    38   18   67 1    
    39   18  143 1    
    40   19   20 am   BACKBONE|DICT|INTERRES
    41   19  144 1    
    42   20   21 2    
    43   20   22 1    
    44   22   23 1    
    45   22   24 1    
    46   22  145 1    
    47   23  146 1    
    48   23  147 1    
    49   23  148 1    
    50   24   25 am   BACKBONE|DICT|INTERRES
    51   24  149 1    
    52   25   26 2    
    53   25   27 1    
    54   27   28 1    
    55   27   29 1    
    56   27  150 1    
    57   28  151 1    
    58   28  152 1    
    59   28  153 1    
    60   29   30 am   BACKBONE|DICT|INTERRES
    61   29  154 1    
    62   30   31 2    
    63   30   32 1    
    64   32   33 1    
    65   32   34 1    
    66   32  155 1    
    67   33  156 1    
    68   33  157 1    
    69   33  158 1    
    70   34   35 am   BACKBONE|DICT|INTERRES
    71   34  159 1    
    72   35   36 2    
    73   35   37 1    
    74   37   38 1    
    75   37   39 1    
    76   37  160 1    
    77   38  161 1    
    78   38  162 1    
    79   38  163 1    
    80   39   40 am   BACKBONE|DICT|INTERRES
    81   39  164 1    
    82   40   41 2    
    83   40   42 1    
    84   42   43 1    
    85   42   44 1    
    86   42  165 1    
    87   43  166 1    
    88   43  167 1    
    89   43  168 1    
    90   44   45 am   BACKBONE|DICT|INTERRES
    91   44  169 1    
    92   45   46 2    
    93   45   47 1    
    94   47   48 1    
    95   47   49 1    
    96   47  170 1    
    97   48  171 1    
    98   48  172 1    
    99   48  173 1    
   100   49   50 am   BACKBONE|DICT|INTERRES
   101   49  174 1    
   102   50   51 2    
   103   50   52 1    
   104   52   53 1    
   105   52   54 1    
   106   52  175 1    
   107   53  176 1    
   108   53  177 1    
   109   53  178 1    
   110   54   55 am   BACKBONE|DICT|INTERRES
   111   54  179 1    
   112   55   56 2    
   113   55   57 1    
   114   57   58 1    
   115   57   59 1    
   116   57  180 1    
   117   58  181 1    
   118   58  182 1    
   119   58  183 1    
   120   59   60 am   BACKBONE|DICT|INTERRES
   121   59  184 1    
   122   60   61 2    
   123   60   62 1    
   124   62   63 1    
   125   62   64 1    
   126   62  185 1    
   127   63  186 1    
   128   63  187 1    
   129   63  188 1    
   130   64   65 am   BACKBONE|DICT|INTERRES
   131   64  189 1    
   132   65   66 2    
   133   67   68 2    
   134   67   69 am   BACKBONE|DICT|INTERRES
   135   69   70 1    
   136   69  190 1    
   137   70   71 1    
   138   70   72 1    
   139   70  191 1    
   140   71  192 1    
   141   71  193 1    
   142   71  194 1    
   143   72   73 2    
   144   72   74 am   BACKBONE|DICT|INTERRES
   145   74   75 1    
   146   74  195 1    
   147   75   76 1    
   148   75   77 1    
   149   75  196 1    
   150   76  197 1    
   151   76  198 1    
   152   76  199 1    
   153   77   78 2    
   154   77   79 am   BACKBONE|DICT|INTERRES
   155   79   80 1    
   156   79  200 1    
   157   80   81 1    
   158   80   82 1    
   159   80  201 1    
   160   81  202 1    
   161   81  203 1    
   162   81  204 1    
   163   82   83 2    
   164   82   84 am   BACKBONE|DICT|INTERRES
   165   84   85 1    
   166   84  205 1    
   167   85   86 1    
   168   85   87 1    
   169   85  206 1    
   170   86  207 1    
   171   86  208 1    
   172   86  209 1    
   173   87   88 2    
   174   87   89 am   BACKBONE|DICT|INTERRES
   175   89   90 1    
   176   89  210 1    
   177   90   91 1    
   178   90   92 1    
   179   90  211 1    
   180   91  212 1    
   181   91  213 1    
   182   91  214 1    
   183   92   93 2    
   184   92   94 am   BACKBONE|DICT|INTERRES
   185   94   95 1    
   186   94  215 1    
   187   95   96 1    
   188   95   97 1    
   189   95  216 1    
   190   96  217 1    
   191   96  218 1    
   192   96  219 1    
   193   97   98 2    
   194   97   99 am   BACKBONE|DICT|INTERRES
   195   99  100 1    
   196   99  220 1    
   197  100  101 1    
   198  100  102 1    
   199  100  221 1    
   200  101  222 1    
   201  101  223 1    
   202  101  224 1    
   203  102  103 2    
   204  102  104 am   BACKBONE|DICT|INTERRES
   205  104  105 1    
   206  104  225 1    
   207  105  106 1    
   208  105  107 1    
   209  105  226 1    
   210  106  227 1    
   211  106  228 1    
   212  106  229 1    
   213  107  108 2    
   214  107  109 am   BACKBONE|DICT|INTERRES
   215  109  110 1    
   216  109  230 1    
   217  110  111 1    
   218  110  112 1    
   219  110  231 1    
   220  111  232 1    
   221  111  233 1    
   222  111  234 1    
   223  112  113 2    
   224  112  114 am   BACKBONE|DICT|INTERRES
   225  114  115 1    
   226  114  235 1    
   227  115  116 1    
   228  115  117 1    
   229  115  236 1    
   230  116  237 1    
   231  116  238 1    
   232  116  239 1    
   233  117  118 2    
   234  117  119 am   BACKBONE|DICT|INTERRES
   235  119  120 1    
   236  119  240 1    
   237  120  121 1    
   238  120  124 1    
   239  120  241 1    
   240  121  122 am   BACKBONE|DICT|INTERRES
   241  121  123 2    
   242  122  242 1    
   243  122  243 1    
   244  124  125 1    
   245  124  244 1    
   246  124  245 1    
   247  125  126 1    
   248  126  246 1    
   249  126  247 1    
@<TRIPOS>SUBSTRUCTURE
     1 UNK         1 GROUP             0       ****    0 ROOT    
