@<TRIPOS>MOLECULE
3R540
247   249    1
SMALL
USER_CHARGES


@<TRIPOS>ATOM
      1 CA         -0.9316  -16.4096  -49.2565 C.3       0 UNK        -0.1800 
      2 C          -1.8376  -15.6853  -48.2760 C.2       0 UNK         0.5000 
      3 O          -1.4368  -15.4245  -47.1434 O.2       0 UNK        -0.5000 
      4 N          -3.0594  -15.3630  -48.7123 N.am      1 UNK        -0.5000 
      5 CA         -4.0789  -14.6629  -47.9188 C.3       1 UNK         0.1400 
      6 C6         -5.5056  -14.9513  -48.4461 C.3       23 UNK        -0.0398 
      7 S7         -5.8657  -16.7399  -48.4567 S.3       23 UNK        -0.2404 
      8 C8         -6.6536  -16.9392  -46.8299 C.3       23 UNK        -0.0205 
      9 C9         -6.5077  -18.3625  -46.3158 C.ar      23 UNK        -0.0193 
     10 C10        -7.1505  -19.4160  -46.9701 C.ar      23 UNK        -0.1150 
     11 C11        -7.0204  -20.7341  -46.5115 C.ar      23 UNK        -0.0193 
     12 C12        -6.2628  -20.9760  -45.3608 C.ar      23 UNK        -0.1150 
     13 C13        -5.6286  -19.9285  -44.6862 C.ar      23 UNK        -0.0193 
     14 C14        -5.7440  -18.6258  -45.1764 C.ar      23 UNK        -0.1150 
     15 C15        -4.8494  -20.1875  -43.4061 C.3       23 UNK        -0.0205 
     16 S16        -3.0661  -20.3517  -43.7136 S.3       23 UNK        -0.2404 
     17 C17        -2.9259  -22.0964  -44.2245 C.3       23 UNK        -0.0398 
     18 CA         -2.0072  -22.2774  -45.4531 C.3       11 UNK         0.1400 
     19 N          -0.6401  -21.7935  -45.2145 N.am      11 UNK        -0.5000 
     20 C           0.3386  -21.7550  -46.1290 C.2       10 UNK         0.5000 
     21 O           0.1889  -22.0957  -47.3016 O.2       10 UNK        -0.5000 
     22 CA          1.7271  -21.3035  -45.6557 C.3       10 UNK         0.1400 
     23 CB          1.8201  -19.7701  -45.6024 C.3       10 UNK        -0.1800 
     24 N           2.0431  -21.8798  -44.3508 N.am      10 UNK        -0.5000 
     25 C           2.4563  -23.1427  -44.1693 C.2       9 UNK         0.5000 
     26 O           2.6949  -23.9202  -45.0934 O.2       9 UNK        -0.5000 
     27 CA          2.6088  -23.6310  -42.7149 C.3       9 UNK         0.1400 
     28 CB          4.0366  -23.3755  -42.2099 C.3       9 UNK        -0.1800 
     29 N           1.6569  -23.0113  -41.7911 N.am      9 UNK        -0.5000 
     30 C           0.3311  -23.2059  -41.8184 C.2       8 UNK         0.5000 
     31 O          -0.2331  -23.9590  -42.6117 O.2       8 UNK        -0.5000 
     32 CA         -0.5116  -22.3698  -40.8338 C.3       8 UNK         0.1400 
     33 CB         -0.6312  -23.0908  -39.4833 C.3       8 UNK        -0.1800 
     34 N          -0.0159  -21.0046  -40.6140 N.am      8 UNK        -0.5000 
     35 C           0.2122  -20.1055  -41.5807 C.2       7 UNK         0.5000 
     36 O           0.1244  -20.3642  -42.7823 O.2       7 UNK        -0.5000 
     37 CA          0.6757  -18.7073  -41.1379 C.3       7 UNK         0.1400 
     38 CB          2.1889  -18.7085  -40.8703 C.3       7 UNK        -0.1800 
     39 N           0.3885  -17.7105  -42.1678 N.am      7 UNK        -0.5000 
     40 C          -0.8282  -17.2273  -42.4546 C.2       6 UNK         0.5000 
     41 O          -1.8373  -17.4888  -41.7968 O.2       6 UNK        -0.5000 
     42 CA         -0.9089  -16.2814  -43.6749 C.3       6 UNK         0.1400 
     43 CB         -2.2122  -15.4550  -43.7146 C.3       6 UNK        -0.1800 
     44 N           0.2714  -15.4136  -43.8015 N.am      6 UNK        -0.5000 
     45 C           0.7074  -14.5067  -42.9118 C.2       5 UNK         0.5000 
     46 O           0.1313  -14.2468  -41.8547 O.2       5 UNK        -0.5000 
     47 CA          2.0308  -13.7815  -43.2330 C.3       5 UNK         0.1400 
     48 CB          3.1739  -14.3727  -42.3918 C.3       5 UNK        -0.1800 
     49 N           2.4222  -13.8206  -44.6455 N.am      5 UNK        -0.5000 
     50 C           1.8022  -13.1559  -45.6285 C.2       4 UNK         0.5000 
     51 O           0.7897  -12.4720  -45.4553 O.2       4 UNK        -0.5000 
     52 CA          2.4241  -13.2982  -47.0330 C.3       4 UNK         0.1400 
     53 CB          2.1805  -14.7051  -47.6024 C.3       4 UNK        -0.1800 
     54 N           1.8716  -12.3150  -47.9617 N.am      4 UNK        -0.5000 
     55 C           2.1805  -11.0143  -47.9874 C.2       3 UNK         0.5000 
     56 O           3.0926  -10.5181  -47.3242 O.2       3 UNK        -0.5000 
     57 CA          1.3102  -10.1031  -48.8781 C.3       3 UNK         0.1400 
     58 CB          1.7303  -10.1933  -50.3582 C.3       3 UNK        -0.1800 
     59 N          -0.1392  -10.2980  -48.7071 N.am      3 UNK        -0.5000 
     60 C          -0.8875  -11.3593  -49.0366 C.2       2 UNK         0.5000 
     61 O          -0.4476  -12.3720  -49.5911 O.2       2 UNK        -0.5000 
     62 CA         -2.3781  -11.2806  -48.6747 C.3       2 UNK         0.1400 
     63 CB         -3.1591  -10.4325  -49.6921 C.3       2 UNK        -0.1800 
     64 N          -2.9031  -12.6383  -48.6694 N.am      2 UNK        -0.5000 
     65 C          -3.8150  -13.1421  -47.8319 C.2       1 UNK         0.5000 
     66 O          -4.4324  -12.4643  -47.0094 O.2       1 UNK        -0.5000 
     67 C          -2.0227  -23.7470  -45.9220 C.2       11 UNK         0.5000 
     68 O          -2.7416  -24.0751  -46.8660 O.2       11 UNK        -0.5000 
     69 N          -1.1789  -24.5841  -45.2996 N.am      12 UNK        -0.5000 
     70 CA         -0.9486  -25.9853  -45.6619 C.3       12 UNK         0.1400 
     71 CB         -0.0415  -26.6317  -44.6041 C.3       12 UNK        -0.1800 
     72 C          -0.3508  -26.1790  -47.0712 C.2       12 UNK         0.5000 
     73 O          -0.5476  -27.2372  -47.6683 O.2       12 UNK        -0.5000 
     74 N           0.3298  -25.1507  -47.5941 N.am      13 UNK        -0.5000 
     75 CA          0.8766  -25.0871  -48.9491 C.3       13 UNK         0.1400 
     76 CB          2.2447  -24.3815  -48.8981 C.3       13 UNK        -0.1800 
     77 C          -0.1047  -24.3944  -49.9190 C.2       13 UNK         0.5000 
     78 O           0.3310  -23.6833  -50.8246 O.2       13 UNK        -0.5000 
     79 N          -1.4148  -24.5840  -49.7022 N.am      14 UNK        -0.5000 
     80 CA         -2.5323  -24.0305  -50.4779 C.3       14 UNK         0.1400 
     81 CB         -2.5530  -24.6243  -51.9026 C.3       14 UNK        -0.1800 
     82 C          -2.5701  -22.4881  -50.4807 C.2       14 UNK         0.5000 
     83 O          -2.9955  -21.8853  -51.4668 O.2       14 UNK        -0.5000 
     84 N          -2.1169  -21.8840  -49.3746 N.am      15 UNK        -0.5000 
     85 CA         -1.8795  -20.4547  -49.1800 C.3       15 UNK         0.1400 
     86 CB         -3.1497  -19.6160  -49.4225 C.3       15 UNK        -0.1800 
     87 C          -0.6519  -19.9885  -49.9880 C.2       15 UNK         0.5000 
     88 O          -0.7914  -19.3756  -51.0486 O.2       15 UNK        -0.5000 
     89 N           0.5257  -20.2999  -49.4279 N.am      16 UNK        -0.5000 
     90 CA          1.8742  -19.8534  -49.7951 C.3       16 UNK         0.1400 
     91 CB          2.0217  -18.3287  -49.6143 C.3       16 UNK        -0.1800 
     92 C           2.3303  -20.3380  -51.1820 C.2       16 UNK         0.5000 
     93 O           2.6770  -19.5266  -52.0402 O.2       16 UNK        -0.5000 
     94 N           2.3280  -21.6652  -51.3633 N.am      17 UNK        -0.5000 
     95 CA          2.6810  -22.3883  -52.5915 C.3       17 UNK         0.1400 
     96 CB          4.1618  -22.1734  -52.9702 C.3       17 UNK        -0.1800 
     97 C           1.6963  -22.0689  -53.7321 C.2       17 UNK         0.5000 
     98 O           2.1080  -21.8216  -54.8672 O.2       17 UNK        -0.5000 
     99 N           0.4043  -22.0690  -53.3757 N.am      18 UNK        -0.5000 
    100 CA        -0.7476  -21.7289  -54.2100 C.3       18 UNK         0.1400 
    101 CB        -0.9759  -22.8029  -55.2938 C.3       18 UNK        -0.1800 
    102 C         -0.6917  -20.2929  -54.7737 C.2       18 UNK         0.5000 
    103 O         -1.0030  -20.0820  -55.9471 O.2       18 UNK        -0.5000 
    104 N         -0.3116  -19.3236  -53.9271 N.am      19 UNK        -0.5000 
    105 CA        -0.3140  -17.8987  -54.2649 C.3       19 UNK         0.1400 
    106 CB         0.5341  -17.1045  -53.2597 C.3       19 UNK        -0.1800 
    107 C         -1.7489  -17.3534  -54.3238 C.2       19 UNK         0.5000 
    108 O         -2.1221  -16.7328  -55.3201 O.2       19 UNK        -0.5000 
    109 N         -2.5349  -17.6375  -53.2748 N.am      20 UNK        -0.5000 
    110 CA        -3.9791  -17.3824  -53.2546 C.3       20 UNK         0.1400 
    111 CB        -4.4060  -16.9077  -51.8581 C.3       20 UNK        -0.1800 
    112 C         -4.7884  -18.6121  -53.7158 C.2       20 UNK         0.5000 
    113 O         -5.9526  -18.4533  -54.0836 O.2       20 UNK        -0.5000 
    114 N         -4.1517  -19.7957  -53.7228 N.am      21 UNK        -0.5000 
    115 CA        -4.6570  -21.0809  -54.2215 C.3       21 UNK         0.1400 
    116 CB        -4.8298  -21.0366  -55.7538 C.3       21 UNK        -0.1800 
    117 C         -5.9187  -21.5574  -53.4759 C.2       21 UNK         0.5000 
    118 O         -6.9338  -21.8732  -54.1005 O.2       21 UNK        -0.5000 
    119 N         -5.8270  -21.5855  -52.1420 N.am      22 UNK        -0.5000 
    120 CA        -6.8778  -22.0922  -51.2531 C.3       22 UNK         0.1400 
    121 C         -6.9173  -23.6454  -51.2572 C.2       22 UNK         0.5000 
    122 N         -8.0707  -24.2500  -51.5078 N.am      22 UNK        -0.7600 
    123 O         -5.9136  -24.3057  -51.0043 O.2       22 UNK        -0.5000 
    124 C124       -6.7262  -21.5182  -49.8225 C.3       23 UNK        -0.0398 
    125 S125       -8.2968  -21.6181  -48.8958 S.3       23 UNK        -0.2404 
    126 C126       -7.7070  -21.9190  -47.1941 C.3       23 UNK        -0.0205 
    127 H127       -1.4665  -16.7229  -50.1535 H         1 UNK         0.0600 
    128 H128       -0.5211  -17.2967  -48.7781 H         1 UNK         0.0600 
    129 H129       -0.1073  -15.7648  -49.5600 H         1 UNK         0.0600 
    130 H130       -3.3414  -15.6257  -49.6445 H         1 UNK         0.3000 
    131 H131       -4.0252  -15.0398  -46.8948 H         1 UNK         0.0600 
    132 H132       -6.2581  -14.4379  -47.8446 H         1 UNK         0.0800 
    133 H133       -5.6214  -14.5747  -49.4639 H         1 UNK         0.0800 
    134 H134       -6.2131  -16.2371  -46.1204 H         1 UNK         0.0800 
    135 H135       -7.7110  -16.6821  -46.9057 H         1 UNK         0.0800 
    136 H136       -7.7472  -19.1908  -47.8416 H         1 UNK         0.1150 
    137 H137       -6.1806  -21.9843  -44.9805 H         1 UNK         0.1150 
    138 H138       -5.2493  -17.8158  -44.6586 H         1 UNK         0.1150 
    139 H139       -5.0040  -19.3569  -42.7157 H         1 UNK         0.0800 
    140 H140       -5.2244  -21.0753  -42.8946 H         1 UNK         0.0800 
    141 H141       -3.9207  -22.4865  -44.4416 H         1 UNK         0.0800 
    142 H142       -2.5553  -22.6727  -43.3766 H         1 UNK         0.0800 
    143 H143       -2.4229  -21.6795  -46.2664 H         1 UNK         0.0600 
    144 H144       -0.4456  -21.4310  -44.2847 H         1 UNK         0.3000 
    145 H145        2.4612  -21.6559  -46.3836 H         1 UNK         0.0600 
    146 H146        2.8051  -19.4465  -45.2659 H         1 UNK         0.0600 
    147 H147        1.6565  -19.3391  -46.5899 H         1 UNK         0.0600 
    148 H148        1.0778  -19.3334  -44.9349 H         1 UNK         0.0600 
    149 H149        1.7734  -21.3310  -43.5437 H         1 UNK         0.3000 
    150 H150        2.4314  -24.7086  -42.7093 H         1 UNK         0.0600 
    151 H151        4.7721  -23.8449  -42.8646 H         1 UNK         0.0600 
    152 H152        4.1820  -23.7885  -41.2115 H         1 UNK         0.0600 
    153 H153        4.2651  -22.3097  -42.1700 H         1 UNK         0.0600 
    154 H154        2.0330  -22.3663  -41.1121 H         1 UNK         0.3000 
    155 H155       -1.5131  -22.2813  -41.2582 H         1 UNK         0.0600 
    156 H156       -1.0176  -24.1027  -39.6133 H         1 UNK         0.0600 
    157 H157       -1.3156  -22.5675  -38.8153 H         1 UNK         0.0600 
    158 H158        0.3343  -23.1697  -38.9819 H         1 UNK         0.0600 
    159 H159        0.1037  -20.7242  -39.6513 H         1 UNK         0.3000 
    160 H160        0.1493  -18.4323  -40.2216 H         1 UNK         0.0600 
    161 H161        2.7556  -18.9918  -41.7585 H         1 UNK         0.0600 
    162 H162        2.4479  -19.4115  -40.0776 H         1 UNK         0.0600 
    163 H163        2.5334  -17.7237  -40.5534 H         1 UNK         0.0600 
    164 H164        1.1552  -17.4562  -42.7710 H         1 UNK         0.3000 
    165 H165       -0.9076  -16.9260  -44.5554 H         1 UNK         0.0600 
    166 H166       -2.2341  -14.7944  -44.5813 H         1 UNK         0.0600 
    167 H167       -3.0839  -16.1069  -43.7829 H         1 UNK         0.0600 
    168 H168       -2.3313  -14.8406  -42.8220 H         1 UNK         0.0600 
    169 H169        0.8100  -15.5306  -44.6473 H         1 UNK         0.3000 
    170 H170        1.9035  -12.7353  -42.9464 H         1 UNK         0.0600 
    171 H171        2.9391  -14.3319  -41.3272 H         1 UNK         0.0600 
    172 H172        3.3625  -15.4167  -42.6451 H         1 UNK         0.0600 
    173 H173        4.1007  -13.8176  -42.5383 H         1 UNK         0.0600 
    174 H174        3.2462  -14.3616  -44.8652 H         1 UNK         0.3000 
    175 H175        3.5009  -13.1356  -46.9516 H         1 UNK         0.0600 
    176 H176        2.6516  -15.4715  -46.9863 H         1 UNK         0.0600 
    177 H177        1.1172  -14.9329  -47.6511 H         1 UNK         0.0600 
    178 H178        2.5899  -14.8030  -48.6081 H         1 UNK         0.0600 
    179 H179        1.0771  -12.6097  -48.5224 H         1 UNK         0.3000 
    180 H180        1.5035   -9.0794  -48.5533 H         1 UNK         0.0600 
    181 H181        1.6046  -11.1982  -50.7617 H         1 UNK         0.0600 
    182 H182        2.7810   -9.9266  -50.4783 H         1 UNK         0.0600 
    183 H183        1.1487   -9.5086  -50.9753 H         1 UNK         0.0600 
    184 H184       -0.6040   -9.5352  -48.2341 H         1 UNK         0.3000 
    185 H185       -2.4688  -10.8423  -47.6785 H         1 UNK         0.0600 
    186 H186       -2.7887   -9.4070  -49.7160 H         1 UNK         0.0600 
    187 H187       -3.0737  -10.8374  -50.7014 H         1 UNK         0.0600 
    188 H188       -4.2182  -10.3893  -49.4376 H         1 UNK         0.0600 
    189 H189       -2.3843  -13.2764  -49.2597 H         1 UNK         0.3000 
    190 H190       -0.6661  -24.2433  -44.4908 H         1 UNK         0.3000 
    191 H191       -1.9136  -26.4955  -45.6443 H         1 UNK         0.0600 
    192 H192        0.9276  -26.1344  -44.5496 H         1 UNK         0.0600 
    193 H193       -0.4965  -26.5878  -43.6144 H         1 UNK         0.0600 
    194 H194        0.1398  -27.6831  -44.8311 H         1 UNK         0.0600 
    195 H195        0.4050  -24.2989  -47.0535 H         1 UNK         0.3000 
    196 H196        1.0395  -26.0972  -49.3297 H         1 UNK         0.0600 
    197 H197        2.9127  -24.8724  -48.1901 H         1 UNK         0.0600 
    198 H198        2.1531  -23.3380  -48.5970 H         1 UNK         0.0600 
    199 H199        2.7357  -24.4040  -49.8715 H         1 UNK         0.0600 
    200 H200       -1.6802  -25.1399  -48.9007 H         1 UNK         0.3000 
    201 H201       -3.4408  -24.3523  -49.9681 H         1 UNK         0.0600 
    202 H202       -3.4478  -24.3141  -52.4435 H         1 UNK         0.0600 
    203 H203       -2.5553  -25.7137  -51.8747 H         1 UNK         0.0600 
    204 H204       -1.6910  -24.3049  -52.4879 H         1 UNK         0.0600 
    205 H205       -1.7583  -22.4829  -48.6424 H         1 UNK         0.3000 
    206 H206       -1.6324  -20.3237  -48.1263 H         1 UNK         0.0600 
    207 H207       -3.9774  -19.9674  -48.8062 H         1 UNK         0.0600 
    208 H208       -3.4706  -19.6470  -50.4616 H         1 UNK         0.0600 
    209 H209       -2.9786  -18.5716  -49.1634 H         1 UNK         0.0600 
    210 H210        0.4845  -20.9140  -48.6173 H         1 UNK         0.3000 
    211 H211        2.5490  -20.3236  -49.0780 H         1 UNK         0.0600 
    212 H212        1.7576  -18.0181  -48.6042 H         1 UNK         0.0600 
    213 H213        3.0514  -18.0138  -49.7868 H         1 UNK         0.0600 
    214 H214        1.3948  -17.7771  -50.3135 H         1 UNK         0.0600 
    215 H215        1.9203  -22.2445  -50.6403 H         1 UNK         0.3000 
    216 H216        2.5562  -23.4494  -52.3711 H         1 UNK         0.0600 
    217 H217        4.4472  -22.8211  -53.7997 H         1 UNK         0.0600 
    218 H218        4.3615  -21.1466  -53.2775 H         1 UNK         0.0600 
    219 H219        4.8201  -22.4083  -52.1339 H         1 UNK         0.0600 
    220 H220        0.1959  -22.3290  -52.4172 H         1 UNK         0.3000 
    221 H221       -1.6081  -21.7528  -53.5471 H         1 UNK         0.0600 
    222 H222       -0.1721  -22.8120  -56.0304 H         1 UNK         0.0600 
    223 H223       -1.0402  -23.7987  -54.8559 H         1 UNK         0.0600 
    224 H224       -1.9090  -22.6251  -55.8296 H         1 UNK         0.0600 
    225 H225       -0.1105  -19.5554  -52.9597 H         1 UNK         0.3000 
    226 H226        0.1368  -17.7760  -55.2521 H         1 UNK         0.0600 
    227 H227        1.5685  -17.4460  -53.2611 H         1 UNK         0.0600 
    228 H228        0.5444  -16.0437  -53.5125 H         1 UNK         0.0600 
    229 H229        0.1512  -17.1928  -52.2436 H         1 UNK         0.0600 
    230 H230       -2.1341  -18.1367  -52.4898 H         1 UNK         0.3000 
    231 H231       -4.2190  -16.5739  -53.9484 H         1 UNK         0.0600 
    232 H232       -5.4746  -16.6907  -51.8301 H         1 UNK         0.0600 
    233 H233       -3.8838  -15.9921  -51.5823 H         1 UNK         0.0600 
    234 H234       -4.2088  -17.6523  -51.0924 H         1 UNK         0.0600 
    235 H235       -3.2175  -19.8188  -53.3438 H         1 UNK         0.3000 
    236 H236       -3.8897  -21.8251  -54.0100 H         1 UNK         0.0600 
    237 H237       -3.9037  -20.7374  -56.2449 H         1 UNK         0.0600 
    238 H238       -5.1009  -22.0182  -56.1441 H         1 UNK         0.0600 
    239 H239       -5.6102  -20.3374  -56.0555 H         1 UNK         0.0600 
    240 H240       -4.9172  -21.4127  -51.7270 H         1 UNK         0.3000 
    241 H241       -7.8264  -21.7246  -51.6511 H         1 UNK         0.0600 
    242 H242       -8.9081  -23.7252  -51.7081 H         1 UNK         0.3800 
    243 H243       -8.1073  -25.2573  -51.5007 H         1 UNK         0.3800 
    244 H244       -5.9229  -22.0185  -49.2781 H         1 UNK         0.0800 
    245 H245       -6.4483  -20.4639  -49.8679 H         1 UNK         0.0800 
    246 H246       -7.0352  -22.7789  -47.2049 H         1 UNK         0.0800 
    247 H247       -8.5648  -22.2078  -46.5856 H         1 UNK         0.0800 
@<TRIPOS>BOND
     1    1    2 1    
     2    1  127 1    
     3    1  128 1    
     4    1  129 1    
     5    2    3 2    
     6    2    4 am   BACKBONE|DICT|INTERRES
     7    4    5 1    
     8    4  130 1    
     9    5    6 1    
    10    5   65 1    
    11    5  131 1    
    12    6    7 1    
    13    6  132 1    
    14    6  133 1    
    15    7    8 1    
    16    8    9 1    
    17    8  134 1    
    18    8  135 1    
    19    9   10 ar   
    20    9   14 ar   
    21   10   11 ar   
    22   10  136 1    
    23   11   12 ar   
    24   11  126 1    
    25   12   13 ar   
    26   12  137 1    
    27   13   14 ar   
    28   13   15 1    
    29   14  138 1    
    30   15   16 1    
    31   15  139 1    
    32   15  140 1    
    33   16   17 1    
    34   17   18 1    
    35   17  141 1    
    36   17  142 1    
    37   18   19 1    
    38   18   67 1    
    39   18  143 1    
    40   19   20 am   BACKBONE|DICT|INTERRES
    41   19  144 1    
    42   20   21 2    
    43   20   22 1    
    44   22   23 1    
    45   22   24 1    
    46   22  145 1    
    47   23  146 1    
    48   23  147 1    
    49   23  148 1    
    50   24   25 am   BACKBONE|DICT|INTERRES
    51   24  149 1    
    52   25   26 2    
    53   25   27 1    
    54   27   28 1    
    55   27   29 1    
    56   27  150 1    
    57   28  151 1    
    58   28  152 1    
    59   28  153 1    
    60   29   30 am   BACKBONE|DICT|INTERRES
    61   29  154 1    
    62   30   31 2    
    63   30   32 1    
    64   32   33 1    
    65   32   34 1    
    66   32  155 1    
    67   33  156 1    
    68   33  157 1    
    69   33  158 1    
    70   34   35 am   BACKBONE|DICT|INTERRES
    71   34  159 1    
    72   35   36 2    
    73   35   37 1    
    74   37   38 1    
    75   37   39 1    
    76   37  160 1    
    77   38  161 1    
    78   38  162 1    
    79   38  163 1    
    80   39   40 am   BACKBONE|DICT|INTERRES
    81   39  164 1    
    82   40   41 2    
    83   40   42 1    
    84   42   43 1    
    85   42   44 1    
    86   42  165 1    
    87   43  166 1    
    88   43  167 1    
    89   43  168 1    
    90   44   45 am   BACKBONE|DICT|INTERRES
    91   44  169 1    
    92   45   46 2    
    93   45   47 1    
    94   47   48 1    
    95   47   49 1    
    96   47  170 1    
    97   48  171 1    
    98   48  172 1    
    99   48  173 1    
   100   49   50 am   BACKBONE|DICT|INTERRES
   101   49  174 1    
   102   50   51 2    
   103   50   52 1    
   104   52   53 1    
   105   52   54 1    
   106   52  175 1    
   107   53  176 1    
   108   53  177 1    
   109   53  178 1    
   110   54   55 am   BACKBONE|DICT|INTERRES
   111   54  179 1    
   112   55   56 2    
   113   55   57 1    
   114   57   58 1    
   115   57   59 1    
   116   57  180 1    
   117   58  181 1    
   118   58  182 1    
   119   58  183 1    
   120   59   60 am   BACKBONE|DICT|INTERRES
   121   59  184 1    
   122   60   61 2    
   123   60   62 1    
   124   62   63 1    
   125   62   64 1    
   126   62  185 1    
   127   63  186 1    
   128   63  187 1    
   129   63  188 1    
   130   64   65 am   BACKBONE|DICT|INTERRES
   131   64  189 1    
   132   65   66 2    
   133   67   68 2    
   134   67   69 am   BACKBONE|DICT|INTERRES
   135   69   70 1    
   136   69  190 1    
   137   70   71 1    
   138   70   72 1    
   139   70  191 1    
   140   71  192 1    
   141   71  193 1    
   142   71  194 1    
   143   72   73 2    
   144   72   74 am   BACKBONE|DICT|INTERRES
   145   74   75 1    
   146   74  195 1    
   147   75   76 1    
   148   75   77 1    
   149   75  196 1    
   150   76  197 1    
   151   76  198 1    
   152   76  199 1    
   153   77   78 2    
   154   77   79 am   BACKBONE|DICT|INTERRES
   155   79   80 1    
   156   79  200 1    
   157   80   81 1    
   158   80   82 1    
   159   80  201 1    
   160   81  202 1    
   161   81  203 1    
   162   81  204 1    
   163   82   83 2    
   164   82   84 am   BACKBONE|DICT|INTERRES
   165   84   85 1    
   166   84  205 1    
   167   85   86 1    
   168   85   87 1    
   169   85  206 1    
   170   86  207 1    
   171   86  208 1    
   172   86  209 1    
   173   87   88 2    
   174   87   89 am   BACKBONE|DICT|INTERRES
   175   89   90 1    
   176   89  210 1    
   177   90   91 1    
   178   90   92 1    
   179   90  211 1    
   180   91  212 1    
   181   91  213 1    
   182   91  214 1    
   183   92   93 2    
   184   92   94 am   BACKBONE|DICT|INTERRES
   185   94   95 1    
   186   94  215 1    
   187   95   96 1    
   188   95   97 1    
   189   95  216 1    
   190   96  217 1    
   191   96  218 1    
   192   96  219 1    
   193   97   98 2    
   194   97   99 am   BACKBONE|DICT|INTERRES
   195   99  100 1    
   196   99  220 1    
   197  100  101 1    
   198  100  102 1    
   199  100  221 1    
   200  101  222 1    
   201  101  223 1    
   202  101  224 1    
   203  102  103 2    
   204  102  104 am   BACKBONE|DICT|INTERRES
   205  104  105 1    
   206  104  225 1    
   207  105  106 1    
   208  105  107 1    
   209  105  226 1    
   210  106  227 1    
   211  106  228 1    
   212  106  229 1    
   213  107  108 2    
   214  107  109 am   BACKBONE|DICT|INTERRES
   215  109  110 1    
   216  109  230 1    
   217  110  111 1    
   218  110  112 1    
   219  110  231 1    
   220  111  232 1    
   221  111  233 1    
   222  111  234 1    
   223  112  113 2    
   224  112  114 am   BACKBONE|DICT|INTERRES
   225  114  115 1    
   226  114  235 1    
   227  115  116 1    
   228  115  117 1    
   229  115  236 1    
   230  116  237 1    
   231  116  238 1    
   232  116  239 1    
   233  117  118 2    
   234  117  119 am   BACKBONE|DICT|INTERRES
   235  119  120 1    
   236  119  240 1    
   237  120  121 1    
   238  120  124 1    
   239  120  241 1    
   240  121  122 am   BACKBONE|DICT|INTERRES
   241  121  123 2    
   242  122  242 1    
   243  122  243 1    
   244  124  125 1    
   245  124  244 1    
   246  124  245 1    
   247  125  126 1    
   248  126  246 1    
   249  126  247 1    
@<TRIPOS>SUBSTRUCTURE
     1 UNK         1 GROUP             0       ****    0 ROOT    
