@<TRIPOS>MOLECULE
3R540
247   249    1
SMALL
USER_CHARGES


@<TRIPOS>ATOM
      1 CA          6.1883  -16.1299  -44.3610 C.3       0 UNK        -0.1800 
      2 C           4.8677  -15.5957  -44.8940 C.2       0 UNK         0.5000 
      3 O           3.8441  -15.7140  -44.2228 O.2       0 UNK        -0.5000 
      4 N           4.8835  -14.9953  -46.0925 N.am      1 UNK        -0.5000 
      5 CA          3.7026  -14.4632  -46.7903 C.3       1 UNK         0.1400 
      6 C6          4.0356  -14.0743  -48.2557 C.3       23 UNK        -0.0398 
      7 S7          2.6762  -14.4685  -49.4044 S.3       23 UNK        -0.2404 
      8 C8          3.0117  -16.2368  -49.6862 C.3       23 UNK        -0.0205 
      9 C9          1.8767  -16.9342  -50.4211 C.ar      23 UNK        -0.0193 
     10 C10         2.1067  -17.5806  -51.6401 C.ar      23 UNK        -0.1150 
     11 C11         1.0679  -18.2504  -52.2953 C.ar      23 UNK        -0.0193 
     12 C12        -0.2095  -18.2549  -51.7313 C.ar      23 UNK        -0.1150 
     13 C13        -0.4498  -17.6185  -50.5133 C.ar      23 UNK        -0.0193 
     14 C14         0.5983  -16.9678  -49.8583 C.ar      23 UNK        -0.1150 
     15 C15        -1.8408  -17.6304  -49.9026 C.3       23 UNK        -0.0205 
     16 S16        -2.3987  -19.3000  -49.4181 S.3       23 UNK        -0.2404 
     17 C17        -1.0053  -19.9071  -48.4058 C.3       23 UNK        -0.0398 
     18 CA         -0.1411  -20.9329  -49.1896 C.3       11 UNK         0.1400 
     19 N           1.2615  -20.8955  -48.7676 N.am      11 UNK        -0.5000 
     20 C           2.3116  -21.1862  -49.5508 C.2       10 UNK         0.5000 
     21 O           2.1937  -21.5736  -50.7141 O.2       10 UNK        -0.5000 
     22 CA          3.7264  -21.0452  -48.9544 C.3       10 UNK         0.1400 
     23 CB          4.4252  -19.7986  -49.5153 C.3       10 UNK        -0.1800 
     24 N           3.7401  -20.9752  -47.4940 N.am      10 UNK        -0.5000 
     25 C           3.5535  -22.0212  -46.6789 C.2       9 UNK         0.5000 
     26 O           3.4040  -23.1774  -47.0735 O.2       9 UNK        -0.5000 
     27 CA          3.5157  -21.7223  -45.1674 C.3       9 UNK         0.1400 
     28 CB          4.9027  -21.9454  -44.5455 C.3       9 UNK        -0.1800 
     29 N           3.0528  -20.3742  -44.8196 N.am      9 UNK        -0.5000 
     30 C           1.8595  -19.8492  -45.1295 C.2       8 UNK         0.5000 
     31 O           1.0262  -20.4024  -45.8495 O.2       8 UNK        -0.5000 
     32 CA          1.5629  -18.4511  -44.5616 C.3       8 UNK         0.1400 
     33 CB          1.3418  -17.4486  -45.7059 C.3       8 UNK        -0.1800 
     34 N           0.3995  -18.4421  -43.6724 N.am      8 UNK        -0.5000 
     35 C           0.2869  -19.1406  -42.5332 C.2       7 UNK         0.5000 
     36 O           1.1763  -19.8778  -42.1056 O.2       7 UNK        -0.5000 
     37 CA         -1.0038  -18.9992  -41.7042 C.3       7 UNK         0.1400 
     38 CB         -0.7869  -18.0664  -40.5004 C.3       7 UNK        -0.1800 
     39 N          -2.1704  -18.5410  -42.4643 N.am      7 UNK        -0.5000 
     40 C          -3.4266  -18.9396  -42.2083 C.2       6 UNK         0.5000 
     41 O          -3.7151  -19.7429  -41.3202 O.2       6 UNK        -0.5000 
     42 CA         -4.5791  -18.3350  -43.0397 C.3       6 UNK         0.1400 
     43 CB         -5.4661  -17.4365  -42.1630 C.3       6 UNK        -0.1800 
     44 N          -4.1472  -17.5591  -44.1990 N.am      6 UNK        -0.5000 
     45 C          -3.6352  -18.0672  -45.3247 C.2       5 UNK         0.5000 
     46 O          -3.5055  -19.2737  -45.5329 O.2       5 UNK        -0.5000 
     47 CA         -3.1842  -17.0555  -46.3955 C.3       5 UNK         0.1400 
     48 CB         -4.2944  -16.8624  -47.4418 C.3       5 UNK        -0.1800 
     49 N          -2.7807  -15.7338  -45.8955 N.am      5 UNK        -0.5000 
     50 C          -1.8483  -15.5003  -44.9624 C.2       4 UNK         0.5000 
     51 O          -1.3150  -16.3991  -44.3113 O.2       4 UNK        -0.5000 
     52 CA         -1.4507  -14.0274  -44.7471 C.3       4 UNK         0.1400 
     53 CB         -2.6242  -13.1883  -44.2003 C.3       4 UNK        -0.1800 
     54 N          -0.2467  -13.8800  -43.9208 N.am      4 UNK        -0.5000 
     55 C          -0.0981  -14.1164  -42.6058 C.2       3 UNK         0.5000 
     56 O          -1.0196  -14.4265  -41.8500 O.2       3 UNK        -0.5000 
     57 CA          1.3260  -13.9881  -42.0213 C.3       3 UNK         0.1400 
     58 CB          1.8728  -15.3692  -41.6267 C.3       3 UNK        -0.1800 
     59 N           2.2753  -13.3484  -42.9354 N.am      3 UNK        -0.5000 
     60 C           2.3060  -12.0333  -43.2022 C.2       2 UNK         0.5000 
     61 O           1.5818  -11.2120  -42.6388 O.2       2 UNK        -0.5000 
     62 CA          3.2871  -11.5440  -44.2897 C.3       2 UNK         0.1400 
     63 CB          4.5047  -10.8627  -43.6463 C.3       2 UNK        -0.1800 
     64 N           3.7609  -12.5954  -45.1929 N.am      2 UNK        -0.5000 
     65 C           2.9980  -13.3189  -46.0256 C.2       1 UNK         0.5000 
     66 O           1.7837  -13.1535  -46.1501 O.2       1 UNK        -0.5000 
     67 C          -0.7077  -22.3716  -49.1646 C.2       11 UNK         0.5000 
     68 O          -1.7378  -22.6192  -48.5357 O.2       11 UNK        -0.5000 
     69 N          -0.0146  -23.2975  -49.8450 N.am      12 UNK        -0.5000 
     70 CA         -0.3077  -24.7272  -49.9933 C.3       12 UNK         0.1400 
     71 CB         -1.4906  -24.9369  -50.9634 C.3       12 UNK        -0.1800 
     72 C          -0.4968  -25.4347  -48.6355 C.2       12 UNK         0.5000 
     73 O           0.4915  -25.7994  -47.9983 O.2       12 UNK        -0.5000 
     74 N          -1.7578  -25.5961  -48.2137 N.am      13 UNK        -0.5000 
     75 CA         -2.1572  -26.1417  -46.9162 C.3       13 UNK         0.1400 
     76 CB         -3.6530  -26.4918  -46.9757 C.3       13 UNK        -0.1800 
     77 C          -1.8811  -25.1920  -45.7317 C.2       13 UNK         0.5000 
     78 O          -1.8968  -25.6514  -44.5894 O.2       13 UNK        -0.5000 
     79 N          -1.6577  -23.8987  -46.0190 N.am      14 UNK        -0.5000 
     80 CA         -1.4462  -22.7965  -45.0735 C.3       14 UNK         0.1400 
     81 CB         -0.1582  -23.0134  -44.2540 C.3       14 UNK        -0.1800 
     82 C          -2.6908  -22.5447  -44.2004 C.2       14 UNK         0.5000 
     83 O          -2.5712  -22.3045  -42.9987 O.2       14 UNK        -0.5000 
     84 N          -3.8683  -22.6456  -44.8292 N.am      15 UNK        -0.5000 
     85 CA         -5.1764  -22.5804  -44.1875 C.3       15 UNK         0.1400 
     86 CB         -5.5691  -23.9802  -43.6752 C.3       15 UNK        -0.1800 
     87 C          -6.2041  -21.9748  -45.1575 C.2       15 UNK         0.5000 
     88 O          -7.2623  -22.5621  -45.3867 O.2       15 UNK        -0.5000 
     89 N          -5.8597  -20.8054  -45.7144 N.am      16 UNK        -0.5000 
     90 CA         -6.6724  -19.9740  -46.6082 C.3       16 UNK         0.1400 
     91 CB         -7.9410  -19.4631  -45.8934 C.3       16 UNK        -0.1800 
     92 C          -6.9520  -20.6396  -47.9700 C.2       16 UNK         0.5000 
     93 O          -8.0817  -20.5985  -48.4605 O.2       16 UNK        -0.5000 
     94 N          -5.9061  -21.2368  -48.5609 N.am      17 UNK        -0.5000 
     95 CA         -5.9503  -21.8531  -49.8898 C.3       17 UNK         0.1400 
     96 CB         -4.6717  -22.6715  -50.1128 C.3       17 UNK        -0.1800 
     97 C          -6.1327  -20.8137  -51.0115 C.2       17 UNK         0.5000 
     98 O          -6.9309  -21.0379  -51.9225 O.2       17 UNK        -0.5000 
     99 N          -5.4059  -19.6902  -50.9003 N.am      18 UNK        -0.5000 
    100 CA        -5.4571  -18.5023  -51.7569 C.3       18 UNK         0.1400 
    101 CB        -6.7306  -17.6878  -51.4418 C.3       18 UNK        -0.1800 
    102 C         -5.2848  -18.8462  -53.2504 C.2       18 UNK         0.5000 
    103 O         -4.1787  -19.1962  -53.6679 O.2       18 UNK        -0.5000 
    104 N         -6.3818  -18.7864  -54.0168 N.am      19 UNK        -0.5000 
    105 CA        -6.4526  -19.1257  -55.4386 C.3       19 UNK         0.1400 
    106 CB        -7.8634  -18.8114  -55.9576 C.3       19 UNK        -0.1800 
    107 C         -6.0744  -20.5858  -55.7581 C.2       19 UNK         0.5000 
    108 O         -5.5921  -20.8505  -56.8591 O.2       19 UNK        -0.5000 
    109 N         -6.2516  -21.5023  -54.7956 N.am      20 UNK        -0.5000 
    110 CA        -5.8244  -22.8977  -54.9191 C.3       20 UNK         0.1400 
    111 CB        -6.5545  -23.7499  -53.8696 C.3       20 UNK        -0.1800 
    112 C         -4.2966  -23.0746  -54.7970 C.2       20 UNK         0.5000 
    113 O         -3.7779  -24.0976  -55.2454 O.2       20 UNK        -0.5000 
    114 N         -3.6081  -22.0937  -54.1963 N.am      21 UNK        -0.5000 
    115 CA        -2.1618  -22.0983  -53.9957 C.3       21 UNK         0.1400 
    116 CB        -1.8514  -21.6025  -52.5759 C.3       21 UNK        -0.1800 
    117 C         -1.4361  -21.2382  -55.0427 C.2       21 UNK         0.5000 
    118 O         -0.4453  -21.6983  -55.6106 O.2       21 UNK        -0.5000 
    119 N         -1.9235  -20.0106  -55.2652 N.am      22 UNK        -0.5000 
    120 CA        -1.2825  -18.9871  -56.1132 C.3       22 UNK         0.1400 
    121 C         -2.1910  -18.4616  -57.2634 C.2       22 UNK         0.5000 
    122 N         -3.3419  -19.0580  -57.5404 N.am      22 UNK        -0.7600 
    123 O         -1.8342  -17.5074  -57.9494 O.2       22 UNK        -0.5000 
    124 C124       -0.6794  -17.8399  -55.2445 C.3       23 UNK        -0.0398 
    125 S125        1.1352  -17.9654  -55.0669 S.3       23 UNK        -0.2404 
    126 C126        1.3337  -19.0068  -53.5871 C.3       23 UNK        -0.0205 
    127 H127        6.1159  -17.2043  -44.1929 H         1 UNK         0.0600 
    128 H128        7.0095  -15.9477  -45.0545 H         1 UNK         0.0600 
    129 H129        6.4298  -15.6507  -43.4123 H         1 UNK         0.0600 
    130 H130        5.7613  -14.9146  -46.5860 H         1 UNK         0.3000 
    131 H131        2.9871  -15.2858  -46.8092 H         1 UNK         0.0600 
    132 H132        4.9208  -14.6064  -48.6075 H         1 UNK         0.0800 
    133 H133        4.2839  -13.0150  -48.3459 H         1 UNK         0.0800 
    134 H134        3.1552  -16.7323  -48.7260 H         1 UNK         0.0800 
    135 H135        3.9497  -16.3390  -50.2343 H         1 UNK         0.0800 
    136 H136        3.0967  -17.5776  -52.0738 H         1 UNK         0.1150 
    137 H137       -1.0179  -18.7693  -52.2274 H         1 UNK         0.1150 
    138 H138        0.4219  -16.4786  -48.9104 H         1 UNK         0.1150 
    139 H139       -1.8714  -16.9694  -49.0384 H         1 UNK         0.0800 
    140 H140       -2.5437  -17.2135  -50.6232 H         1 UNK         0.0800 
    141 H141       -1.3879  -20.3182  -47.4707 H         1 UNK         0.0800 
    142 H142       -0.4000  -19.0517  -48.1070 H         1 UNK         0.0800 
    143 H143       -0.1561  -20.6298  -50.2373 H         1 UNK         0.0600 
    144 H144        1.4181  -20.6666  -47.7912 H         1 UNK         0.3000 
    145 H145        4.2979  -21.9219  -49.2664 H         1 UNK         0.0600 
    146 H146        5.4623  -19.7438  -49.1842 H         1 UNK         0.0600 
    147 H147        4.4320  -19.8071  -50.6062 H         1 UNK         0.0600 
    148 H148        3.9223  -18.8874  -49.1975 H         1 UNK         0.0600 
    149 H149        3.8614  -20.0629  -47.0808 H         1 UNK         0.3000 
    150 H150        2.8257  -22.4329  -44.7114 H         1 UNK         0.0600 
    151 H151        5.2709  -22.9497  -44.7598 H         1 UNK         0.0600 
    152 H152        4.8713  -21.8383  -43.4610 H         1 UNK         0.0600 
    153 H153        5.6361  -21.2372  -44.9331 H         1 UNK         0.0600 
    154 H154        3.6658  -19.8435  -44.2179 H         1 UNK         0.3000 
    155 H155        2.4246  -18.1155  -43.9813 H         1 UNK         0.0600 
    156 H156        0.4220  -17.6570  -46.2530 H         1 UNK         0.0600 
    157 H157        2.1646  -17.4830  -46.4203 H         1 UNK         0.0600 
    158 H158        1.2820  -16.4285  -45.3259 H         1 UNK         0.0600 
    159 H159       -0.3360  -17.7900  -43.9336 H         1 UNK         0.3000 
    160 H160       -1.2022  -20.0031  -41.3218 H         1 UNK         0.0600 
    161 H161       -1.6153  -18.1362  -39.7953 H         1 UNK         0.0600 
    162 H162       -0.7077  -17.0265  -40.8164 H         1 UNK         0.0600 
    163 H163        0.1239  -18.3206  -39.9566 H         1 UNK         0.0600 
    164 H164       -2.0083  -17.8451  -43.1847 H         1 UNK         0.3000 
    165 H165       -5.1895  -19.1677  -43.3938 H         1 UNK         0.0600 
    166 H166       -6.3248  -17.0635  -42.7217 H         1 UNK         0.0600 
    167 H167       -5.8547  -17.9850  -41.3039 H         1 UNK         0.0600 
    168 H168       -4.9129  -16.5774  -41.7810 H         1 UNK         0.0600 
    169 H169       -4.1976  -16.5547  -44.1129 H         1 UNK         0.3000 
    170 H170       -2.3097  -17.4918  -46.8788 H         1 UNK         0.0600 
    171 H171       -4.5298  -17.8007  -47.9430 H         1 UNK         0.0600 
    172 H172       -5.2138  -16.4899  -46.9881 H         1 UNK         0.0600 
    173 H173       -3.9975  -16.1552  -48.2160 H         1 UNK         0.0600 
    174 H174       -3.1879  -14.9427  -46.3729 H         1 UNK         0.3000 
    175 H175       -1.1799  -13.6287  -45.7259 H         1 UNK         0.0600 
    176 H176       -3.0375  -13.6093  -43.2834 H         1 UNK         0.0600 
    177 H177       -2.3120  -12.1655  -43.9888 H         1 UNK         0.0600 
    178 H178       -3.4382  -13.1323  -44.9235 H         1 UNK         0.0600 
    179 H179        0.5887  -13.6476  -44.4450 H         1 UNK         0.3000 
    180 H180        1.2579  -13.3805  -41.1166 H         1 UNK         0.0600 
    181 H181        1.8361  -16.0691  -42.4620 H         1 UNK         0.0600 
    182 H182        1.2905  -15.7991  -40.8123 H         1 UNK         0.0600 
    183 H183        2.9062  -15.3070  -41.2853 H         1 UNK         0.0600 
    184 H184        2.8967  -13.9715  -43.4394 H         1 UNK         0.3000 
    185 H185        2.7575  -10.8032  -44.8921 H         1 UNK         0.0600 
    186 H186        4.1965  -10.0478  -42.9898 H         1 UNK         0.0600 
    187 H187        5.0874  -11.5640  -43.0476 H         1 UNK         0.0600 
    188 H188        5.1643  -10.4358  -44.4021 H         1 UNK         0.0600 
    189 H189        4.7434  -12.8218  -45.1384 H         1 UNK         0.3000 
    190 H190        0.8347  -22.9770  -50.2996 H         1 UNK         0.3000 
    191 H191        0.5739  -25.1771  -50.4523 H         1 UNK         0.0600 
    192 H192       -2.3940  -24.4248  -50.6339 H         1 UNK         0.0600 
    193 H193       -1.7293  -25.9960  -51.0689 H         1 UNK         0.0600 
    194 H194       -1.2453  -24.5663  -51.9584 H         1 UNK         0.0600 
    195 H195       -2.4982  -25.2291  -48.7933 H         1 UNK         0.3000 
    196 H196       -1.5937  -27.0603  -46.7403 H         1 UNK         0.0600 
    197 H197       -3.9895  -26.9347  -46.0373 H         1 UNK         0.0600 
    198 H198       -3.8587  -27.2142  -47.7659 H         1 UNK         0.0600 
    199 H199       -4.2662  -25.6084  -47.1589 H         1 UNK         0.0600 
    200 H200       -1.6880  -23.6179  -46.9971 H         1 UNK         0.3000 
    201 H201       -1.3063  -21.8975  -45.6742 H         1 UNK         0.0600 
    202 H202        0.6806  -23.2418  -44.9100 H         1 UNK         0.0600 
    203 H203       -0.2584  -23.8306  -43.5397 H         1 UNK         0.0600 
    204 H204        0.0997  -22.1165  -43.6904 H         1 UNK         0.0600 
    205 H205       -3.8690  -22.8353  -45.8211 H         1 UNK         0.3000 
    206 H206       -5.1273  -21.9034  -43.3317 H         1 UNK         0.0600 
    207 H207       -4.8419  -24.3549  -42.9546 H         1 UNK         0.0600 
    208 H208       -6.5380  -23.9587  -43.1750 H         1 UNK         0.0600 
    209 H209       -5.6319  -24.7017  -44.4907 H         1 UNK         0.0600 
    210 H210       -4.9371  -20.4265  -45.5069 H         1 UNK         0.3000 
    211 H211       -6.0691  -19.0967  -46.8318 H         1 UNK         0.0600 
    212 H212       -8.6389  -20.2711  -45.6728 H         1 UNK         0.0600 
    213 H213       -8.4698  -18.7359  -46.5106 H         1 UNK         0.0600 
    214 H214       -7.6909  -18.9686  -44.9546 H         1 UNK         0.0600 
    215 H215       -5.0138  -21.2331  -48.0893 H         1 UNK         0.3000 
    216 H216       -6.8023  -22.5355  -49.9229 H         1 UNK         0.0600 
    217 H217       -4.6781  -23.1596  -51.0876 H         1 UNK         0.0600 
    218 H218       -4.5621  -23.4501  -49.3578 H         1 UNK         0.0600 
    219 H219       -3.7867  -22.0380  -50.0707 H         1 UNK         0.0600 
    220 H220       -4.7351  -19.6435  -50.1456 H         1 UNK         0.3000 
    221 H221       -4.5998  -17.8850  -51.4904 H         1 UNK         0.0600 
    222 H222       -6.7873  -16.7881  -52.0559 H         1 UNK         0.0600 
    223 H223       -7.6418  -18.2646  -51.6044 H         1 UNK         0.0600 
    224 H224       -6.7325  -17.3643  -50.4007 H         1 UNK         0.0600 
    225 H225       -7.2527  -18.5303  -53.5751 H         1 UNK         0.3000 
    226 H226       -5.7441  -18.4825  -55.9639 H         1 UNK         0.0600 
    227 H227       -8.1096  -17.7583  -55.8202 H         1 UNK         0.0600 
    228 H228       -7.9445  -19.0258  -57.0242 H         1 UNK         0.0600 
    229 H229       -8.6216  -19.4046  -55.4447 H         1 UNK         0.0600 
    230 H230       -6.6325  -21.2174  -53.8976 H         1 UNK         0.3000 
    231 H231       -6.1177  -23.2619  -55.9061 H         1 UNK         0.0600 
    232 H232       -7.6360  -23.6493  -53.9617 H         1 UNK         0.0600 
    233 H233       -6.2769  -23.4681  -52.8548 H         1 UNK         0.0600 
    234 H234       -6.3148  -24.8069  -53.9911 H         1 UNK         0.0600 
    235 H235       -4.0996  -21.2586  -53.9022 H         1 UNK         0.3000 
    236 H236       -1.7719  -23.1151  -54.0782 H         1 UNK         0.0600 
    237 H237       -0.7759  -21.5315  -52.4106 H         1 UNK         0.0600 
    238 H238       -2.2884  -20.6244  -52.3800 H         1 UNK         0.0600 
    239 H239       -2.2490  -22.2894  -51.8326 H         1 UNK         0.0600 
    240 H240       -2.7469  -19.7049  -54.7517 H         1 UNK         0.3000 
    241 H241       -0.4670  -19.4541  -56.6677 H         1 UNK         0.0600 
    242 H242       -3.8970  -18.7083  -58.3050 H         1 UNK         0.3800 
    243 H243       -3.6587  -19.8759  -57.0396 H         1 UNK         0.3800 
    244 H244       -0.8633  -16.8572  -55.6813 H         1 UNK         0.0800 
    245 H245       -1.1573  -17.7896  -54.2678 H         1 UNK         0.0800 
    246 H246        0.6840  -19.8781  -53.6558 H         1 UNK         0.0800 
    247 H247        2.3516  -19.3991  -53.5726 H         1 UNK         0.0800 
@<TRIPOS>BOND
     1    1    2 1    
     2    1  127 1    
     3    1  128 1    
     4    1  129 1    
     5    2    3 2    
     6    2    4 am   BACKBONE|DICT|INTERRES
     7    4    5 1    
     8    4  130 1    
     9    5    6 1    
    10    5   65 1    
    11    5  131 1    
    12    6    7 1    
    13    6  132 1    
    14    6  133 1    
    15    7    8 1    
    16    8    9 1    
    17    8  134 1    
    18    8  135 1    
    19    9   10 ar   
    20    9   14 ar   
    21   10   11 ar   
    22   10  136 1    
    23   11   12 ar   
    24   11  126 1    
    25   12   13 ar   
    26   12  137 1    
    27   13   14 ar   
    28   13   15 1    
    29   14  138 1    
    30   15   16 1    
    31   15  139 1    
    32   15  140 1    
    33   16   17 1    
    34   17   18 1    
    35   17  141 1    
    36   17  142 1    
    37   18   19 1    
    38   18   67 1    
    39   18  143 1    
    40   19   20 am   BACKBONE|DICT|INTERRES
    41   19  144 1    
    42   20   21 2    
    43   20   22 1    
    44   22   23 1    
    45   22   24 1    
    46   22  145 1    
    47   23  146 1    
    48   23  147 1    
    49   23  148 1    
    50   24   25 am   BACKBONE|DICT|INTERRES
    51   24  149 1    
    52   25   26 2    
    53   25   27 1    
    54   27   28 1    
    55   27   29 1    
    56   27  150 1    
    57   28  151 1    
    58   28  152 1    
    59   28  153 1    
    60   29   30 am   BACKBONE|DICT|INTERRES
    61   29  154 1    
    62   30   31 2    
    63   30   32 1    
    64   32   33 1    
    65   32   34 1    
    66   32  155 1    
    67   33  156 1    
    68   33  157 1    
    69   33  158 1    
    70   34   35 am   BACKBONE|DICT|INTERRES
    71   34  159 1    
    72   35   36 2    
    73   35   37 1    
    74   37   38 1    
    75   37   39 1    
    76   37  160 1    
    77   38  161 1    
    78   38  162 1    
    79   38  163 1    
    80   39   40 am   BACKBONE|DICT|INTERRES
    81   39  164 1    
    82   40   41 2    
    83   40   42 1    
    84   42   43 1    
    85   42   44 1    
    86   42  165 1    
    87   43  166 1    
    88   43  167 1    
    89   43  168 1    
    90   44   45 am   BACKBONE|DICT|INTERRES
    91   44  169 1    
    92   45   46 2    
    93   45   47 1    
    94   47   48 1    
    95   47   49 1    
    96   47  170 1    
    97   48  171 1    
    98   48  172 1    
    99   48  173 1    
   100   49   50 am   BACKBONE|DICT|INTERRES
   101   49  174 1    
   102   50   51 2    
   103   50   52 1    
   104   52   53 1    
   105   52   54 1    
   106   52  175 1    
   107   53  176 1    
   108   53  177 1    
   109   53  178 1    
   110   54   55 am   BACKBONE|DICT|INTERRES
   111   54  179 1    
   112   55   56 2    
   113   55   57 1    
   114   57   58 1    
   115   57   59 1    
   116   57  180 1    
   117   58  181 1    
   118   58  182 1    
   119   58  183 1    
   120   59   60 am   BACKBONE|DICT|INTERRES
   121   59  184 1    
   122   60   61 2    
   123   60   62 1    
   124   62   63 1    
   125   62   64 1    
   126   62  185 1    
   127   63  186 1    
   128   63  187 1    
   129   63  188 1    
   130   64   65 am   BACKBONE|DICT|INTERRES
   131   64  189 1    
   132   65   66 2    
   133   67   68 2    
   134   67   69 am   BACKBONE|DICT|INTERRES
   135   69   70 1    
   136   69  190 1    
   137   70   71 1    
   138   70   72 1    
   139   70  191 1    
   140   71  192 1    
   141   71  193 1    
   142   71  194 1    
   143   72   73 2    
   144   72   74 am   BACKBONE|DICT|INTERRES
   145   74   75 1    
   146   74  195 1    
   147   75   76 1    
   148   75   77 1    
   149   75  196 1    
   150   76  197 1    
   151   76  198 1    
   152   76  199 1    
   153   77   78 2    
   154   77   79 am   BACKBONE|DICT|INTERRES
   155   79   80 1    
   156   79  200 1    
   157   80   81 1    
   158   80   82 1    
   159   80  201 1    
   160   81  202 1    
   161   81  203 1    
   162   81  204 1    
   163   82   83 2    
   164   82   84 am   BACKBONE|DICT|INTERRES
   165   84   85 1    
   166   84  205 1    
   167   85   86 1    
   168   85   87 1    
   169   85  206 1    
   170   86  207 1    
   171   86  208 1    
   172   86  209 1    
   173   87   88 2    
   174   87   89 am   BACKBONE|DICT|INTERRES
   175   89   90 1    
   176   89  210 1    
   177   90   91 1    
   178   90   92 1    
   179   90  211 1    
   180   91  212 1    
   181   91  213 1    
   182   91  214 1    
   183   92   93 2    
   184   92   94 am   BACKBONE|DICT|INTERRES
   185   94   95 1    
   186   94  215 1    
   187   95   96 1    
   188   95   97 1    
   189   95  216 1    
   190   96  217 1    
   191   96  218 1    
   192   96  219 1    
   193   97   98 2    
   194   97   99 am   BACKBONE|DICT|INTERRES
   195   99  100 1    
   196   99  220 1    
   197  100  101 1    
   198  100  102 1    
   199  100  221 1    
   200  101  222 1    
   201  101  223 1    
   202  101  224 1    
   203  102  103 2    
   204  102  104 am   BACKBONE|DICT|INTERRES
   205  104  105 1    
   206  104  225 1    
   207  105  106 1    
   208  105  107 1    
   209  105  226 1    
   210  106  227 1    
   211  106  228 1    
   212  106  229 1    
   213  107  108 2    
   214  107  109 am   BACKBONE|DICT|INTERRES
   215  109  110 1    
   216  109  230 1    
   217  110  111 1    
   218  110  112 1    
   219  110  231 1    
   220  111  232 1    
   221  111  233 1    
   222  111  234 1    
   223  112  113 2    
   224  112  114 am   BACKBONE|DICT|INTERRES
   225  114  115 1    
   226  114  235 1    
   227  115  116 1    
   228  115  117 1    
   229  115  236 1    
   230  116  237 1    
   231  116  238 1    
   232  116  239 1    
   233  117  118 2    
   234  117  119 am   BACKBONE|DICT|INTERRES
   235  119  120 1    
   236  119  240 1    
   237  120  121 1    
   238  120  124 1    
   239  120  241 1    
   240  121  122 am   BACKBONE|DICT|INTERRES
   241  121  123 2    
   242  122  242 1    
   243  122  243 1    
   244  124  125 1    
   245  124  244 1    
   246  124  245 1    
   247  125  126 1    
   248  126  246 1    
   249  126  247 1    
@<TRIPOS>SUBSTRUCTURE
     1 UNK         1 GROUP             0       ****    0 ROOT    
