@<TRIPOS>MOLECULE
3R540
247   249    1
SMALL
USER_CHARGES


@<TRIPOS>ATOM
      1 CA          0.1653  -14.9538  -49.8193 C.3       0 UNK        -0.1800 
      2 C           1.3557  -14.5208  -48.9786 C.2       0 UNK         0.5000 
      3 O           1.1771  -13.9022  -47.9308 O.2       0 UNK        -0.5000 
      4 N           2.5712  -14.8349  -49.4396 N.am      1 UNK        -0.5000 
      5 CA          3.8406  -14.4137  -48.8365 C.3       1 UNK         0.1400 
      6 C6          5.0705  -14.7516  -49.7179 C.3       23 UNK        -0.0398 
      7 S7          4.8826  -14.2373  -51.4620 S.3       23 UNK        -0.2404 
      8 C8          4.8123  -15.8425  -52.3253 C.3       23 UNK        -0.0205 
      9 C9          3.4875  -16.5635  -52.1126 C.ar      23 UNK        -0.0193 
     10 C10         2.4030  -16.3052  -52.9561 C.ar      23 UNK        -0.1150 
     11 C11         1.1877  -16.9802  -52.7972 C.ar      23 UNK        -0.0193 
     12 C12         1.0708  -17.9198  -51.7636 C.ar      23 UNK        -0.1150 
     13 C13         2.1348  -18.1666  -50.8931 C.ar      23 UNK        -0.0193 
     14 C14         3.3472  -17.5000  -51.0849 C.ar      23 UNK        -0.1150 
     15 C15         1.9759  -19.1507  -49.7445 C.3       23 UNK        -0.0205 
     16 S16         0.9842  -18.4458  -48.3907 S.3       23 UNK        -0.2404 
     17 C17        -0.6615  -19.1926  -48.6592 C.3       23 UNK        -0.0398 
     18 CA         -0.8299  -20.5641  -47.9554 C.3       11 UNK         0.1400 
     19 N          -0.5788  -20.5160  -46.5117 N.am      11 UNK        -0.5000 
     20 C           0.4511  -21.1246  -45.9059 C.2       10 UNK         0.5000 
     21 O           1.3652  -21.6875  -46.5089 O.2       10 UNK        -0.5000 
     22 CA          0.4701  -21.1394  -44.3633 C.3       10 UNK         0.1400 
     23 CB          1.4729  -20.1063  -43.8299 C.3       10 UNK        -0.1800 
     24 N          -0.8314  -20.9098  -43.7327 N.am      10 UNK        -0.5000 
     25 C          -1.9166  -21.6847  -43.8804 C.2       9 UNK         0.5000 
     26 O          -1.9536  -22.6856  -44.5969 O.2       9 UNK        -0.5000 
     27 CA         -3.2071  -21.2331  -43.1675 C.3       9 UNK         0.1400 
     28 CB         -3.3185  -21.9051  -41.7914 C.3       9 UNK        -0.1800 
     29 N          -3.3365  -19.7848  -42.9996 N.am      9 UNK        -0.5000 
     30 C          -3.2322  -18.8605  -43.9643 C.2       8 UNK         0.5000 
     31 O          -3.0034  -19.1190  -45.1484 O.2       8 UNK        -0.5000 
     32 CA         -3.3424  -17.3939  -43.5141 C.3       8 UNK         0.1400 
     33 CB         -4.8152  -16.9613  -43.4740 C.3       8 UNK        -0.1800 
     34 N          -2.7021  -17.0603  -42.2334 N.am      8 UNK        -0.5000 
     35 C          -1.4741  -17.4156  -41.8268 C.2       7 UNK         0.5000 
     36 O          -0.7631  -18.2483  -42.3967 O.2       7 UNK        -0.5000 
     37 CA         -0.9530  -16.7309  -40.5578 C.3       7 UNK         0.1400 
     38 CB         -1.4922  -17.4196  -39.2934 C.3       7 UNK        -0.1800 
     39 N           0.5021  -16.8091  -40.5739 N.am      7 UNK        -0.5000 
     40 C           1.3485  -15.8804  -40.1211 C.2       6 UNK         0.5000 
     41 O           0.9894  -14.8437  -39.5602 O.2       6 UNK        -0.5000 
     42 CA          2.8507  -16.1514  -40.3152 C.3       6 UNK         0.1400 
     43 CB          3.1882  -17.6296  -40.6036 C.3       6 UNK        -0.1800 
     44 N           3.3428  -15.3328  -41.4180 N.am      6 UNK        -0.5000 
     45 C           4.0904  -14.2303  -41.2917 C.2       5 UNK         0.5000 
     46 O           4.4617  -13.7684  -40.2115 O.2       5 UNK        -0.5000 
     47 CA          4.5091  -13.5283  -42.5968 C.3       5 UNK         0.1400 
     48 CB          5.6525  -14.2922  -43.2822 C.3       5 UNK        -0.1800 
     49 N           3.4014  -13.3588  -43.5379 N.am      5 UNK        -0.5000 
     50 C           2.3936  -12.4904  -43.3701 C.2       4 UNK         0.5000 
     51 O           2.2900  -11.7411  -42.3982 O.2       4 UNK        -0.5000 
     52 CA          1.3275  -12.4355  -44.4803 C.3       4 UNK         0.1400 
     53 CB          1.7767  -11.5022  -45.6148 C.3       4 UNK        -0.1800 
     54 N           1.0234  -13.7527  -45.0341 N.am      4 UNK        -0.5000 
     55 C           0.3516  -14.7114  -44.3839 C.2       3 UNK         0.5000 
     56 O          -0.1555  -14.5626  -43.2723 O.2       3 UNK        -0.5000 
     57 CA          0.2576  -16.0777  -45.0850 C.3       3 UNK         0.1400 
     58 CB         -0.8863  -16.1049  -46.1115 C.3       3 UNK        -0.1800 
     59 N           1.5076  -16.4740  -45.7305 N.am      3 UNK        -0.5000 
     60 C           2.6691  -16.6907  -45.0981 C.2       2 UNK         0.5000 
     61 O           2.8079  -16.6198  -43.8788 O.2       2 UNK        -0.5000 
     62 CA          3.8929  -16.9906  -45.9802 C.3       2 UNK         0.1400 
     63 CB          4.0654  -18.5010  -46.1977 C.3       2 UNK        -0.1800 
     64 N           3.8189  -16.3009  -47.2695 N.am      2 UNK        -0.5000 
     65 C           4.0224  -14.9827  -47.4155 C.2       1 UNK         0.5000 
     66 O           4.3043  -14.2283  -46.4832 O.2       1 UNK        -0.5000 
     67 C          -2.2247  -21.1571  -48.2357 C.2       11 UNK         0.5000 
     68 O          -2.3635  -21.9371  -49.1791 O.2       11 UNK        -0.5000 
     69 N          -3.2318  -20.7895  -47.4276 N.am      12 UNK        -0.5000 
     70 CA         -4.6352  -21.1381  -47.6522 C.3       12 UNK         0.1400 
     71 CB         -5.5323  -20.2303  -46.7947 C.3       12 UNK        -0.1800 
     72 C          -4.9608  -22.6158  -47.3900 C.2       12 UNK         0.5000 
     73 O          -5.6026  -23.2502  -48.2300 O.2       12 UNK        -0.5000 
     74 N          -4.5176  -23.1280  -46.2338 N.am      13 UNK        -0.5000 
     75 CA         -4.7369  -24.5126  -45.8045 C.3       13 UNK         0.1400 
     76 CB         -4.7828  -24.5829  -44.2705 C.3       13 UNK        -0.1800 
     77 C          -3.6555  -25.4496  -46.3650 C.2       13 UNK         0.5000 
     78 O          -3.9389  -26.6187  -46.6260 O.2       13 UNK        -0.5000 
     79 N          -2.4519  -24.9027  -46.5930 N.am      14 UNK        -0.5000 
     80 CA         -1.3585  -25.5385  -47.3323 C.3       14 UNK         0.1400 
     81 CB         -0.1021  -24.6674  -47.1947 C.3       14 UNK        -0.1800 
     82 C          -1.6876  -25.7703  -48.8233 C.2       14 UNK         0.5000 
     83 O          -1.0479  -26.6099  -49.4571 O.2       14 UNK        -0.5000 
     84 N          -2.6841  -25.0324  -49.3349 N.am      15 UNK        -0.5000 
     85 CA         -3.2436  -25.0728  -50.6831 C.3       15 UNK         0.1400 
     86 CB         -3.9266  -26.4283  -50.9605 C.3       15 UNK        -0.1800 
     87 C          -2.2117  -24.6709  -51.7513 C.2       15 UNK         0.5000 
     88 O          -1.9142  -25.4493  -52.6601 O.2       15 UNK        -0.5000 
     89 N          -1.6749  -23.4528  -51.6033 N.am      16 UNK        -0.5000 
     90 CA         -0.7722  -22.8018  -52.5510 C.3       16 UNK         0.1400 
     91 CB         -0.2756  -21.4887  -51.9295 C.3       16 UNK        -0.1800 
     92 C          -1.4722  -22.5611  -53.9023 C.2       16 UNK         0.5000 
     93 O          -2.3113  -21.6666  -54.0028 O.2       16 UNK        -0.5000 
     94 N          -1.1602  -23.4122  -54.8893 N.am      17 UNK        -0.5000 
     95 CA         -1.7696  -23.5467  -56.2215 C.3       17 UNK         0.1400 
     96 CB         -1.7357  -22.2263  -57.0162 C.3       17 UNK        -0.1800 
     97 C          -3.1859  -24.1604  -56.2023 C.2       17 UNK         0.5000 
     98 O          -3.4891  -24.9971  -57.0540 O.2       17 UNK        -0.5000 
     99 N          -4.0117  -23.7717  -55.2281 N.am      18 UNK        -0.5000 
    100 CA        -5.3369  -24.3072  -54.9393 C.3       18 UNK         0.1400 
    101 CB        -6.3753  -23.6930  -55.8969 C.3       18 UNK        -0.1800 
    102 C         -5.6699  -24.0020  -53.4712 C.2       18 UNK         0.5000 
    103 O         -4.9575  -23.2264  -52.8311 O.2       18 UNK        -0.5000 
    104 N         -6.7435  -24.6095  -52.9515 N.am      19 UNK        -0.5000 
    105 CA        -7.2684  -24.3303  -51.6124 C.3       19 UNK         0.1400 
    106 CB        -8.3860  -25.3321  -51.2878 C.3       19 UNK        -0.1800 
    107 C         -7.7831  -22.8818  -51.5036 C.2       19 UNK         0.5000 
    108 O         -8.4155  -22.3913  -52.4433 O.2       19 UNK        -0.5000 
    109 N         -7.4977  -22.2332  -50.3669 N.am      20 UNK        -0.5000 
    110 CA        -7.7371  -20.8186  -50.0571 C.3       20 UNK         0.1400 
    111 CB        -9.2291  -20.4358  -50.1355 C.3       20 UNK        -0.1800 
    112 C         -6.8360  -19.8787  -50.8805 C.2       20 UNK         0.5000 
    113 O         -5.9359  -19.2682  -50.3038 O.2       20 UNK        -0.5000 
    114 N         -7.0806  -19.8158  -52.1981 N.am      21 UNK        -0.5000 
    115 CA        -6.3132  -19.1430  -53.2541 C.3       21 UNK         0.1400 
    116 CB        -5.2356  -20.1068  -53.7873 C.3       21 UNK        -0.1800 
    117 C         -5.7447  -17.7621  -52.8624 C.2       21 UNK         0.5000 
    118 O         -6.4732  -16.7695  -52.9069 O.2       21 UNK        -0.5000 
    119 N         -4.4582  -17.7355  -52.4943 N.am      22 UNK        -0.5000 
    120 CA        -3.6980  -16.5540  -52.0622 C.3       22 UNK         0.1400 
    121 C         -4.1615  -15.9296  -50.7121 C.2       22 UNK         0.5000 
    122 N         -4.9285  -16.6243  -49.8804 N.am      22 UNK        -0.7600 
    123 O         -3.8144  -14.7899  -50.4157 O.2       22 UNK        -0.5000 
    124 C124       -2.1777  -16.8532  -52.0053 C.3       23 UNK        -0.0398 
    125 S125       -1.5112  -17.5809  -53.5450 S.3       23 UNK        -0.2404 
    126 C126        0.0471  -16.6490  -53.7661 C.3       23 UNK        -0.0205 
    127 H127       -0.6630  -14.2559  -49.6966 H         1 UNK         0.0600 
    128 H128       -0.1761  -15.9437  -49.5200 H         1 UNK         0.0600 
    129 H129        0.4264  -14.9812  -50.8765 H         1 UNK         0.0600 
    130 H130        2.6526  -15.3439  -50.3099 H         1 UNK         0.3000 
    131 H131        3.7948  -13.3264  -48.7426 H         1 UNK         0.0600 
    132 H132        5.3028  -15.8161  -49.6801 H         1 UNK         0.0800 
    133 H133        5.9539  -14.2476  -49.3218 H         1 UNK         0.0800 
    134 H134        5.6458  -16.4707  -52.0068 H         1 UNK         0.0800 
    135 H135        4.9622  -15.6688  -53.3920 H         1 UNK         0.0800 
    136 H136        2.5095  -15.5783  -53.7495 H         1 UNK         0.1150 
    137 H137        0.1529  -18.4642  -51.6177 H         1 UNK         0.1150 
    138 H138        4.1816  -17.7101  -50.4314 H         1 UNK         0.1150 
    139 H139        1.5323  -20.0778  -50.1009 H         1 UNK         0.0800 
    140 H140        2.9531  -19.4255  -49.3448 H         1 UNK         0.0800 
    141 H141       -0.8367  -19.2912  -49.7302 H         1 UNK         0.0800 
    142 H142       -1.4097  -18.4856  -48.2977 H         1 UNK         0.0800 
    143 H143       -0.1234  -21.2500  -48.4271 H         1 UNK         0.0600 
    144 H144       -1.2790  -20.0645  -45.9363 H         1 UNK         0.3000 
    145 H145        0.8077  -22.1314  -44.0568 H         1 UNK         0.0600 
    146 H146        1.5379  -20.1395  -42.7423 H         1 UNK         0.0600 
    147 H147        2.4730  -20.2938  -44.2209 H         1 UNK         0.0600 
    148 H148        1.1901  -19.0938  -44.1174 H         1 UNK         0.0600 
    149 H149       -0.9082  -20.0669  -43.1701 H         1 UNK         0.3000 
    150 H150       -4.0503  -21.5619  -43.7765 H         1 UNK         0.0600 
    151 H151       -3.2304  -22.9891  -41.8725 H         1 UNK         0.0600 
    152 H152       -4.2811  -21.6936  -41.3256 H         1 UNK         0.0600 
    153 H153       -2.5346  -21.5631  -41.1143 H         1 UNK         0.0600 
    154 H154       -3.4889  -19.4575  -42.0570 H         1 UNK         0.3000 
    155 H155       -2.8449  -16.7960  -44.2732 H         1 UNK         0.0600 
    156 H156       -5.3146  -17.1813  -44.4190 H         1 UNK         0.0600 
    157 H157       -4.9077  -15.8886  -43.3033 H         1 UNK         0.0600 
    158 H158       -5.3643  -17.4761  -42.6847 H         1 UNK         0.0600 
    159 H159       -3.2046  -16.3925  -41.6666 H         1 UNK         0.3000 
    160 H160       -1.2692  -15.6856  -40.5766 H         1 UNK         0.0600 
    161 H161       -1.2034  -18.4708  -39.2550 H         1 UNK         0.0600 
    162 H162       -2.5812  -17.3749  -39.2551 H         1 UNK         0.0600 
    163 H163       -1.1159  -16.9363  -38.3916 H         1 UNK         0.0600 
    164 H164        0.8621  -17.5974  -41.0969 H         1 UNK         0.3000 
    165 H165        3.3462  -15.8784  -39.3815 H         1 UNK         0.0600 
    166 H166        4.2672  -17.7765  -40.6519 H         1 UNK         0.0600 
    167 H167        2.8110  -18.2806  -39.8138 H         1 UNK         0.0600 
    168 H168        2.7706  -17.9747  -41.5501 H         1 UNK         0.0600 
    169 H169        3.0829  -15.6486  -42.3506 H         1 UNK         0.3000 
    170 H170        4.8830  -12.5360  -42.3352 H         1 UNK         0.0600 
    171 H171        6.5129  -14.3828  -42.6183 H         1 UNK         0.0600 
    172 H172        5.3507  -15.3004  -43.5652 H         1 UNK         0.0600 
    173 H173        5.9885  -13.7772  -44.1824 H         1 UNK         0.0600 
    174 H174        3.4325  -13.9096  -44.3861 H         1 UNK         0.3000 
    175 H175        0.4127  -12.0266  -44.0459 H         1 UNK         0.0600 
    176 H176        0.9971  -11.3972  -46.3696 H         1 UNK         0.0600 
    177 H177        2.6729  -11.8761  -46.1119 H         1 UNK         0.0600 
    178 H178        2.0008  -10.5042  -45.2361 H         1 UNK         0.0600 
    179 H179        1.3329  -13.9303  -45.9858 H         1 UNK         0.3000 
    180 H180        0.0378  -16.8177  -44.3178 H         1 UNK         0.0600 
    181 H181       -0.6012  -15.6443  -47.0544 H         1 UNK         0.0600 
    182 H182       -1.7616  -15.5629  -45.7542 H         1 UNK         0.0600 
    183 H183       -1.1947  -17.1289  -46.3200 H         1 UNK         0.0600 
    184 H184        1.4873  -16.5625  -46.7359 H         1 UNK         0.3000 
    185 H185        4.7797  -16.6324  -45.4541 H         1 UNK         0.0600 
    186 H186        4.2692  -19.0021  -45.2510 H         1 UNK         0.0600 
    187 H187        3.1746  -18.9623  -46.6216 H         1 UNK         0.0600 
    188 H188        4.9035  -18.7134  -46.8615 H         1 UNK         0.0600 
    189 H189        3.5447  -16.8503  -48.0704 H         1 UNK         0.3000 
    190 H190       -3.0612  -20.1381  -46.6656 H         1 UNK         0.3000 
    191 H191       -4.8570  -20.9443  -48.7016 H         1 UNK         0.0600 
    192 H192       -5.3178  -20.3372  -45.7316 H         1 UNK         0.0600 
    193 H193       -6.5871  -20.4685  -46.9286 H         1 UNK         0.0600 
    194 H194       -5.3981  -19.1816  -47.0610 H         1 UNK         0.0600 
    195 H195       -3.9324  -22.5587  -45.6397 H         1 UNK         0.3000 
    196 H196       -5.7034  -24.8532  -46.1828 H         1 UNK         0.0600 
    197 H197       -5.0676  -25.5824  -43.9399 H         1 UNK         0.0600 
    198 H198       -5.5140  -23.8853  -43.8620 H         1 UNK         0.0600 
    199 H199       -3.8150  -24.3604  -43.8232 H         1 UNK         0.0600 
    200 H200       -2.2813  -23.9659  -46.2474 H         1 UNK         0.3000 
    201 H201       -1.1608  -26.5112  -46.8777 H         1 UNK         0.0600 
    202 H202        0.1555  -24.5027  -46.1481 H         1 UNK         0.0600 
    203 H203       -0.2404  -23.6930  -47.6636 H         1 UNK         0.0600 
    204 H204        0.7570  -25.1407  -47.6715 H         1 UNK         0.0600 
    205 H205       -3.0929  -24.3357  -48.7286 H         1 UNK         0.3000 
    206 H206       -4.0190  -24.3072  -50.6951 H         1 UNK         0.0600 
    207 H207       -4.4222  -26.4223  -51.9317 H         1 UNK         0.0600 
    208 H208       -3.2127  -27.2522  -50.9645 H         1 UNK         0.0600 
    209 H209       -4.6864  -26.6455  -50.2097 H         1 UNK         0.0600 
    210 H210       -1.9820  -22.8874  -50.8162 H         1 UNK         0.3000 
    211 H211        0.0906  -23.4531  -52.7044 H         1 UNK         0.0600 
    212 H212       -1.0970  -20.7978  -51.7340 H         1 UNK         0.0600 
    213 H213        0.4318  -20.9836  -52.5883 H         1 UNK         0.0600 
    214 H214        0.2304  -21.6840  -50.9854 H         1 UNK         0.0600 
    215 H215       -0.5090  -24.1509  -54.6605 H         1 UNK         0.3000 
    216 H216       -1.1349  -24.2565  -56.7544 H         1 UNK         0.0600 
    217 H217       -2.0482  -22.3902  -58.0482 H         1 UNK         0.0600 
    218 H218       -0.7302  -21.8065  -57.0431 H         1 UNK         0.0600 
    219 H219       -2.4036  -21.4749  -56.5944 H         1 UNK         0.0600 
    220 H220       -3.6827  -23.0855  -54.5524 H         1 UNK         0.3000 
    221 H221       -5.3183  -25.3920  -55.0618 H         1 UNK         0.0600 
    222 H222       -6.4070  -22.6067  -55.8133 H         1 UNK         0.0600 
    223 H223       -6.1518  -23.9400  -56.9347 H         1 UNK         0.0600 
    224 H224       -7.3777  -24.0672  -55.6867 H         1 UNK         0.0600 
    225 H225       -7.3037  -25.2103  -53.5380 H         1 UNK         0.3000 
    226 H226       -6.4598  -24.4730  -50.8925 H         1 UNK         0.0600 
    227 H227       -8.0188  -26.3580  -51.3230 H         1 UNK         0.0600 
    228 H228       -8.7811  -25.1631  -50.2853 H         1 UNK         0.0600 
    229 H229       -9.2184  -25.2473  -51.9876 H         1 UNK         0.0600 
    230 H230       -6.9442  -22.7248  -49.6710 H         1 UNK         0.3000 
    231 H231       -7.4428  -20.6982  -49.0162 H         1 UNK         0.0600 
    232 H232       -9.3805  -19.4106  -49.7958 H         1 UNK         0.0600 
    233 H233       -9.8326  -21.0810  -49.4971 H         1 UNK         0.0600 
    234 H234       -9.6288  -20.5008  -51.1472 H         1 UNK         0.0600 
    235 H235       -7.8258  -20.4179  -52.5314 H         1 UNK         0.3000 
    236 H236       -7.0133  -18.9583  -54.0701 H         1 UNK         0.0600 
    237 H237       -5.6945  -20.9812  -54.2452 H         1 UNK         0.0600 
    238 H238       -4.6147  -19.6364  -54.5511 H         1 UNK         0.0600 
    239 H239       -4.5779  -20.4628  -52.9931 H         1 UNK         0.0600 
    240 H240       -3.9495  -18.6072  -52.4898 H         1 UNK         0.3000 
    241 H241       -3.8554  -15.7857  -52.8213 H         1 UNK         0.0600 
    242 H242       -5.2316  -17.5686  -50.1116 H         1 UNK         0.3800 
    243 H243       -5.2234  -16.2049  -49.0143 H         1 UNK         0.3800 
    244 H244       -1.6318  -15.9347  -51.7891 H         1 UNK         0.0800 
    245 H245       -1.9610  -17.5379  -51.1843 H         1 UNK         0.0800 
    246 H246        0.4003  -16.8375  -54.7808 H         1 UNK         0.0800 
    247 H247       -0.1695  -15.5811  -53.7130 H         1 UNK         0.0800 
@<TRIPOS>BOND
     1    1    2 1    
     2    1  127 1    
     3    1  128 1    
     4    1  129 1    
     5    2    3 2    
     6    2    4 am   BACKBONE|DICT|INTERRES
     7    4    5 1    
     8    4  130 1    
     9    5    6 1    
    10    5   65 1    
    11    5  131 1    
    12    6    7 1    
    13    6  132 1    
    14    6  133 1    
    15    7    8 1    
    16    8    9 1    
    17    8  134 1    
    18    8  135 1    
    19    9   10 ar   
    20    9   14 ar   
    21   10   11 ar   
    22   10  136 1    
    23   11   12 ar   
    24   11  126 1    
    25   12   13 ar   
    26   12  137 1    
    27   13   14 ar   
    28   13   15 1    
    29   14  138 1    
    30   15   16 1    
    31   15  139 1    
    32   15  140 1    
    33   16   17 1    
    34   17   18 1    
    35   17  141 1    
    36   17  142 1    
    37   18   19 1    
    38   18   67 1    
    39   18  143 1    
    40   19   20 am   BACKBONE|DICT|INTERRES
    41   19  144 1    
    42   20   21 2    
    43   20   22 1    
    44   22   23 1    
    45   22   24 1    
    46   22  145 1    
    47   23  146 1    
    48   23  147 1    
    49   23  148 1    
    50   24   25 am   BACKBONE|DICT|INTERRES
    51   24  149 1    
    52   25   26 2    
    53   25   27 1    
    54   27   28 1    
    55   27   29 1    
    56   27  150 1    
    57   28  151 1    
    58   28  152 1    
    59   28  153 1    
    60   29   30 am   BACKBONE|DICT|INTERRES
    61   29  154 1    
    62   30   31 2    
    63   30   32 1    
    64   32   33 1    
    65   32   34 1    
    66   32  155 1    
    67   33  156 1    
    68   33  157 1    
    69   33  158 1    
    70   34   35 am   BACKBONE|DICT|INTERRES
    71   34  159 1    
    72   35   36 2    
    73   35   37 1    
    74   37   38 1    
    75   37   39 1    
    76   37  160 1    
    77   38  161 1    
    78   38  162 1    
    79   38  163 1    
    80   39   40 am   BACKBONE|DICT|INTERRES
    81   39  164 1    
    82   40   41 2    
    83   40   42 1    
    84   42   43 1    
    85   42   44 1    
    86   42  165 1    
    87   43  166 1    
    88   43  167 1    
    89   43  168 1    
    90   44   45 am   BACKBONE|DICT|INTERRES
    91   44  169 1    
    92   45   46 2    
    93   45   47 1    
    94   47   48 1    
    95   47   49 1    
    96   47  170 1    
    97   48  171 1    
    98   48  172 1    
    99   48  173 1    
   100   49   50 am   BACKBONE|DICT|INTERRES
   101   49  174 1    
   102   50   51 2    
   103   50   52 1    
   104   52   53 1    
   105   52   54 1    
   106   52  175 1    
   107   53  176 1    
   108   53  177 1    
   109   53  178 1    
   110   54   55 am   BACKBONE|DICT|INTERRES
   111   54  179 1    
   112   55   56 2    
   113   55   57 1    
   114   57   58 1    
   115   57   59 1    
   116   57  180 1    
   117   58  181 1    
   118   58  182 1    
   119   58  183 1    
   120   59   60 am   BACKBONE|DICT|INTERRES
   121   59  184 1    
   122   60   61 2    
   123   60   62 1    
   124   62   63 1    
   125   62   64 1    
   126   62  185 1    
   127   63  186 1    
   128   63  187 1    
   129   63  188 1    
   130   64   65 am   BACKBONE|DICT|INTERRES
   131   64  189 1    
   132   65   66 2    
   133   67   68 2    
   134   67   69 am   BACKBONE|DICT|INTERRES
   135   69   70 1    
   136   69  190 1    
   137   70   71 1    
   138   70   72 1    
   139   70  191 1    
   140   71  192 1    
   141   71  193 1    
   142   71  194 1    
   143   72   73 2    
   144   72   74 am   BACKBONE|DICT|INTERRES
   145   74   75 1    
   146   74  195 1    
   147   75   76 1    
   148   75   77 1    
   149   75  196 1    
   150   76  197 1    
   151   76  198 1    
   152   76  199 1    
   153   77   78 2    
   154   77   79 am   BACKBONE|DICT|INTERRES
   155   79   80 1    
   156   79  200 1    
   157   80   81 1    
   158   80   82 1    
   159   80  201 1    
   160   81  202 1    
   161   81  203 1    
   162   81  204 1    
   163   82   83 2    
   164   82   84 am   BACKBONE|DICT|INTERRES
   165   84   85 1    
   166   84  205 1    
   167   85   86 1    
   168   85   87 1    
   169   85  206 1    
   170   86  207 1    
   171   86  208 1    
   172   86  209 1    
   173   87   88 2    
   174   87   89 am   BACKBONE|DICT|INTERRES
   175   89   90 1    
   176   89  210 1    
   177   90   91 1    
   178   90   92 1    
   179   90  211 1    
   180   91  212 1    
   181   91  213 1    
   182   91  214 1    
   183   92   93 2    
   184   92   94 am   BACKBONE|DICT|INTERRES
   185   94   95 1    
   186   94  215 1    
   187   95   96 1    
   188   95   97 1    
   189   95  216 1    
   190   96  217 1    
   191   96  218 1    
   192   96  219 1    
   193   97   98 2    
   194   97   99 am   BACKBONE|DICT|INTERRES
   195   99  100 1    
   196   99  220 1    
   197  100  101 1    
   198  100  102 1    
   199  100  221 1    
   200  101  222 1    
   201  101  223 1    
   202  101  224 1    
   203  102  103 2    
   204  102  104 am   BACKBONE|DICT|INTERRES
   205  104  105 1    
   206  104  225 1    
   207  105  106 1    
   208  105  107 1    
   209  105  226 1    
   210  106  227 1    
   211  106  228 1    
   212  106  229 1    
   213  107  108 2    
   214  107  109 am   BACKBONE|DICT|INTERRES
   215  109  110 1    
   216  109  230 1    
   217  110  111 1    
   218  110  112 1    
   219  110  231 1    
   220  111  232 1    
   221  111  233 1    
   222  111  234 1    
   223  112  113 2    
   224  112  114 am   BACKBONE|DICT|INTERRES
   225  114  115 1    
   226  114  235 1    
   227  115  116 1    
   228  115  117 1    
   229  115  236 1    
   230  116  237 1    
   231  116  238 1    
   232  116  239 1    
   233  117  118 2    
   234  117  119 am   BACKBONE|DICT|INTERRES
   235  119  120 1    
   236  119  240 1    
   237  120  121 1    
   238  120  124 1    
   239  120  241 1    
   240  121  122 am   BACKBONE|DICT|INTERRES
   241  121  123 2    
   242  122  242 1    
   243  122  243 1    
   244  124  125 1    
   245  124  244 1    
   246  124  245 1    
   247  125  126 1    
   248  126  246 1    
   249  126  247 1    
@<TRIPOS>SUBSTRUCTURE
     1 UNK         1 GROUP             0       ****    0 ROOT    
