@<TRIPOS>MOLECULE
3R540
247   249    1
SMALL
USER_CHARGES


@<TRIPOS>ATOM
      1 CA         -5.1646  -14.1401  -48.8299 C.3       0 UNK        -0.1800 
      2 C          -3.7788  -13.6256  -49.1924 C.2       0 UNK         0.5000 
      3 O          -3.6266  -12.9187  -50.1883 O.2       0 UNK        -0.5000 
      4 N          -2.7670  -13.9850  -48.3937 N.am      1 UNK        -0.5000 
      5 CA         -1.3758  -13.5634  -48.5724 C.3       1 UNK         0.1400 
      6 C6         -0.4170  -14.4377  -47.7267 C.3       23 UNK        -0.0398 
      7 S7          1.3061  -14.3748  -48.3193 S.3       23 UNK        -0.2404 
      8 C8          1.8584  -16.0921  -48.0254 C.3       23 UNK        -0.0205 
      9 C9          1.5995  -17.0993  -49.1510 C.ar      23 UNK        -0.0193 
     10 C10         1.0724  -16.7445  -50.4021 C.ar      23 UNK        -0.1150 
     11 C11         0.9399  -17.6943  -51.4214 C.ar      23 UNK        -0.0193 
     12 C12         1.3311  -19.0148  -51.1757 C.ar      23 UNK        -0.1150 
     13 C13         1.8449  -19.3954  -49.9344 C.ar      23 UNK        -0.0193 
     14 C14         1.9743  -18.4286  -48.9302 C.ar      23 UNK        -0.1150 
     15 C15         2.3339  -20.8316  -49.7457 C.3       23 UNK        -0.0205 
     16 S16         2.1625  -21.4859  -48.0517 S.3       23 UNK        -0.2404 
     17 C17         0.3740  -21.8242  -47.9561 C.3       23 UNK        -0.0398 
     18 CA          0.0890  -23.1084  -47.1427 C.3       11 UNK         0.1400 
     19 N           0.3736  -22.9358  -45.7145 N.am      11 UNK        -0.5000 
     20 C           0.3861  -23.9285  -44.8143 C.2       10 UNK         0.5000 
     21 O           0.2232  -25.1128  -45.1047 O.2       10 UNK        -0.5000 
     22 CA          0.5439  -23.5280  -43.3358 C.3       10 UNK         0.1400 
     23 CB          2.0181  -23.2830  -42.9821 C.3       10 UNK        -0.1800 
     24 N          -0.2542  -22.3506  -42.9896 N.am      10 UNK        -0.5000 
     25 C          -1.5932  -22.3024  -43.0320 C.2       9 UNK         0.5000 
     26 O          -2.3000  -23.2716  -43.3036 O.2       9 UNK        -0.5000 
     27 CA         -2.2544  -20.9350  -42.7839 C.3       9 UNK         0.1400 
     28 CB         -2.4184  -20.6620  -41.2813 C.3       9 UNK        -0.1800 
     29 N          -1.5129  -19.8409  -43.4105 N.am      9 UNK        -0.5000 
     30 C          -1.4039  -19.6580  -44.7346 C.2       8 UNK         0.5000 
     31 O          -1.9605  -20.3663  -45.5743 O.2       8 UNK        -0.5000 
     32 CA         -0.4723  -18.5213  -45.1930 C.3       8 UNK         0.1400 
     33 CB         -1.2101  -17.1743  -45.1906 C.3       8 UNK        -0.1800 
     34 N           0.7259  -18.4247  -44.3568 N.am      8 UNK        -0.5000 
     35 C           1.6951  -19.3521  -44.3355 C.2       7 UNK         0.5000 
     36 O           1.6701  -20.3714  -45.0211 O.2       7 UNK        -0.5000 
     37 CA          2.8559  -19.1395  -43.3447 C.3       7 UNK         0.1400 
     38 CB          3.9130  -18.2051  -43.9520 C.3       7 UNK        -0.1800 
     39 N           2.4171  -18.6006  -42.0573 N.am      7 UNK        -0.5000 
     40 C           1.5360  -19.1897  -41.2362 C.2       6 UNK         0.5000 
     41 O           1.0756  -20.3134  -41.4326 O.2       6 UNK        -0.5000 
     42 CA          1.0426  -18.3758  -40.0214 C.3       6 UNK         0.1400 
     43 CB          1.7464  -18.8480  -38.7407 C.3       6 UNK        -0.1800 
     44 N           1.2054  -16.9219  -40.1492 N.am      6 UNK        -0.5000 
     45 C           0.6815  -16.1594  -41.1188 C.2       5 UNK         0.5000 
     46 O          -0.0033  -16.6067  -42.0452 O.2       5 UNK        -0.5000 
     47 CA          1.0283  -14.6631  -41.0739 C.3       5 UNK         0.1400 
     48 CB          2.5525  -14.4470  -41.1966 C.3       5 UNK        -0.1800 
     49 N           0.3414  -14.0091  -42.1804 N.am      5 UNK        -0.5000 
     50 C           0.2207  -12.6958  -42.3833 C.2       4 UNK         0.5000 
     51 O           0.6158  -11.8330  -41.5957 O.2       4 UNK        -0.5000 
     52 CA         -0.4210  -12.2772  -43.7190 C.3       4 UNK         0.1400 
     53 CB         -1.6266  -11.3502  -43.4971 C.3       4 UNK        -0.1800 
     54 N           0.5469  -11.6081  -44.5875 N.am      4 UNK        -0.5000 
     55 C           1.6676  -12.1595  -45.0732 C.2       3 UNK         0.5000 
     56 O           1.9954  -13.3307  -44.8766 O.2       3 UNK        -0.5000 
     57 CA          2.5192  -11.2579  -45.9853 C.3       3 UNK         0.1400 
     58 CB          3.8690  -11.8957  -46.3617 C.3       3 UNK        -0.1800 
     59 N           1.7680  -10.9912  -47.2075 N.am      3 UNK        -0.5000 
     60 C           0.9587   -9.9439  -47.4121 C.2       2 UNK         0.5000 
     61 O           0.8494   -8.9984  -46.6310 O.2       2 UNK        -0.5000 
     62 CA          0.0808  -10.0011  -48.6777 C.3       2 UNK         0.1400 
     63 CB          0.8314   -9.4242  -49.8874 C.3       2 UNK        -0.1800 
     64 N          -0.3524  -11.3686  -48.9803 N.am      2 UNK        -0.5000 
     65 C          -1.2090  -12.0694  -48.2241 C.2       1 UNK         0.5000 
     66 O          -1.8131  -11.5978  -47.2576 O.2       1 UNK        -0.5000 
     67 C          -1.3445  -23.6280  -47.3824 C.2       11 UNK         0.5000 
     68 O          -1.5280  -24.5367  -48.1928 O.2       11 UNK        -0.5000 
     69 N          -2.3298  -23.0946  -46.6453 N.am      12 UNK        -0.5000 
     70 CA         -3.7165  -23.5657  -46.6708 C.3       12 UNK         0.1400 
     71 CB         -4.6199  -22.5861  -45.9091 C.3       12 UNK        -0.1800 
     72 C          -3.8757  -25.0060  -46.1518 C.2       12 UNK         0.5000 
     73 O          -4.5822  -25.7944  -46.7799 O.2       12 UNK        -0.5000 
     74 N          -3.1746  -25.3478  -45.0620 N.am      13 UNK        -0.5000 
     75 CA         -3.1090  -26.7021  -44.5026 C.3       13 UNK         0.1400 
     76 CB         -2.3761  -26.6657  -43.1534 C.3       13 UNK        -0.1800 
     77 C          -2.4514  -27.7203  -45.4568 C.2       13 UNK         0.5000 
     78 O          -2.8591  -28.8817  -45.4824 O.2       13 UNK        -0.5000 
     79 N          -1.4823  -27.2553  -46.2564 N.am      14 UNK        -0.5000 
     80 CA         -0.8306  -28.0054  -47.3325 C.3       14 UNK         0.1400 
     81 CB          0.5392  -27.3673  -47.6187 C.3       14 UNK        -0.1800 
     82 C          -1.6747  -28.1013  -48.6242 C.2       14 UNK         0.5000 
     83 O          -1.2200  -28.7239  -49.5849 O.2       14 UNK        -0.5000 
     84 N          -2.8714  -27.4926  -48.6343 N.am      15 UNK        -0.5000 
     85 CA         -3.8385  -27.4291  -49.7356 C.3       15 UNK         0.1400 
     86 CB         -4.3455  -28.8353  -50.1200 C.3       15 UNK        -0.1800 
     87 C          -3.3413  -26.6076  -50.9441 C.2       15 UNK         0.5000 
     88 O          -3.7286  -26.8841  -52.0807 O.2       15 UNK        -0.5000 
     89 N          -2.5181  -25.5893  -50.6728 N.am      16 UNK        -0.5000 
     90 CA         -1.9980  -24.6241  -51.6372 C.3       16 UNK         0.1400 
     91 CB         -0.5011  -24.9027  -51.8659 C.3       16 UNK        -0.1800 
     92 C          -2.2716  -23.2087  -51.1004 C.2       16 UNK         0.5000 
     93 O          -1.3546  -22.3925  -51.0153 O.2       16 UNK        -0.5000 
     94 N          -3.5286  -22.9764  -50.6919 N.am      17 UNK        -0.5000 
     95 CA         -4.0132  -21.7797  -50.0020 C.3       17 UNK         0.1400 
     96 CB         -5.5271  -21.9141  -49.7764 C.3       17 UNK        -0.1800 
     97 C          -3.6920  -20.4602  -50.7227 C.2       17 UNK         0.5000 
     98 O          -3.8585  -20.3669  -51.9421 O.2       17 UNK        -0.5000 
     99 N          -3.2576  -19.4684  -49.9340 N.am      18 UNK        -0.5000 
    100 CA        -2.8395  -18.1473  -50.3925 C.3       18 UNK         0.1400 
    101 CB        -2.3596  -17.3229  -49.1942 C.3       18 UNK        -0.1800 
    102 C         -3.9479  -17.4109  -51.1657 C.2       18 UNK         0.5000 
    103 O         -5.1095  -17.4497  -50.7536 O.2       18 UNK        -0.5000 
    104 N         -3.5648  -16.7931  -52.2904 N.am      19 UNK        -0.5000 
    105 CA        -4.4009  -16.1606  -53.3207 C.3       19 UNK         0.1400 
    106 CB        -5.2746  -15.0261  -52.7541 C.3       19 UNK        -0.1800 
    107 C         -5.2437  -17.1642  -54.1320 C.2       19 UNK         0.5000 
    108 O         -5.2149  -17.1139  -55.3618 O.2       19 UNK        -0.5000 
    109 N         -5.9536  -18.0633  -53.4392 N.am      20 UNK        -0.5000 
    110 CA        -6.8540  -19.0715  -53.9985 C.3       20 UNK         0.1400 
    111 CB        -7.5381  -19.8296  -52.8508 C.3       20 UNK        -0.1800 
    112 C         -6.1605  -20.0451  -54.9678 C.2       20 UNK         0.5000 
    113 O         -6.6461  -20.2345  -56.0840 O.2       20 UNK        -0.5000 
    114 N         -5.0304  -20.6212  -54.5383 N.am      21 UNK        -0.5000 
    115 CA        -4.1861  -21.4756  -55.3747 C.3       21 UNK         0.1400 
    116 CB        -3.4771  -22.5076  -54.4847 C.3       21 UNK        -0.1800 
    117 C         -3.1500  -20.6574  -56.1662 C.2       21 UNK         0.5000 
    118 O         -2.7069  -21.1046  -57.2249 O.2       21 UNK        -0.5000 
    119 N         -2.7642  -19.4942  -55.6272 N.am      22 UNK        -0.5000 
    120 CA        -1.7119  -18.6213  -56.1720 C.3       22 UNK         0.1400 
    121 C         -2.1271  -17.8557  -57.4590 C.2       22 UNK         0.5000 
    122 N         -3.3939  -17.4974  -57.6300 N.am      22 UNK        -0.7600 
    123 O         -1.2882  -17.5856  -58.3138 O.2       22 UNK        -0.5000 
    124 C124       -1.1606  -17.6327  -55.1114 C.3       23 UNK        -0.0398 
    125 S125       -0.7370  -18.4489  -53.5354 S.3       23 UNK        -0.2404 
    126 C126        0.4443  -17.2693  -52.8032 C.3       23 UNK        -0.0205 
    127 H127       -5.1529  -14.7230  -47.9086 H         1 UNK         0.0600 
    128 H128       -5.5480  -14.7764  -49.6274 H         1 UNK         0.0600 
    129 H129       -5.8527  -13.3055  -48.6964 H         1 UNK         0.0600 
    130 H130       -2.9643  -14.5166  -47.5589 H         1 UNK         0.3000 
    131 H131       -1.1315  -13.7061  -49.6278 H         1 UNK         0.0600 
    132 H132       -0.4416  -14.1549  -46.6725 H         1 UNK         0.0800 
    133 H133       -0.7386  -15.4776  -47.7618 H         1 UNK         0.0800 
    134 H134        2.9348  -16.0592  -47.8515 H         1 UNK         0.0800 
    135 H135        1.4172  -16.4587  -47.0973 H         1 UNK         0.0800 
    136 H136        0.7945  -15.7217  -50.6072 H         1 UNK         0.1150 
    137 H137        1.2576  -19.7486  -51.9661 H         1 UNK         0.1150 
    138 H138        2.4030  -18.7019  -47.9762 H         1 UNK         0.1150 
    139 H139        1.8227  -21.5040  -50.4370 H         1 UNK         0.0800 
    140 H140        3.3899  -20.8628  -50.0157 H         1 UNK         0.0800 
    141 H141       -0.0067  -21.9214  -48.9709 H         1 UNK         0.0800 
    142 H142       -0.1300  -20.9601  -47.5220 H         1 UNK         0.0800 
    143 H143        0.7585  -23.8892  -47.5101 H         1 UNK         0.0600 
    144 H144        0.5975  -21.9933  -45.4086 H         1 UNK         0.3000 
    145 H145        0.1859  -24.3603  -42.7264 H         1 UNK         0.0600 
    146 H146        2.1348  -23.0372  -41.9265 H         1 UNK         0.0600 
    147 H147        2.6175  -24.1726  -43.1786 H         1 UNK         0.0600 
    148 H148        2.4444  -22.4667  -43.5643 H         1 UNK         0.0600 
    149 H149        0.2544  -21.5253  -42.6860 H         1 UNK         0.3000 
    150 H150       -3.2506  -20.9621  -43.2302 H         1 UNK         0.0600 
    151 H151       -3.0241  -21.4378  -40.8114 H         1 UNK         0.0600 
    152 H152       -2.9178  -19.7091  -41.1052 H         1 UNK         0.0600 
    153 H153       -1.4601  -20.6397  -40.7631 H         1 UNK         0.0600 
    154 H154       -0.9979  -19.2261  -42.7973 H         1 UNK         0.3000 
    155 H155       -0.1552  -18.7340  -46.2164 H         1 UNK         0.0600 
    156 H156       -1.6336  -16.9468  -44.2118 H         1 UNK         0.0600 
    157 H157       -0.5403  -16.3582  -45.4584 H         1 UNK         0.0600 
    158 H158       -2.0299  -17.1790  -45.9098 H         1 UNK         0.0600 
    159 H159        0.7629  -17.6533  -43.7006 H         1 UNK         0.3000 
    160 H160        3.3192  -20.1107  -43.1601 H         1 UNK         0.0600 
    161 H161        4.7797  -18.1112  -43.2975 H         1 UNK         0.0600 
    162 H162        3.5145  -17.2049  -44.1283 H         1 UNK         0.0600 
    163 H163        4.2693  -18.5896  -44.9088 H         1 UNK         0.0600 
    164 H164        2.7492  -17.6798  -41.8140 H         1 UNK         0.3000 
    165 H165       -0.0256  -18.5759  -39.9173 H         1 UNK         0.0600 
    166 H166        1.3355  -18.3556  -37.8591 H         1 UNK         0.0600 
    167 H167        1.6205  -19.9223  -38.5981 H         1 UNK         0.0600 
    168 H168        2.8175  -18.6444  -38.7723 H         1 UNK         0.0600 
    169 H169        1.7621  -16.4771  -39.4336 H         1 UNK         0.3000 
    170 H170        0.6644  -14.2515  -40.1307 H         1 UNK         0.0600 
    171 H171        2.8119  -13.3892  -41.1578 H         1 UNK         0.0600 
    172 H172        2.9375  -14.8462  -42.1362 H         1 UNK         0.0600 
    173 H173        3.0948  -14.9318  -40.3844 H         1 UNK         0.0600 
    174 H174       -0.0357  -14.6646  -42.8542 H         1 UNK         0.3000 
    175 H175       -0.7751  -13.1693  -44.2400 H         1 UNK         0.0600 
    176 H176       -2.1162  -11.1087  -44.4410 H         1 UNK         0.0600 
    177 H177       -1.3340  -10.4131  -43.0218 H         1 UNK         0.0600 
    178 H178       -2.3711  -11.8256  -42.8573 H         1 UNK         0.0600 
    179 H179        0.3503  -10.6440  -44.8182 H         1 UNK         0.3000 
    180 H180        2.7223  -10.3284  -45.4494 H         1 UNK         0.0600 
    181 H181        3.7382  -12.8307  -46.9080 H         1 UNK         0.0600 
    182 H182        4.4583  -12.1148  -45.4705 H         1 UNK         0.0600 
    183 H183        4.4598  -11.2247  -46.9853 H         1 UNK         0.0600 
    184 H184        1.7511  -11.7432  -47.8817 H         1 UNK         0.3000 
    185 H185       -0.8062   -9.3891  -48.4998 H         1 UNK         0.0600 
    186 H186        1.7233  -10.0054  -50.1249 H         1 UNK         0.0600 
    187 H187        0.1962   -9.4057  -50.7732 H         1 UNK         0.0600 
    188 H188        1.1494   -8.3986  -49.6953 H         1 UNK         0.0600 
    189 H189        0.0984  -11.8215  -49.7625 H         1 UNK         0.3000 
    190 H190       -2.1197  -22.3181  -46.0260 H         1 UNK         0.3000 
    191 H191       -4.0398  -23.5782  -47.7114 H         1 UNK         0.0600 
    192 H192       -4.5532  -21.5817  -46.3279 H         1 UNK         0.0600 
    193 H193       -5.6643  -22.8945  -45.9673 H         1 UNK         0.0600 
    194 H194       -4.3543  -22.5270  -44.8542 H         1 UNK         0.0600 
    195 H195       -2.6638  -24.6233  -44.5629 H         1 UNK         0.3000 
    196 H196       -4.1331  -27.0351  -44.3225 H         1 UNK         0.0600 
    197 H197       -2.3535  -27.6549  -42.6946 H         1 UNK         0.0600 
    198 H198       -2.8720  -25.9932  -42.4532 H         1 UNK         0.0600 
    199 H199       -1.3446  -26.3319  -43.2639 H         1 UNK         0.0600 
    200 H200       -1.1619  -26.3030  -46.1170 H         1 UNK         0.3000 
    201 H201       -0.6590  -29.0264  -46.9861 H         1 UNK         0.0600 
    202 H202        1.1504  -27.3233  -46.7170 H         1 UNK         0.0600 
    203 H203        0.4383  -26.3530  -48.0041 H         1 UNK         0.0600 
    204 H204        1.0954  -27.9442  -48.3584 H         1 UNK         0.0600 
    205 H205       -3.1498  -26.9902  -47.7998 H         1 UNK         0.3000 
    206 H206       -4.6940  -26.8787  -49.3423 H         1 UNK         0.0600 
    207 H207       -4.6903  -29.3833  -49.2431 H         1 UNK         0.0600 
    208 H208       -5.1862  -28.7713  -50.8117 H         1 UNK         0.0600 
    209 H209       -3.5710  -29.4295  -50.6053 H         1 UNK         0.0600 
    210 H210       -2.2537  -25.4087  -49.7059 H         1 UNK         0.3000 
    211 H211       -2.5175  -24.7099  -52.5933 H         1 UNK         0.0600 
    212 H212        0.0701  -24.8012  -50.9419 H         1 UNK         0.0600 
    213 H213       -0.0799  -24.2092  -52.5948 H         1 UNK         0.0600 
    214 H214       -0.3434  -25.9118  -52.2469 H         1 UNK         0.0600 
    215 H215       -4.2054  -23.7121  -50.8255 H         1 UNK         0.3000 
    216 H216       -3.5193  -21.7543  -49.0297 H         1 UNK         0.0600 
    217 H217       -5.9291  -21.0352  -49.2704 H         1 UNK         0.0600 
    218 H218       -5.7651  -22.7796  -49.1585 H         1 UNK         0.0600 
    219 H219       -6.0621  -22.0239  -50.7200 H         1 UNK         0.0600 
    220 H220       -3.1958  -19.6284  -48.9401 H         1 UNK         0.3000 
    221 H221       -1.9861  -18.3025  -51.0498 H         1 UNK         0.0600 
    222 H222       -3.1671  -17.1204  -48.4895 H         1 UNK         0.0600 
    223 H223       -1.5560  -17.8293  -48.6584 H         1 UNK         0.0600 
    224 H224       -1.9657  -16.3679  -49.5392 H         1 UNK         0.0600 
    225 H225       -2.5864  -16.8593  -52.5332 H         1 UNK         0.3000 
    226 H226       -3.7062  -15.6975  -54.0222 H         1 UNK         0.0600 
    227 H227       -4.6670  -14.2853  -52.2369 H         1 UNK         0.0600 
    228 H228       -5.8013  -14.5078  -53.5562 H         1 UNK         0.0600 
    229 H229       -6.0295  -15.3906  -52.0577 H         1 UNK         0.0600 
    230 H230       -5.8782  -18.0279  -52.4266 H         1 UNK         0.3000 
    231 H231       -7.6256  -18.5425  -54.5613 H         1 UNK         0.0600 
    232 H232       -6.8090  -20.3173  -52.2040 H         1 UNK         0.0600 
    233 H233       -8.2092  -20.5998  -53.2330 H         1 UNK         0.0600 
    234 H234       -8.1330  -19.1561  -52.2338 H         1 UNK         0.0600 
    235 H235       -4.6954  -20.4347  -53.5943 H         1 UNK         0.3000 
    236 H236       -4.8064  -22.0193  -56.0904 H         1 UNK         0.0600 
    237 H237       -4.1926  -23.0767  -53.8911 H         1 UNK         0.0600 
    238 H238       -2.9113  -23.2192  -55.0871 H         1 UNK         0.0600 
    239 H239       -2.7756  -22.0287  -53.8008 H         1 UNK         0.0600 
    240 H240       -3.1701  -19.2173  -54.7470 H         1 UNK         0.3000 
    241 H241       -0.8823  -19.2717  -56.4570 H         1 UNK         0.0600 
    242 H242       -4.0807  -17.6361  -56.8954 H         1 UNK         0.3800 
    243 H243       -3.6595  -17.0068  -58.4689 H         1 UNK         0.3800 
    244 H244       -0.2695  -17.1347  -55.4979 H         1 UNK         0.0800 
    245 H245       -1.8847  -16.8448  -54.9070 H         1 UNK         0.0800 
    246 H246       -0.0276  -16.2869  -52.7527 H         1 UNK         0.0800 
    247 H247        1.3061  -17.1696  -53.4644 H         1 UNK         0.0800 
@<TRIPOS>BOND
     1    1    2 1    
     2    1  127 1    
     3    1  128 1    
     4    1  129 1    
     5    2    3 2    
     6    2    4 am   BACKBONE|DICT|INTERRES
     7    4    5 1    
     8    4  130 1    
     9    5    6 1    
    10    5   65 1    
    11    5  131 1    
    12    6    7 1    
    13    6  132 1    
    14    6  133 1    
    15    7    8 1    
    16    8    9 1    
    17    8  134 1    
    18    8  135 1    
    19    9   10 ar   
    20    9   14 ar   
    21   10   11 ar   
    22   10  136 1    
    23   11   12 ar   
    24   11  126 1    
    25   12   13 ar   
    26   12  137 1    
    27   13   14 ar   
    28   13   15 1    
    29   14  138 1    
    30   15   16 1    
    31   15  139 1    
    32   15  140 1    
    33   16   17 1    
    34   17   18 1    
    35   17  141 1    
    36   17  142 1    
    37   18   19 1    
    38   18   67 1    
    39   18  143 1    
    40   19   20 am   BACKBONE|DICT|INTERRES
    41   19  144 1    
    42   20   21 2    
    43   20   22 1    
    44   22   23 1    
    45   22   24 1    
    46   22  145 1    
    47   23  146 1    
    48   23  147 1    
    49   23  148 1    
    50   24   25 am   BACKBONE|DICT|INTERRES
    51   24  149 1    
    52   25   26 2    
    53   25   27 1    
    54   27   28 1    
    55   27   29 1    
    56   27  150 1    
    57   28  151 1    
    58   28  152 1    
    59   28  153 1    
    60   29   30 am   BACKBONE|DICT|INTERRES
    61   29  154 1    
    62   30   31 2    
    63   30   32 1    
    64   32   33 1    
    65   32   34 1    
    66   32  155 1    
    67   33  156 1    
    68   33  157 1    
    69   33  158 1    
    70   34   35 am   BACKBONE|DICT|INTERRES
    71   34  159 1    
    72   35   36 2    
    73   35   37 1    
    74   37   38 1    
    75   37   39 1    
    76   37  160 1    
    77   38  161 1    
    78   38  162 1    
    79   38  163 1    
    80   39   40 am   BACKBONE|DICT|INTERRES
    81   39  164 1    
    82   40   41 2    
    83   40   42 1    
    84   42   43 1    
    85   42   44 1    
    86   42  165 1    
    87   43  166 1    
    88   43  167 1    
    89   43  168 1    
    90   44   45 am   BACKBONE|DICT|INTERRES
    91   44  169 1    
    92   45   46 2    
    93   45   47 1    
    94   47   48 1    
    95   47   49 1    
    96   47  170 1    
    97   48  171 1    
    98   48  172 1    
    99   48  173 1    
   100   49   50 am   BACKBONE|DICT|INTERRES
   101   49  174 1    
   102   50   51 2    
   103   50   52 1    
   104   52   53 1    
   105   52   54 1    
   106   52  175 1    
   107   53  176 1    
   108   53  177 1    
   109   53  178 1    
   110   54   55 am   BACKBONE|DICT|INTERRES
   111   54  179 1    
   112   55   56 2    
   113   55   57 1    
   114   57   58 1    
   115   57   59 1    
   116   57  180 1    
   117   58  181 1    
   118   58  182 1    
   119   58  183 1    
   120   59   60 am   BACKBONE|DICT|INTERRES
   121   59  184 1    
   122   60   61 2    
   123   60   62 1    
   124   62   63 1    
   125   62   64 1    
   126   62  185 1    
   127   63  186 1    
   128   63  187 1    
   129   63  188 1    
   130   64   65 am   BACKBONE|DICT|INTERRES
   131   64  189 1    
   132   65   66 2    
   133   67   68 2    
   134   67   69 am   BACKBONE|DICT|INTERRES
   135   69   70 1    
   136   69  190 1    
   137   70   71 1    
   138   70   72 1    
   139   70  191 1    
   140   71  192 1    
   141   71  193 1    
   142   71  194 1    
   143   72   73 2    
   144   72   74 am   BACKBONE|DICT|INTERRES
   145   74   75 1    
   146   74  195 1    
   147   75   76 1    
   148   75   77 1    
   149   75  196 1    
   150   76  197 1    
   151   76  198 1    
   152   76  199 1    
   153   77   78 2    
   154   77   79 am   BACKBONE|DICT|INTERRES
   155   79   80 1    
   156   79  200 1    
   157   80   81 1    
   158   80   82 1    
   159   80  201 1    
   160   81  202 1    
   161   81  203 1    
   162   81  204 1    
   163   82   83 2    
   164   82   84 am   BACKBONE|DICT|INTERRES
   165   84   85 1    
   166   84  205 1    
   167   85   86 1    
   168   85   87 1    
   169   85  206 1    
   170   86  207 1    
   171   86  208 1    
   172   86  209 1    
   173   87   88 2    
   174   87   89 am   BACKBONE|DICT|INTERRES
   175   89   90 1    
   176   89  210 1    
   177   90   91 1    
   178   90   92 1    
   179   90  211 1    
   180   91  212 1    
   181   91  213 1    
   182   91  214 1    
   183   92   93 2    
   184   92   94 am   BACKBONE|DICT|INTERRES
   185   94   95 1    
   186   94  215 1    
   187   95   96 1    
   188   95   97 1    
   189   95  216 1    
   190   96  217 1    
   191   96  218 1    
   192   96  219 1    
   193   97   98 2    
   194   97   99 am   BACKBONE|DICT|INTERRES
   195   99  100 1    
   196   99  220 1    
   197  100  101 1    
   198  100  102 1    
   199  100  221 1    
   200  101  222 1    
   201  101  223 1    
   202  101  224 1    
   203  102  103 2    
   204  102  104 am   BACKBONE|DICT|INTERRES
   205  104  105 1    
   206  104  225 1    
   207  105  106 1    
   208  105  107 1    
   209  105  226 1    
   210  106  227 1    
   211  106  228 1    
   212  106  229 1    
   213  107  108 2    
   214  107  109 am   BACKBONE|DICT|INTERRES
   215  109  110 1    
   216  109  230 1    
   217  110  111 1    
   218  110  112 1    
   219  110  231 1    
   220  111  232 1    
   221  111  233 1    
   222  111  234 1    
   223  112  113 2    
   224  112  114 am   BACKBONE|DICT|INTERRES
   225  114  115 1    
   226  114  235 1    
   227  115  116 1    
   228  115  117 1    
   229  115  236 1    
   230  116  237 1    
   231  116  238 1    
   232  116  239 1    
   233  117  118 2    
   234  117  119 am   BACKBONE|DICT|INTERRES
   235  119  120 1    
   236  119  240 1    
   237  120  121 1    
   238  120  124 1    
   239  120  241 1    
   240  121  122 am   BACKBONE|DICT|INTERRES
   241  121  123 2    
   242  122  242 1    
   243  122  243 1    
   244  124  125 1    
   245  124  244 1    
   246  124  245 1    
   247  125  126 1    
   248  126  246 1    
   249  126  247 1    
@<TRIPOS>SUBSTRUCTURE
     1 UNK         1 GROUP             0       ****    0 ROOT    
