@<TRIPOS>MOLECULE
3R540
247   249    1
SMALL
USER_CHARGES


@<TRIPOS>ATOM
      1 CA         -5.4924  -11.3784  -48.5306 C.3       0 UNK        -0.1800 
      2 C          -4.6037  -12.5167  -48.0531 C.2       0 UNK         0.5000 
      3 O          -3.4364  -12.2900  -47.7366 O.2       0 UNK        -0.5000 
      4 N          -5.1530  -13.7361  -47.9795 N.am      1 UNK        -0.5000 
      5 CA         -4.4489  -14.9697  -47.5986 C.3       1 UNK         0.1400 
      6 C6         -5.3572  -16.2192  -47.6952 C.3       23 UNK        -0.0398 
      7 S7         -6.1802  -16.4011  -49.3124 S.3       23 UNK        -0.2404 
      8 C8         -5.1515  -17.6731  -50.1067 C.3       23 UNK        -0.0205 
      9 C9         -3.8159  -17.1185  -50.5784 C.ar      23 UNK        -0.0193 
     10 C10        -3.7680  -16.2951  -51.7048 C.ar      23 UNK        -0.1150 
     11 C11        -2.5459  -15.8230  -52.1875 C.ar      23 UNK        -0.0193 
     12 C12        -1.3659  -16.1755  -51.5259 C.ar      23 UNK        -0.1150 
     13 C13        -1.3925  -16.9910  -50.3894 C.ar      23 UNK        -0.0193 
     14 C14        -2.6293  -17.4493  -49.9166 C.ar      23 UNK        -0.1150 
     15 C15        -0.0675  -17.3225  -49.6986 C.3       23 UNK        -0.0205 
     16 S16         0.0212  -18.9536  -48.8838 S.3       23 UNK        -0.2404 
     17 C17        -0.6376  -18.5772  -47.2259 C.3       23 UNK        -0.0398 
     18 CA         -1.6718  -19.6318  -46.7732 C.3       11 UNK         0.1400 
     19 N          -1.0623  -20.9439  -46.5353 N.am      11 UNK        -0.5000 
     20 C          -1.7473  -22.0941  -46.4853 C.2       10 UNK         0.5000 
     21 O          -2.9654  -22.1678  -46.6342 O.2       10 UNK        -0.5000 
     22 CA         -0.9432  -23.3615  -46.1507 C.3       10 UNK         0.1400 
     23 CB         -0.1900  -23.8684  -47.3879 C.3       10 UNK        -0.1800 
     24 N           0.0085  -23.1649  -45.0548 N.am      10 UNK        -0.5000 
     25 C          -0.3014  -22.7592  -43.8172 C.2       9 UNK         0.5000 
     26 O          -1.4493  -22.4812  -43.4706 O.2       9 UNK        -0.5000 
     27 CA          0.8414  -22.5866  -42.7966 C.3       9 UNK         0.1400 
     28 CB          0.8154  -23.7116  -41.7452 C.3       9 UNK        -0.1800 
     29 N           2.1900  -22.4195  -43.3583 N.am      9 UNK        -0.5000 
     30 C           2.9510  -23.3096  -44.0166 C.2       8 UNK         0.5000 
     31 O           2.5519  -24.4185  -44.3710 O.2       8 UNK        -0.5000 
     32 CA          4.3976  -22.8908  -44.3588 C.3       8 UNK         0.1400 
     33 CB          4.4939  -22.4730  -45.8346 C.3       8 UNK        -0.1800 
     34 N           4.9043  -21.7970  -43.5272 N.am      8 UNK        -0.5000 
     35 C           5.1124  -21.8565  -42.2039 C.2       7 UNK         0.5000 
     36 O           5.0346  -22.8973  -41.5503 O.2       7 UNK        -0.5000 
     37 CA          5.4279  -20.5303  -41.4773 C.3       7 UNK         0.1400 
     38 CB          6.9017  -20.4951  -41.0428 C.3       7 UNK        -0.1800 
     39 N           5.1336  -19.3081  -42.2388 N.am      7 UNK        -0.5000 
     40 C           3.9385  -18.9345  -42.7167 C.2       6 UNK         0.5000 
     41 O           2.9144  -19.6199  -42.6251 O.2       6 UNK        -0.5000 
     42 CA          3.9007  -17.5917  -43.4617 C.3       6 UNK         0.1400 
     43 CB          4.7408  -17.6431  -44.7529 C.3       6 UNK        -0.1800 
     44 N           2.5181  -17.2735  -43.7971 N.am      6 UNK        -0.5000 
     45 C           2.0296  -16.0497  -44.0160 C.2       5 UNK         0.5000 
     46 O           2.6895  -15.0139  -43.8985 O.2       5 UNK        -0.5000 
     47 CA          0.5406  -15.9859  -44.4074 C.3       5 UNK         0.1400 
     48 CB         -0.3462  -15.9376  -43.1553 C.3       5 UNK        -0.1800 
     49 N           0.2111  -14.8514  -45.2703 N.am      5 UNK        -0.5000 
     50 C           0.7269  -14.6008  -46.4826 C.2       4 UNK         0.5000 
     51 O           1.5606  -15.3257  -47.0271 O.2       4 UNK        -0.5000 
     52 CA          0.2169  -13.3508  -47.2360 C.3       4 UNK         0.1400 
     53 CB         -0.3955  -13.7341  -48.5938 C.3       4 UNK        -0.1800 
     54 N          -0.7792  -12.5810  -46.4909 N.am      4 UNK        -0.5000 
     55 C          -0.5205  -11.6983  -45.5178 C.2       3 UNK         0.5000 
     56 O           0.6138  -11.3995  -45.1452 O.2       3 UNK        -0.5000 
     57 CA         -1.7441  -11.0735  -44.8239 C.3       3 UNK         0.1400 
     58 CB         -2.2232   -9.8220  -45.5758 C.3       3 UNK        -0.1800 
     59 N          -2.8442  -12.0350  -44.7195 N.am      3 UNK        -0.5000 
     60 C          -2.9211  -12.9857  -43.7776 C.2       2 UNK         0.5000 
     61 O          -2.1156  -13.0902  -42.8535 O.2       2 UNK        -0.5000 
     62 CA         -4.0765  -13.9997  -43.8848 C.3       2 UNK         0.1400 
     63 CB         -5.2746  -13.5401  -43.0408 C.3       2 UNK        -0.1800 
     64 N          -4.5219  -14.2294  -45.2594 N.am      2 UNK        -0.5000 
     65 C          -3.8189  -14.8894  -46.1919 C.2       1 UNK         0.5000 
     66 O          -2.7107  -15.3821  -45.9920 O.2       1 UNK        -0.5000 
     67 C          -2.4775  -19.1304  -45.5588 C.2       11 UNK         0.5000 
     68 O          -3.4835  -18.4537  -45.7572 O.2       11 UNK        -0.5000 
     69 N          -2.0662  -19.5016  -44.3366 N.am      12 UNK        -0.5000 
     70 CA         -2.7991  -19.1929  -43.1046 C.3       12 UNK         0.1400 
     71 CB         -1.9081  -19.4655  -41.8821 C.3       12 UNK        -0.1800 
     72 C          -4.1230  -19.9770  -43.0139 C.2       12 UNK         0.5000 
     73 O          -5.1390  -19.4136  -42.6063 O.2       12 UNK        -0.5000 
     74 N          -4.0924  -21.2484  -43.4384 N.am      13 UNK        -0.5000 
     75 CA         -5.2714  -22.0979  -43.6233 C.3       13 UNK         0.1400 
     76 CB         -4.8118  -23.5583  -43.7573 C.3       13 UNK        -0.1800 
     77 C          -6.1167  -21.6902  -44.8485 C.2       13 UNK         0.5000 
     78 O          -7.3182  -21.9587  -44.8710 O.2       13 UNK        -0.5000 
     79 N          -5.4614  -21.0612  -45.8344 N.am      14 UNK        -0.5000 
     80 CA         -5.9556  -20.6484  -47.1484 C.3       14 UNK         0.1400 
     81 CB         -7.0340  -19.5540  -47.0162 C.3       14 UNK        -0.1800 
     82 C          -6.3979  -21.8589  -47.9935 C.2       14 UNK         0.5000 
     83 O          -7.4989  -21.8623  -48.5479 O.2       14 UNK        -0.5000 
     84 N          -5.5345  -22.8799  -48.0521 N.am      15 UNK        -0.5000 
     85 CA         -5.7985  -24.1584  -48.7051 C.3       15 UNK         0.1400 
     86 CB         -6.4588  -25.1072  -47.6879 C.3       15 UNK        -0.1800 
     87 C          -4.4999  -24.7635  -49.2575 C.2       15 UNK         0.5000 
     88 O          -3.4074  -24.3102  -48.9088 O.2       15 UNK        -0.5000 
     89 N          -4.6517  -25.7984  -50.0965 N.am      16 UNK        -0.5000 
     90 CA         -3.5936  -26.6283  -50.6817 C.3       16 UNK         0.1400 
     91 CB         -2.9885  -27.5491  -49.5970 C.3       16 UNK        -0.1800 
     92 C          -2.5481  -25.7909  -51.4474 C.2       16 UNK         0.5000 
     93 O          -2.8810  -25.2064  -52.4807 O.2       16 UNK        -0.5000 
     94 N          -1.3198  -25.7171  -50.9151 N.am      17 UNK        -0.5000 
     95 CA         -0.1858  -24.9745  -51.4689 C.3       17 UNK         0.1400 
     96 CB          1.0845  -25.3225  -50.6786 C.3       17 UNK        -0.1800 
     97 C          -0.3881  -23.4478  -51.5489 C.2       17 UNK         0.5000 
     98 O           0.3886  -22.7873  -52.2376 O.2       17 UNK        -0.5000 
     99 N          -1.4398  -22.9109  -50.9098 N.am      18 UNK        -0.5000 
    100 CA        -1.8835  -21.5238  -51.0670 C.3       18 UNK         0.1400 
    101 CB        -3.1143  -21.2727  -50.1869 C.3       18 UNK        -0.1800 
    102 C         -2.2024  -21.1540  -52.5270 C.2       18 UNK         0.5000 
    103 O         -1.8745  -20.0497  -52.9553 O.2       18 UNK        -0.5000 
    104 N         -2.7870  -22.0976  -53.2805 N.am      19 UNK        -0.5000 
    105 CA        -3.0795  -21.9380  -54.7054 C.3       19 UNK         0.1400 
    106 CB        -3.9704  -23.0966  -55.1767 C.3       19 UNK        -0.1800 
    107 C         -1.8013  -21.8476  -55.5588 C.2       19 UNK         0.5000 
    108 O         -1.7330  -21.0211  -56.4692 O.2       19 UNK        -0.5000 
    109 N         -0.7995  -22.6722  -55.2225 N.am      20 UNK        -0.5000 
    110 CA         0.5167  -22.6817  -55.8619 C.3       20 UNK         0.1400 
    111 CB         1.2771  -23.9532  -55.4536 C.3       20 UNK        -0.1800 
    112 C          1.3368  -21.4195  -55.5376 C.2       20 UNK         0.5000 
    113 O          2.0433  -20.9169  -56.4120 O.2       20 UNK        -0.5000 
    114 N          1.2120  -20.9221  -54.2992 N.am      21 UNK        -0.5000 
    115 CA         1.8160  -19.6735  -53.8373 C.3       21 UNK         0.1400 
    116 CB         1.6901  -19.5773  -52.3092 C.3       21 UNK        -0.1800 
    117 C          1.2004  -18.4372  -54.5185 C.2       21 UNK         0.5000 
    118 O          1.9407  -17.5423  -54.9291 O.2       21 UNK        -0.5000 
    119 N         -0.1340  -18.4146  -54.6326 N.am      22 UNK        -0.5000 
    120 CA        -0.8923  -17.3580  -55.3165 C.3       22 UNK         0.1400 
    121 C         -0.7169  -17.3657  -56.8610 C.2       22 UNK         0.5000 
    122 N         -0.7357  -18.5226  -57.5118 N.am      22 UNK        -0.7600 
    123 O         -0.5497  -16.3152  -57.4744 O.2       22 UNK        -0.5000 
    124 C124       -2.3878  -17.3915  -54.9112 C.3       23 UNK        -0.0398 
    125 S125       -3.1894  -15.7507  -54.9225 S.3       23 UNK        -0.2404 
    126 C126       -2.4950  -14.9472  -53.4335 C.3       23 UNK        -0.0205 
    127 H127       -6.5033  -11.7196  -48.7547 H         1 UNK         0.0600 
    128 H128       -5.0748  -10.9325  -49.4332 H         1 UNK         0.0600 
    129 H129       -5.5545  -10.6055  -47.7646 H         1 UNK         0.0600 
    130 H130       -6.1127  -13.8625  -48.2689 H         1 UNK         0.3000 
    131 H131       -3.6291  -15.0954  -48.3086 H         1 UNK         0.0600 
    132 H132       -6.1380  -16.1839  -46.9333 H         1 UNK         0.0800 
    133 H133       -4.7814  -17.1218  -47.4921 H         1 UNK         0.0800 
    134 H134       -5.0105  -18.5122  -49.4254 H         1 UNK         0.0800 
    135 H135       -5.6919  -18.0717  -50.9665 H         1 UNK         0.0800 
    136 H136       -4.6830  -16.0360  -52.2189 H         1 UNK         0.1150 
    137 H137       -0.4184  -15.8134  -51.8995 H         1 UNK         0.1150 
    138 H138       -2.6783  -18.0731  -49.0404 H         1 UNK         0.1150 
    139 H139        0.7374  -17.2899  -50.4337 H         1 UNK         0.0800 
    140 H140        0.1624  -16.5457  -48.9720 H         1 UNK         0.0800 
    141 H141       -1.0797  -17.5782  -47.2345 H         1 UNK         0.0800 
    142 H142        0.2014  -18.5364  -46.5313 H         1 UNK         0.0800 
    143 H143       -2.3975  -19.7540  -47.5786 H         1 UNK         0.0600 
    144 H144       -0.0606  -20.9698  -46.4158 H         1 UNK         0.3000 
    145 H145       -1.6538  -24.1307  -45.8415 H         1 UNK         0.0600 
    146 H146        0.3166  -24.8110  -47.1802 H         1 UNK         0.0600 
    147 H147       -0.8759  -24.0453  -48.2159 H         1 UNK         0.0600 
    148 H148        0.5583  -23.1522  -47.7296 H         1 UNK         0.0600 
    149 H149        0.9662  -23.4508  -45.2184 H         1 UNK         0.3000 
    150 H150        0.6341  -21.6515  -42.2740 H         1 UNK         0.0600 
    151 H151       -0.1499  -23.7487  -41.2387 H         1 UNK         0.0600 
    152 H152        1.5771  -23.5542  -40.9815 H         1 UNK         0.0600 
    153 H153        0.9849  -24.6914  -42.1923 H         1 UNK         0.0600 
    154 H154        2.6060  -21.5142  -43.1593 H         1 UNK         0.3000 
    155 H155        5.0377  -23.7613  -44.2019 H         1 UNK         0.0600 
    156 H156        3.8841  -21.5933  -46.0449 H         1 UNK         0.0600 
    157 H157        4.1521  -23.2740  -46.4917 H         1 UNK         0.0600 
    158 H158        5.5225  -22.2437  -46.1137 H         1 UNK         0.0600 
    159 H159        5.0074  -20.9001  -43.9773 H         1 UNK         0.3000 
    160 H160        4.8075  -20.5093  -40.5791 H         1 UNK         0.0600 
    161 H161        7.5730  -20.4836  -41.9024 H         1 UNK         0.0600 
    162 H162        7.1551  -21.3685  -40.4403 H         1 UNK         0.0600 
    163 H163        7.1146  -19.6141  -40.4370 H         1 UNK         0.0600 
    164 H164        5.9178  -18.6875  -42.3803 H         1 UNK         0.3000 
    165 H165        4.2988  -16.8265  -42.7920 H         1 UNK         0.0600 
    166 H166        4.7067  -16.6917  -45.2843 H         1 UNK         0.0600 
    167 H167        5.7898  -17.8511  -44.5403 H         1 UNK         0.0600 
    168 H168        4.3820  -18.4158  -45.4340 H         1 UNK         0.0600 
    169 H169        1.9070  -18.0799  -43.8069 H         1 UNK         0.3000 
    170 H170        0.2943  -16.8917  -44.9601 H         1 UNK         0.0600 
    171 H171       -0.1871  -15.0197  -42.5884 H         1 UNK         0.0600 
    172 H172       -1.4025  -15.9947  -43.4187 H         1 UNK         0.0600 
    173 H173       -0.1325  -16.7727  -42.4882 H         1 UNK         0.0600 
    174 H174       -0.4853  -14.2114  -44.9200 H         1 UNK         0.3000 
    175 H175        1.0817  -12.7113  -47.4235 H         1 UNK         0.0600 
    176 H176       -1.2204  -14.4379  -48.4770 H         1 UNK         0.0600 
    177 H177       -0.7778  -12.8579  -49.1178 H         1 UNK         0.0600 
    178 H178        0.3481  -14.1961  -49.2436 H         1 UNK         0.0600 
    179 H179       -1.7458  -12.7156  -46.7707 H         1 UNK         0.3000 
    180 H180       -1.4414  -10.7658  -43.8205 H         1 UNK         0.0600 
    181 H181       -3.0724   -9.3606  -45.0716 H         1 UNK         0.0600 
    182 H182       -2.5243  -10.0508  -46.5983 H         1 UNK         0.0600 
    183 H183       -1.4310   -9.0743  -45.6286 H         1 UNK         0.0600 
    184 H184       -3.5108  -12.0431  -45.4796 H         1 UNK         0.3000 
    185 H185       -3.7202  -14.9497  -43.4808 H         1 UNK         0.0600 
    186 H186       -6.0698  -14.2858  -43.0456 H         1 UNK         0.0600 
    187 H187       -4.9830  -13.3849  -42.0011 H         1 UNK         0.0600 
    188 H188       -5.6906  -12.6013  -43.4088 H         1 UNK         0.0600 
    189 H189       -5.4161  -13.8390  -45.5188 H         1 UNK         0.3000 
    190 H190       -1.2741  -20.1201  -44.2520 H         1 UNK         0.3000 
    191 H191       -3.0398  -18.1273  -43.1145 H         1 UNK         0.0600 
    192 H192       -2.3911  -19.1157  -40.9691 H         1 UNK         0.0600 
    193 H193       -0.9514  -18.9505  -41.9614 H         1 UNK         0.0600 
    194 H194       -1.7048  -20.5280  -41.7521 H         1 UNK         0.0600 
    195 H195       -3.1937  -21.6582  -43.6779 H         1 UNK         0.3000 
    196 H196       -5.9030  -22.0141  -42.7365 H         1 UNK         0.0600 
    197 H197       -4.1697  -23.6994  -44.6277 H         1 UNK         0.0600 
    198 H198       -4.2551  -23.8790  -42.8766 H         1 UNK         0.0600 
    199 H199       -5.6651  -24.2288  -43.8669 H         1 UNK         0.0600 
    200 H200       -4.4582  -20.9898  -45.7246 H         1 UNK         0.3000 
    201 H201       -5.1021  -20.2089  -47.6658 H         1 UNK         0.0600 
    202 H202       -7.9438  -19.9324  -46.5498 H         1 UNK         0.0600 
    203 H203       -7.3084  -19.1574  -47.9942 H         1 UNK         0.0600 
    204 H204       -6.6723  -18.7193  -46.4160 H         1 UNK         0.0600 
    205 H205       -4.6167  -22.7930  -47.6204 H         1 UNK         0.3000 
    206 H206       -6.4724  -24.0063  -49.5508 H         1 UNK         0.0600 
    207 H207       -6.6885  -26.0749  -48.1351 H         1 UNK         0.0600 
    208 H208       -5.8090  -25.2859  -46.8301 H         1 UNK         0.0600 
    209 H209       -7.3962  -24.6945  -47.3142 H         1 UNK         0.0600 
    210 H210       -5.5916  -26.0684  -50.3500 H         1 UNK         0.3000 
    211 H211       -4.0720  -27.2668  -51.4257 H         1 UNK         0.0600 
    212 H212       -2.2270  -28.2078  -50.0166 H         1 UNK         0.0600 
    213 H213       -3.7565  -28.1887  -49.1618 H         1 UNK         0.0600 
    214 H214       -2.5338  -26.9858  -48.7810 H         1 UNK         0.0600 
    215 H215       -1.1548  -26.2001  -50.0442 H         1 UNK         0.3000 
    216 H216       -0.0443  -25.3209  -52.4946 H         1 UNK         0.0600 
    217 H217        1.0061  -25.0264  -49.6338 H         1 UNK         0.0600 
    218 H218        1.9562  -24.8170  -51.0966 H         1 UNK         0.0600 
    219 H219        1.2877  -26.3931  -50.7099 H         1 UNK         0.0600 
    220 H220       -2.0265  -23.5135  -50.3433 H         1 UNK         0.3000 
    221 H221       -1.0730  -20.8780  -50.7296 H         1 UNK         0.0600 
    222 H222       -2.8993  -21.4891  -49.1440 H         1 UNK         0.0600 
    223 H223       -3.9598  -21.8915  -50.4891 H         1 UNK         0.0600 
    224 H224       -3.4305  -20.2322  -50.2479 H         1 UNK         0.0600 
    225 H225       -2.9853  -23.0027  -52.8706 H         1 UNK         0.3000 
    226 H226       -3.6338  -21.0060  -54.8360 H         1 UNK         0.0600 
    227 H227       -3.4781  -24.0617  -55.0500 H         1 UNK         0.0600 
    228 H228       -4.9076  -23.1241  -54.6206 H         1 UNK         0.0600 
    229 H229       -4.2216  -22.9912  -56.2329 H         1 UNK         0.0600 
    230 H230       -0.9270  -23.2883  -54.4340 H         1 UNK         0.3000 
    231 H231        0.3662  -22.7108  -56.9433 H         1 UNK         0.0600 
    232 H232        1.4691  -23.9856  -54.3810 H         1 UNK         0.0600 
    233 H233        2.2421  -24.0068  -55.9590 H         1 UNK         0.0600 
    234 H234        0.7196  -24.8505  -55.7226 H         1 UNK         0.0600 
    235 H235        0.6740  -21.4483  -53.6170 H         1 UNK         0.3000 
    236 H236        2.8784  -19.7016  -54.0880 H         1 UNK         0.0600 
    237 H237        2.1471  -20.4369  -51.8187 H         1 UNK         0.0600 
    238 H238        2.1897  -18.6840  -51.9334 H         1 UNK         0.0600 
    239 H239        0.6482  -19.5284  -51.9920 H         1 UNK         0.0600 
    240 H240       -0.6778  -19.1619  -54.2113 H         1 UNK         0.3000 
    241 H241       -0.4726  -16.4156  -54.9606 H         1 UNK         0.0600 
    242 H242       -0.6113  -18.5269  -58.5113 H         1 UNK         0.3800 
    243 H243       -0.9393  -19.3959  -57.0326 H         1 UNK         0.3800 
    244 H244       -2.5046  -17.8017  -53.9101 H         1 UNK         0.0800 
    245 H245       -2.9549  -18.0674  -55.5538 H         1 UNK         0.0800 
    246 H246       -1.4702  -14.6401  -53.6462 H         1 UNK         0.0800 
    247 H247       -3.0508  -14.0288  -53.2401 H         1 UNK         0.0800 
@<TRIPOS>BOND
     1    1    2 1    
     2    1  127 1    
     3    1  128 1    
     4    1  129 1    
     5    2    3 2    
     6    2    4 am   BACKBONE|DICT|INTERRES
     7    4    5 1    
     8    4  130 1    
     9    5    6 1    
    10    5   65 1    
    11    5  131 1    
    12    6    7 1    
    13    6  132 1    
    14    6  133 1    
    15    7    8 1    
    16    8    9 1    
    17    8  134 1    
    18    8  135 1    
    19    9   10 ar   
    20    9   14 ar   
    21   10   11 ar   
    22   10  136 1    
    23   11   12 ar   
    24   11  126 1    
    25   12   13 ar   
    26   12  137 1    
    27   13   14 ar   
    28   13   15 1    
    29   14  138 1    
    30   15   16 1    
    31   15  139 1    
    32   15  140 1    
    33   16   17 1    
    34   17   18 1    
    35   17  141 1    
    36   17  142 1    
    37   18   19 1    
    38   18   67 1    
    39   18  143 1    
    40   19   20 am   BACKBONE|DICT|INTERRES
    41   19  144 1    
    42   20   21 2    
    43   20   22 1    
    44   22   23 1    
    45   22   24 1    
    46   22  145 1    
    47   23  146 1    
    48   23  147 1    
    49   23  148 1    
    50   24   25 am   BACKBONE|DICT|INTERRES
    51   24  149 1    
    52   25   26 2    
    53   25   27 1    
    54   27   28 1    
    55   27   29 1    
    56   27  150 1    
    57   28  151 1    
    58   28  152 1    
    59   28  153 1    
    60   29   30 am   BACKBONE|DICT|INTERRES
    61   29  154 1    
    62   30   31 2    
    63   30   32 1    
    64   32   33 1    
    65   32   34 1    
    66   32  155 1    
    67   33  156 1    
    68   33  157 1    
    69   33  158 1    
    70   34   35 am   BACKBONE|DICT|INTERRES
    71   34  159 1    
    72   35   36 2    
    73   35   37 1    
    74   37   38 1    
    75   37   39 1    
    76   37  160 1    
    77   38  161 1    
    78   38  162 1    
    79   38  163 1    
    80   39   40 am   BACKBONE|DICT|INTERRES
    81   39  164 1    
    82   40   41 2    
    83   40   42 1    
    84   42   43 1    
    85   42   44 1    
    86   42  165 1    
    87   43  166 1    
    88   43  167 1    
    89   43  168 1    
    90   44   45 am   BACKBONE|DICT|INTERRES
    91   44  169 1    
    92   45   46 2    
    93   45   47 1    
    94   47   48 1    
    95   47   49 1    
    96   47  170 1    
    97   48  171 1    
    98   48  172 1    
    99   48  173 1    
   100   49   50 am   BACKBONE|DICT|INTERRES
   101   49  174 1    
   102   50   51 2    
   103   50   52 1    
   104   52   53 1    
   105   52   54 1    
   106   52  175 1    
   107   53  176 1    
   108   53  177 1    
   109   53  178 1    
   110   54   55 am   BACKBONE|DICT|INTERRES
   111   54  179 1    
   112   55   56 2    
   113   55   57 1    
   114   57   58 1    
   115   57   59 1    
   116   57  180 1    
   117   58  181 1    
   118   58  182 1    
   119   58  183 1    
   120   59   60 am   BACKBONE|DICT|INTERRES
   121   59  184 1    
   122   60   61 2    
   123   60   62 1    
   124   62   63 1    
   125   62   64 1    
   126   62  185 1    
   127   63  186 1    
   128   63  187 1    
   129   63  188 1    
   130   64   65 am   BACKBONE|DICT|INTERRES
   131   64  189 1    
   132   65   66 2    
   133   67   68 2    
   134   67   69 am   BACKBONE|DICT|INTERRES
   135   69   70 1    
   136   69  190 1    
   137   70   71 1    
   138   70   72 1    
   139   70  191 1    
   140   71  192 1    
   141   71  193 1    
   142   71  194 1    
   143   72   73 2    
   144   72   74 am   BACKBONE|DICT|INTERRES
   145   74   75 1    
   146   74  195 1    
   147   75   76 1    
   148   75   77 1    
   149   75  196 1    
   150   76  197 1    
   151   76  198 1    
   152   76  199 1    
   153   77   78 2    
   154   77   79 am   BACKBONE|DICT|INTERRES
   155   79   80 1    
   156   79  200 1    
   157   80   81 1    
   158   80   82 1    
   159   80  201 1    
   160   81  202 1    
   161   81  203 1    
   162   81  204 1    
   163   82   83 2    
   164   82   84 am   BACKBONE|DICT|INTERRES
   165   84   85 1    
   166   84  205 1    
   167   85   86 1    
   168   85   87 1    
   169   85  206 1    
   170   86  207 1    
   171   86  208 1    
   172   86  209 1    
   173   87   88 2    
   174   87   89 am   BACKBONE|DICT|INTERRES
   175   89   90 1    
   176   89  210 1    
   177   90   91 1    
   178   90   92 1    
   179   90  211 1    
   180   91  212 1    
   181   91  213 1    
   182   91  214 1    
   183   92   93 2    
   184   92   94 am   BACKBONE|DICT|INTERRES
   185   94   95 1    
   186   94  215 1    
   187   95   96 1    
   188   95   97 1    
   189   95  216 1    
   190   96  217 1    
   191   96  218 1    
   192   96  219 1    
   193   97   98 2    
   194   97   99 am   BACKBONE|DICT|INTERRES
   195   99  100 1    
   196   99  220 1    
   197  100  101 1    
   198  100  102 1    
   199  100  221 1    
   200  101  222 1    
   201  101  223 1    
   202  101  224 1    
   203  102  103 2    
   204  102  104 am   BACKBONE|DICT|INTERRES
   205  104  105 1    
   206  104  225 1    
   207  105  106 1    
   208  105  107 1    
   209  105  226 1    
   210  106  227 1    
   211  106  228 1    
   212  106  229 1    
   213  107  108 2    
   214  107  109 am   BACKBONE|DICT|INTERRES
   215  109  110 1    
   216  109  230 1    
   217  110  111 1    
   218  110  112 1    
   219  110  231 1    
   220  111  232 1    
   221  111  233 1    
   222  111  234 1    
   223  112  113 2    
   224  112  114 am   BACKBONE|DICT|INTERRES
   225  114  115 1    
   226  114  235 1    
   227  115  116 1    
   228  115  117 1    
   229  115  236 1    
   230  116  237 1    
   231  116  238 1    
   232  116  239 1    
   233  117  118 2    
   234  117  119 am   BACKBONE|DICT|INTERRES
   235  119  120 1    
   236  119  240 1    
   237  120  121 1    
   238  120  124 1    
   239  120  241 1    
   240  121  122 am   BACKBONE|DICT|INTERRES
   241  121  123 2    
   242  122  242 1    
   243  122  243 1    
   244  124  125 1    
   245  124  244 1    
   246  124  245 1    
   247  125  126 1    
   248  126  246 1    
   249  126  247 1    
@<TRIPOS>SUBSTRUCTURE
     1 UNK         1 GROUP             0       ****    0 ROOT    
