@<TRIPOS>MOLECULE
3R540
247   249    1
SMALL
USER_CHARGES


@<TRIPOS>ATOM
      1 CA          3.6930  -15.0722  -48.2623 C.3       0 UNK        -0.1800 
      2 C           2.5348  -14.6276  -47.3817 C.2       0 UNK         0.5000 
      3 O           2.6577  -14.6230  -46.1581 O.2       0 UNK        -0.5000 
      4 N           1.4120  -14.2405  -48.0007 N.am      1 UNK        -0.5000 
      5 CA          0.1463  -13.8911  -47.3380 C.3       1 UNK         0.1400 
      6 C6         -1.0067  -13.7847  -48.3718 C.3       23 UNK        -0.0398 
      7 S7         -2.6484  -14.2794  -47.7387 S.3       23 UNK        -0.2404 
      8 C8         -2.4539  -16.0497  -47.3353 C.3       23 UNK        -0.0205 
      9 C9         -1.9126  -16.8786  -48.4910 C.ar      23 UNK        -0.0193 
     10 C10        -2.7797  -17.4107  -49.4476 C.ar      23 UNK        -0.1150 
     11 C11        -2.2854  -18.1919  -50.4961 C.ar      23 UNK        -0.0193 
     12 C12        -0.9097  -18.4283  -50.5915 C.ar      23 UNK        -0.1150 
     13 C13        -0.0303  -17.8798  -49.6546 C.ar      23 UNK        -0.0193 
     14 C14        -0.5418  -17.1284  -48.5946 C.ar      23 UNK        -0.1150 
     15 C15         1.4746  -18.0526  -49.8102 C.3       23 UNK        -0.0205 
     16 S16         2.0600  -19.7173  -49.3727 S.3       23 UNK        -0.2404 
     17 C17         1.6708  -19.8035  -47.5913 C.3       23 UNK        -0.0398 
     18 CA          0.9768  -21.1273  -47.2017 C.3       11 UNK         0.1400 
     19 N           0.9546  -21.3151  -45.7509 N.am      11 UNK        -0.5000 
     20 C           0.6361  -22.4631  -45.1383 C.2       10 UNK         0.5000 
     21 O           0.3769  -23.5071  -45.7351 O.2       10 UNK        -0.5000 
     22 CA          0.5407  -22.4264  -43.6034 C.3       10 UNK         0.1400 
     23 CB          1.9324  -22.5463  -42.9651 C.3       10 UNK        -0.1800 
     24 N          -0.1235  -21.2180  -43.1156 N.am      10 UNK        -0.5000 
     25 C          -1.3968  -20.8918  -43.3771 C.2       9 UNK         0.5000 
     26 O          -2.1667  -21.6069  -44.0168 O.2       9 UNK        -0.5000 
     27 CA         -1.8791  -19.5184  -42.8801 C.3       9 UNK         0.1400 
     28 CB         -2.2739  -19.5779  -41.3969 C.3       9 UNK        -0.1800 
     29 N          -0.8836  -18.4653  -43.0836 N.am      9 UNK        -0.5000 
     30 C          -0.4888  -18.0138  -44.2825 C.2       8 UNK         0.5000 
     31 O          -0.9161  -18.4452  -45.3528 O.2       8 UNK        -0.5000 
     32 CA          0.5997  -16.9240  -44.2777 C.3       8 UNK         0.1400 
     33 CB          0.0042  -15.5653  -43.8776 C.3       8 UNK        -0.1800 
     34 N           1.7056  -17.2376  -43.3741 N.am      8 UNK        -0.5000 
     35 C           2.4838  -18.3261  -43.4580 C.2       7 UNK         0.5000 
     36 O           2.3987  -19.1663  -44.3542 O.2       7 UNK        -0.5000 
     37 CA          3.4773  -18.5416  -42.3025 C.3       7 UNK         0.1400 
     38 CB          4.7195  -17.6570  -42.4840 C.3       7 UNK        -0.1800 
     39 N           2.8737  -18.2739  -40.9946 N.am      7 UNK        -0.5000 
     40 C           1.8299  -18.9306  -40.4706 C.2       6 UNK         0.5000 
     41 O           1.2890  -19.8870  -41.0227 O.2       6 UNK        -0.5000 
     42 CA          1.2415  -18.4069  -39.1447 C.3       6 UNK         0.1400 
     43 CB          1.9940  -18.9794  -37.9284 C.3       6 UNK        -0.1800 
     44 N           1.1198  -16.9421  -39.0863 N.am      6 UNK        -0.5000 
     45 C           2.0986  -16.0304  -39.0305 C.2       5 UNK         0.5000 
     46 O           3.2968  -16.3108  -38.9385 O.2       5 UNK        -0.5000 
     47 CA          1.6623  -14.5566  -39.1284 C.3       5 UNK         0.1400 
     48 CB          1.3585  -13.9889  -37.7338 C.3       5 UNK        -0.1800 
     49 N           2.6977  -13.7398  -39.7609 N.am      5 UNK        -0.5000 
     50 C           3.1064  -13.8724  -41.0289 C.2       4 UNK         0.5000 
     51 O           2.5673  -14.6119  -41.8587 O.2       4 UNK        -0.5000 
     52 CA          4.3635  -13.0806  -41.4059 C.3       4 UNK         0.1400 
     53 CB          5.6268  -13.8517  -40.9713 C.3       4 UNK        -0.1800 
     54 N           4.3779  -12.8411  -42.8450 N.am      4 UNK        -0.5000 
     55 C           5.1938  -11.9869  -43.4735 C.2       3 UNK         0.5000 
     56 O           6.0265  -11.2833  -42.8997 O.2       3 UNK        -0.5000 
     57 CA          5.0506  -11.8918  -45.0005 C.3       3 UNK         0.1400 
     58 CB          5.7018  -13.1023  -45.6862 C.3       3 UNK        -0.1800 
     59 N           3.6556  -11.7568  -45.4278 N.am      3 UNK        -0.5000 
     60 C           2.9526  -10.6176  -45.3151 C.2       2 UNK         0.5000 
     61 O           3.4117   -9.5941  -44.8054 O.2       2 UNK        -0.5000 
     62 CA          1.5173  -10.5875  -45.8794 C.3       2 UNK         0.1400 
     63 CB          1.2814   -9.3423  -46.7533 C.3       2 UNK        -0.1800 
     64 N           1.2165  -11.7762  -46.6774 N.am      2 UNK        -0.5000 
     65 C           0.2304  -12.6455  -46.4257 C.2       1 UNK         0.5000 
     66 O          -0.5774  -12.5126  -45.5061 O.2       1 UNK        -0.5000 
     67 C          -0.4310  -21.2763  -47.8203 C.2       11 UNK         0.5000 
     68 O          -0.5780  -21.9858  -48.8160 O.2       11 UNK        -0.5000 
     69 N          -1.4496  -20.6718  -47.1904 N.am      12 UNK        -0.5000 
     70 CA         -2.8529  -20.8081  -47.5873 C.3       12 UNK         0.1400 
     71 CB         -3.7279  -19.8754  -46.7387 C.3       12 UNK        -0.1800 
     72 C          -3.3608  -22.2598  -47.4993 C.2       12 UNK         0.5000 
     73 O          -4.0638  -22.7112  -48.4042 O.2       12 UNK        -0.5000 
     74 N          -2.9674  -22.9739  -46.4354 N.am      13 UNK        -0.5000 
     75 CA         -3.2533  -24.3936  -46.2326 C.3       13 UNK         0.1400 
     76 CB         -2.8706  -24.8029  -44.8027 C.3       13 UNK        -0.1800 
     77 C          -2.5556  -25.2921  -47.2697 C.2       13 UNK         0.5000 
     78 O          -3.1954  -26.1951  -47.8081 O.2       13 UNK        -0.5000 
     79 N          -1.2799  -25.0080  -47.5711 N.am      14 UNK        -0.5000 
     80 CA         -0.4924  -25.6939  -48.6015 C.3       14 UNK         0.1400 
     81 CB          0.9712  -25.2340  -48.5255 C.3       14 UNK        -0.1800 
     82 C          -1.0556  -25.4922  -50.0220 C.2       14 UNK         0.5000 
     83 O          -1.0313  -26.4242  -50.8261 O.2       14 UNK        -0.5000 
     84 N          -1.6003  -24.2972  -50.2839 N.am      15 UNK        -0.5000 
     85 CA         -2.3303  -23.9425  -51.5024 C.3       15 UNK         0.1400 
     86 CB         -2.3029  -22.4152  -51.6591 C.3       15 UNK        -0.1800 
     87 C          -3.7844  -24.4637  -51.5284 C.2       15 UNK         0.5000 
     88 O          -4.5000  -24.1810  -52.4909 O.2       15 UNK        -0.5000 
     89 N          -4.2087  -25.1802  -50.4753 N.am      16 UNK        -0.5000 
     90 CA         -5.5301  -25.7804  -50.2724 C.3       16 UNK         0.1400 
     91 CB         -5.7296  -26.9735  -51.2284 C.3       16 UNK        -0.1800 
     92 C          -6.6726  -24.7458  -50.3203 C.2       16 UNK         0.5000 
     93 O          -7.6974  -24.9801  -50.9630 O.2       16 UNK        -0.5000 
     94 N          -6.4521  -23.6099  -49.6405 N.am      17 UNK        -0.5000 
     95 CA         -7.3227  -22.4331  -49.5689 C.3       17 UNK         0.1400 
     96 CB         -8.6556  -22.7654  -48.8653 C.3       17 UNK        -0.1800 
     97 C          -7.5012  -21.7563  -50.9434 C.2       17 UNK         0.5000 
     98 O          -8.6130  -21.3640  -51.3014 O.2       17 UNK        -0.5000 
     99 N          -6.3829  -21.6361  -51.6758 N.am      18 UNK        -0.5000 
    100 CA        -6.2572  -21.0791  -53.0260 C.3       18 UNK         0.1400 
    101 CB        -6.6550  -19.5870  -53.0504 C.3       18 UNK        -0.1800 
    102 C         -7.0302  -21.9160  -54.0633 C.2       18 UNK         0.5000 
    103 O         -7.8959  -21.3882  -54.7651 O.2       18 UNK        -0.5000 
    104 N         -6.7156  -23.2172  -54.1302 N.am      19 UNK        -0.5000 
    105 CA        -7.2677  -24.1574  -55.1057 C.3       19 UNK         0.1400 
    106 CB        -6.8370  -25.5854  -54.7414 C.3       19 UNK        -0.1800 
    107 C         -6.8318  -23.7742  -56.5319 C.2       19 UNK         0.5000 
    108 O         -5.6678  -23.9630  -56.8882 O.2       19 UNK        -0.5000 
    109 N         -7.7626  -23.1716  -57.2834 N.am      20 UNK        -0.5000 
    110 CA        -7.6113  -22.4997  -58.5808 C.3       20 UNK         0.1400 
    111 CB        -7.0070  -23.4232  -59.6566 C.3       20 UNK        -0.1800 
    112 C         -6.8582  -21.1560  -58.4923 C.2       20 UNK         0.5000 
    113 O         -7.3210  -20.1728  -59.0723 O.2       20 UNK        -0.5000 
    114 N         -5.7411  -21.1197  -57.7587 N.am      21 UNK        -0.5000 
    115 CA        -4.9165  -19.9449  -57.4939 C.3       21 UNK         0.1400 
    116 CB        -4.1099  -19.5701  -58.7541 C.3       21 UNK        -0.1800 
    117 C         -3.9796  -20.2411  -56.3119 C.2       21 UNK         0.5000 
    118 O         -3.8654  -21.3940  -55.8896 O.2       21 UNK        -0.5000 
    119 N         -3.3030  -19.1990  -55.8158 N.am      22 UNK        -0.5000 
    120 CA        -2.2322  -19.3091  -54.8078 C.3       22 UNK         0.1400 
    121 C         -0.8505  -19.7400  -55.3851 C.2       22 UNK         0.5000 
    122 N         -0.6679  -19.8302  -56.6972 N.am      22 UNK        -0.7600 
    123 O          0.0744  -20.0088  -54.6242 O.2       22 UNK        -0.5000 
    124 C124       -2.0971  -18.0156  -53.9620 C.3       23 UNK        -0.0398 
    125 S125       -3.5631  -17.6993  -52.9245 S.3       23 UNK        -0.2404 
    126 C126       -3.2473  -18.7973  -51.5045 C.3       23 UNK        -0.0205 
    127 H127        3.3859  -15.1982  -49.3006 H         1 UNK         0.0600 
    128 H128        4.0886  -16.0242  -47.9083 H         1 UNK         0.0600 
    129 H129        4.4947  -14.3362  -48.2346 H         1 UNK         0.0600 
    130 H130        1.3918  -14.2314  -49.0108 H         1 UNK         0.3000 
    131 H131       -0.0637  -14.7246  -46.6698 H         1 UNK         0.0600 
    132 H132       -0.8051  -14.4104  -49.2419 H         1 UNK         0.0800 
    133 H133       -1.0802  -12.7714  -48.7709 H         1 UNK         0.0800 
    134 H134       -3.4271  -16.4387  -47.0335 H         1 UNK         0.0800 
    135 H135       -1.8142  -16.1614  -46.4620 H         1 UNK         0.0800 
    136 H136       -3.8416  -17.2237  -49.3704 H         1 UNK         0.1150 
    137 H137       -0.5173  -19.0344  -51.3957 H         1 UNK         0.1150 
    138 H138        0.1323  -16.7259  -47.8543 H         1 UNK         0.1150 
    139 H139        1.7506  -17.8466  -50.8452 H         1 UNK         0.0800 
    140 H140        2.0096  -17.3215  -49.2040 H         1 UNK         0.0800 
    141 H141        1.0722  -18.9494  -47.2760 H         1 UNK         0.0800 
    142 H142        2.6168  -19.7134  -47.0557 H         1 UNK         0.0800 
    143 H143        1.5852  -21.9401  -47.6046 H         1 UNK         0.0600 
    144 H144        1.1999  -20.5092  -45.1836 H         1 UNK         0.3000 
    145 H145       -0.0542  -23.2852  -43.2860 H         1 UNK         0.0600 
    146 H146        1.8639  -22.5928  -41.8781 H         1 UNK         0.0600 
    147 H147        2.4385  -23.4529  -43.2990 H         1 UNK         0.0600 
    148 H148        2.5689  -21.6997  -43.2231 H         1 UNK         0.0600 
    149 H149        0.4303  -20.6011  -42.5266 H         1 UNK         0.3000 
    150 H150       -2.7682  -19.2522  -43.4556 H         1 UNK         0.0600 
    151 H151       -3.0514  -20.3250  -41.2327 H         1 UNK         0.0600 
    152 H152       -2.6664  -18.6207  -41.0536 H         1 UNK         0.0600 
    153 H153       -1.4285  -19.8427  -40.7619 H         1 UNK         0.0600 
    154 H154       -0.4468  -18.0858  -42.2582 H         1 UNK         0.3000 
    155 H155        0.9998  -16.8451  -45.2905 H         1 UNK         0.0600 
    156 H156       -0.3006  -15.5497  -42.8307 H         1 UNK         0.0600 
    157 H157       -0.8739  -15.3193  -44.4743 H         1 UNK         0.0600 
    158 H158        0.7298  -14.7644  -44.0222 H         1 UNK         0.0600 
    159 H159        1.8919  -16.5644  -42.6400 H         1 UNK         0.3000 
    160 H160        3.7917  -19.5870  -42.3189 H         1 UNK         0.0600 
    161 H161        5.4473  -17.8286  -41.6908 H         1 UNK         0.0600 
    162 H162        4.4616  -16.5977  -42.4798 H         1 UNK         0.0600 
    163 H163        5.2141  -17.8697  -43.4326 H         1 UNK         0.0600 
    164 H164        3.2558  -17.5031  -40.4548 H         1 UNK         0.3000 
    165 H165        0.2186  -18.7830  -39.0918 H         1 UNK         0.0600 
    166 H166        1.5560  -18.6300  -36.9935 H         1 UNK         0.0600 
    167 H167        1.9449  -20.0689  -37.9234 H         1 UNK         0.0600 
    168 H168        3.0490  -18.7053  -37.9288 H         1 UNK         0.0600 
    169 H169        0.1718  -16.5998  -39.1617 H         1 UNK         0.3000 
    170 H170        0.7598  -14.4948  -39.7403 H         1 UNK         0.0600 
    171 H171        0.5680  -14.5580  -37.2428 H         1 UNK         0.0600 
    172 H172        2.2359  -14.0211  -37.0863 H         1 UNK         0.0600 
    173 H173        1.0225  -12.9535  -37.7934 H         1 UNK         0.0600 
    174 H174        3.2249  -13.1404  -39.1431 H         1 UNK         0.3000 
    175 H175        4.3288  -12.1176  -40.8920 H         1 UNK         0.0600 
    176 H176        5.7403  -14.7814  -41.5289 H         1 UNK         0.0600 
    177 H177        6.5304  -13.2615  -41.1215 H         1 UNK         0.0600 
    178 H178        5.5876  -14.1093  -39.9120 H         1 UNK         0.0600 
    179 H179        3.6985  -13.3785  -43.3698 H         1 UNK         0.3000 
    180 H180        5.5960  -11.0030  -45.3261 H         1 UNK         0.0600 
    181 H181        5.1850  -14.0327  -45.4499 H         1 UNK         0.0600 
    182 H182        6.7394  -13.2169  -45.3699 H         1 UNK         0.0600 
    183 H183        5.7087  -12.9799  -46.7685 H         1 UNK         0.0600 
    184 H184        3.2019  -12.5910  -45.7804 H         1 UNK         0.3000 
    185 H185        0.8532  -10.5249  -45.0152 H         1 UNK         0.0600 
    186 H186        1.4382   -8.4243  -46.1856 H         1 UNK         0.0600 
    187 H187        1.9556   -9.3195  -47.6102 H         1 UNK         0.0600 
    188 H188        0.2590   -9.3155  -47.1306 H         1 UNK         0.0600 
    189 H189        1.8350  -11.9636  -47.4539 H         1 UNK         0.3000 
    190 H190       -1.2541  -20.0626  -46.4013 H         1 UNK         0.3000 
    191 H191       -2.9307  -20.4916  -48.6292 H         1 UNK         0.0600 
    192 H192       -3.7154  -20.1550  -45.6855 H         1 UNK         0.0600 
    193 H193       -4.7652  -19.9020  -47.0744 H         1 UNK         0.0600 
    194 H194       -3.3878  -18.8439  -46.8108 H         1 UNK         0.0600 
    195 H195       -2.4448  -22.5047  -45.7007 H         1 UNK         0.3000 
    196 H196       -4.3304  -24.5340  -46.3453 H         1 UNK         0.0600 
    197 H197       -3.1027  -25.8531  -44.6218 H         1 UNK         0.0600 
    198 H198       -3.4194  -24.2165  -44.0656 H         1 UNK         0.0600 
    199 H199       -1.8064  -24.6643  -44.6131 H         1 UNK         0.0600 
    200 H200       -0.8023  -24.2808  -47.0451 H         1 UNK         0.3000 
    201 H201       -0.5229  -26.7634  -48.3839 H         1 UNK         0.0600 
    202 H202        1.3991  -25.4414  -47.5446 H         1 UNK         0.0600 
    203 H203        1.0678  -24.1647  -48.7135 H         1 UNK         0.0600 
    204 H204        1.5828  -25.7538  -49.2639 H         1 UNK         0.0600 
    205 H205       -1.5045  -23.5627  -49.5883 H         1 UNK         0.3000 
    206 H206       -1.8156  -24.3809  -52.3595 H         1 UNK         0.0600 
    207 H207       -2.7857  -22.1069  -52.5872 H         1 UNK         0.0600 
    208 H208       -2.8185  -21.9235  -50.8337 H         1 UNK         0.0600 
    209 H209       -1.2802  -22.0378  -51.6855 H         1 UNK         0.0600 
    210 H210       -3.5566  -25.3315  -49.7154 H         1 UNK         0.3000 
    211 H211       -5.5353  -26.1766  -49.2563 H         1 UNK         0.0600 
    212 H212       -5.6796  -26.6685  -52.2722 H         1 UNK         0.0600 
    213 H213       -6.6958  -27.4532  -51.0683 H         1 UNK         0.0600 
    214 H214       -4.9627  -27.7314  -51.0691 H         1 UNK         0.0600 
    215 H215       -5.5516  -23.4966  -49.1774 H         1 UNK         0.3000 
    216 H216       -6.7982  -21.7093  -48.9433 H         1 UNK         0.0600 
    217 H217       -9.2378  -21.8604  -48.6884 H         1 UNK         0.0600 
    218 H218       -8.4833  -23.2340  -47.8965 H         1 UNK         0.0600 
    219 H219       -9.2741  -23.4387  -49.4592 H         1 UNK         0.0600 
    220 H220       -5.5440  -22.0552  -51.3016 H         1 UNK         0.3000 
    221 H221       -5.2005  -21.1443  -53.2905 H         1 UNK         0.0600 
    222 H222       -7.7302  -19.4466  -52.9364 H         1 UNK         0.0600 
    223 H223       -6.1697  -19.0293  -52.2520 H         1 UNK         0.0600 
    224 H224       -6.3652  -19.1265  -53.9955 H         1 UNK         0.0600 
    225 H225       -5.9731  -23.5736  -53.5326 H         1 UNK         0.3000 
    226 H226       -8.3571  -24.1136  -55.0441 H         1 UNK         0.0600 
    227 H227       -7.1827  -26.3018  -55.4875 H         1 UNK         0.0600 
    228 H228       -5.7520  -25.6759  -54.6731 H         1 UNK         0.0600 
    229 H229       -7.2635  -25.8834  -53.7839 H         1 UNK         0.0600 
    230 H230       -8.6614  -23.0165  -56.8471 H         1 UNK         0.3000 
    231 H231       -8.6280  -22.2633  -58.8990 H         1 UNK         0.0600 
    232 H232       -7.5557  -24.3625  -59.7248 H         1 UNK         0.0600 
    233 H233       -5.9608  -23.6572  -59.4590 H         1 UNK         0.0600 
    234 H234       -7.0496  -22.9492  -60.6379 H         1 UNK         0.0600 
    235 H235       -5.4295  -21.9690  -57.2929 H         1 UNK         0.3000 
    236 H236       -5.5667  -19.1148  -57.2104 H         1 UNK         0.0600 
    237 H237       -3.4863  -18.6925  -58.5815 H         1 UNK         0.0600 
    238 H238       -3.4551  -20.3850  -59.0655 H         1 UNK         0.0600 
    239 H239       -4.7641  -19.3314  -59.5925 H         1 UNK         0.0600 
    240 H240       -3.4557  -18.2785  -56.2016 H         1 UNK         0.3000 
    241 H241       -2.5045  -20.1150  -54.1250 H         1 UNK         0.0600 
    242 H242        0.2316  -20.1161  -57.0512 H         1 UNK         0.3800 
    243 H243       -1.4133  -19.6183  -57.3393 H         1 UNK         0.3800 
    244 H244       -1.2184  -18.0473  -53.3190 H         1 UNK         0.0800 
    245 H245       -1.9477  -17.1545  -54.6150 H         1 UNK         0.0800 
    246 H246       -4.1931  -19.0203  -51.0098 H         1 UNK         0.0800 
    247 H247       -2.8642  -19.7513  -51.8585 H         1 UNK         0.0800 
@<TRIPOS>BOND
     1    1    2 1    
     2    1  127 1    
     3    1  128 1    
     4    1  129 1    
     5    2    3 2    
     6    2    4 am   BACKBONE|DICT|INTERRES
     7    4    5 1    
     8    4  130 1    
     9    5    6 1    
    10    5   65 1    
    11    5  131 1    
    12    6    7 1    
    13    6  132 1    
    14    6  133 1    
    15    7    8 1    
    16    8    9 1    
    17    8  134 1    
    18    8  135 1    
    19    9   10 ar   
    20    9   14 ar   
    21   10   11 ar   
    22   10  136 1    
    23   11   12 ar   
    24   11  126 1    
    25   12   13 ar   
    26   12  137 1    
    27   13   14 ar   
    28   13   15 1    
    29   14  138 1    
    30   15   16 1    
    31   15  139 1    
    32   15  140 1    
    33   16   17 1    
    34   17   18 1    
    35   17  141 1    
    36   17  142 1    
    37   18   19 1    
    38   18   67 1    
    39   18  143 1    
    40   19   20 am   BACKBONE|DICT|INTERRES
    41   19  144 1    
    42   20   21 2    
    43   20   22 1    
    44   22   23 1    
    45   22   24 1    
    46   22  145 1    
    47   23  146 1    
    48   23  147 1    
    49   23  148 1    
    50   24   25 am   BACKBONE|DICT|INTERRES
    51   24  149 1    
    52   25   26 2    
    53   25   27 1    
    54   27   28 1    
    55   27   29 1    
    56   27  150 1    
    57   28  151 1    
    58   28  152 1    
    59   28  153 1    
    60   29   30 am   BACKBONE|DICT|INTERRES
    61   29  154 1    
    62   30   31 2    
    63   30   32 1    
    64   32   33 1    
    65   32   34 1    
    66   32  155 1    
    67   33  156 1    
    68   33  157 1    
    69   33  158 1    
    70   34   35 am   BACKBONE|DICT|INTERRES
    71   34  159 1    
    72   35   36 2    
    73   35   37 1    
    74   37   38 1    
    75   37   39 1    
    76   37  160 1    
    77   38  161 1    
    78   38  162 1    
    79   38  163 1    
    80   39   40 am   BACKBONE|DICT|INTERRES
    81   39  164 1    
    82   40   41 2    
    83   40   42 1    
    84   42   43 1    
    85   42   44 1    
    86   42  165 1    
    87   43  166 1    
    88   43  167 1    
    89   43  168 1    
    90   44   45 am   BACKBONE|DICT|INTERRES
    91   44  169 1    
    92   45   46 2    
    93   45   47 1    
    94   47   48 1    
    95   47   49 1    
    96   47  170 1    
    97   48  171 1    
    98   48  172 1    
    99   48  173 1    
   100   49   50 am   BACKBONE|DICT|INTERRES
   101   49  174 1    
   102   50   51 2    
   103   50   52 1    
   104   52   53 1    
   105   52   54 1    
   106   52  175 1    
   107   53  176 1    
   108   53  177 1    
   109   53  178 1    
   110   54   55 am   BACKBONE|DICT|INTERRES
   111   54  179 1    
   112   55   56 2    
   113   55   57 1    
   114   57   58 1    
   115   57   59 1    
   116   57  180 1    
   117   58  181 1    
   118   58  182 1    
   119   58  183 1    
   120   59   60 am   BACKBONE|DICT|INTERRES
   121   59  184 1    
   122   60   61 2    
   123   60   62 1    
   124   62   63 1    
   125   62   64 1    
   126   62  185 1    
   127   63  186 1    
   128   63  187 1    
   129   63  188 1    
   130   64   65 am   BACKBONE|DICT|INTERRES
   131   64  189 1    
   132   65   66 2    
   133   67   68 2    
   134   67   69 am   BACKBONE|DICT|INTERRES
   135   69   70 1    
   136   69  190 1    
   137   70   71 1    
   138   70   72 1    
   139   70  191 1    
   140   71  192 1    
   141   71  193 1    
   142   71  194 1    
   143   72   73 2    
   144   72   74 am   BACKBONE|DICT|INTERRES
   145   74   75 1    
   146   74  195 1    
   147   75   76 1    
   148   75   77 1    
   149   75  196 1    
   150   76  197 1    
   151   76  198 1    
   152   76  199 1    
   153   77   78 2    
   154   77   79 am   BACKBONE|DICT|INTERRES
   155   79   80 1    
   156   79  200 1    
   157   80   81 1    
   158   80   82 1    
   159   80  201 1    
   160   81  202 1    
   161   81  203 1    
   162   81  204 1    
   163   82   83 2    
   164   82   84 am   BACKBONE|DICT|INTERRES
   165   84   85 1    
   166   84  205 1    
   167   85   86 1    
   168   85   87 1    
   169   85  206 1    
   170   86  207 1    
   171   86  208 1    
   172   86  209 1    
   173   87   88 2    
   174   87   89 am   BACKBONE|DICT|INTERRES
   175   89   90 1    
   176   89  210 1    
   177   90   91 1    
   178   90   92 1    
   179   90  211 1    
   180   91  212 1    
   181   91  213 1    
   182   91  214 1    
   183   92   93 2    
   184   92   94 am   BACKBONE|DICT|INTERRES
   185   94   95 1    
   186   94  215 1    
   187   95   96 1    
   188   95   97 1    
   189   95  216 1    
   190   96  217 1    
   191   96  218 1    
   192   96  219 1    
   193   97   98 2    
   194   97   99 am   BACKBONE|DICT|INTERRES
   195   99  100 1    
   196   99  220 1    
   197  100  101 1    
   198  100  102 1    
   199  100  221 1    
   200  101  222 1    
   201  101  223 1    
   202  101  224 1    
   203  102  103 2    
   204  102  104 am   BACKBONE|DICT|INTERRES
   205  104  105 1    
   206  104  225 1    
   207  105  106 1    
   208  105  107 1    
   209  105  226 1    
   210  106  227 1    
   211  106  228 1    
   212  106  229 1    
   213  107  108 2    
   214  107  109 am   BACKBONE|DICT|INTERRES
   215  109  110 1    
   216  109  230 1    
   217  110  111 1    
   218  110  112 1    
   219  110  231 1    
   220  111  232 1    
   221  111  233 1    
   222  111  234 1    
   223  112  113 2    
   224  112  114 am   BACKBONE|DICT|INTERRES
   225  114  115 1    
   226  114  235 1    
   227  115  116 1    
   228  115  117 1    
   229  115  236 1    
   230  116  237 1    
   231  116  238 1    
   232  116  239 1    
   233  117  118 2    
   234  117  119 am   BACKBONE|DICT|INTERRES
   235  119  120 1    
   236  119  240 1    
   237  120  121 1    
   238  120  124 1    
   239  120  241 1    
   240  121  122 am   BACKBONE|DICT|INTERRES
   241  121  123 2    
   242  122  242 1    
   243  122  243 1    
   244  124  125 1    
   245  124  244 1    
   246  124  245 1    
   247  125  126 1    
   248  126  246 1    
   249  126  247 1    
@<TRIPOS>SUBSTRUCTURE
     1 UNK         1 GROUP             0       ****    0 ROOT    
