@<TRIPOS>MOLECULE
3R540
247   249    1
SMALL
USER_CHARGES


@<TRIPOS>ATOM
      1 CA         -2.0471  -11.4212  -47.1872 C.3       0 UNK        -0.1800 
      2 C          -0.5708  -11.7698  -47.0731 C.2       0 UNK         0.5000 
      3 O          -0.1393  -12.2604  -46.0304 O.2       0 UNK        -0.5000 
      4 N           0.2018  -11.5281  -48.1407 N.am      1 UNK        -0.5000 
      5 CA          1.6440  -11.7854  -48.2541 C.3       1 UNK         0.1400 
      6 C6          2.0142  -13.2963  -48.2058 C.3       23 UNK        -0.0398 
      7 S7          1.1342  -14.3193  -49.4364 S.3       23 UNK        -0.2404 
      8 C8          0.0445  -15.2647  -48.3280 C.3       23 UNK        -0.0205 
      9 C9         -0.6200  -16.4381  -49.0252 C.ar      23 UNK        -0.0193 
     10 C10        -1.9576  -16.3677  -49.4252 C.ar      23 UNK        -0.1150 
     11 C11        -2.5793  -17.4742  -50.0127 C.ar      23 UNK        -0.0193 
     12 C12        -1.8589  -18.6600  -50.1778 C.ar      23 UNK        -0.1150 
     13 C13        -0.5238  -18.7461  -49.7724 C.ar      23 UNK        -0.0193 
     14 C14         0.0967  -17.6206  -49.2213 C.ar      23 UNK        -0.1150 
     15 C15         0.2219  -20.0656  -49.9390 C.3       23 UNK        -0.0205 
     16 S16         1.3159  -20.5337  -48.5505 S.3       23 UNK        -0.2404 
     17 C17         0.3141  -20.2073  -47.0584 C.3       23 UNK        -0.0398 
     18 CA         -0.6104  -21.3746  -46.6417 C.3       11 UNK         0.1400 
     19 N          -0.8463  -21.3641  -45.1970 N.am      11 UNK        -0.5000 
     20 C          -1.5187  -22.2947  -44.5081 C.2       10 UNK         0.5000 
     21 O          -1.9998  -23.3098  -45.0100 O.2       10 UNK        -0.5000 
     22 CA         -1.7288  -22.0108  -43.0118 C.3       10 UNK         0.1400 
     23 CB         -0.4840  -22.3985  -42.1995 C.3       10 UNK        -0.1800 
     24 N          -2.0576  -20.6059  -42.7677 N.am      10 UNK        -0.5000 
     25 C          -3.2182  -20.0320  -43.1139 C.2       9 UNK         0.5000 
     26 O          -4.1457  -20.6347  -43.6533 O.2       9 UNK        -0.5000 
     27 CA         -3.3442  -18.5202  -42.8526 C.3       9 UNK         0.1400 
     28 CB         -3.6536  -18.2449  -41.3734 C.3       9 UNK        -0.1800 
     29 N          -2.1476  -17.7755  -43.2481 N.am      9 UNK        -0.5000 
     30 C          -1.7095  -17.6712  -44.5101 C.2       8 UNK         0.5000 
     31 O          -2.2643  -18.1953  -45.4734 O.2       8 UNK        -0.5000 
     32 CA         -0.4097  -16.8835  -44.7346 C.3       8 UNK         0.1400 
     33 CB         -0.7066  -15.3807  -44.8289 C.3       8 UNK        -0.1800 
     34 N           0.6262  -17.1056  -43.7244 N.am      8 UNK        -0.5000 
     35 C           1.1325  -18.2941  -43.3596 C.2       7 UNK         0.5000 
     36 O           0.6650  -19.3781  -43.7139 O.2       7 UNK        -0.5000 
     37 CA          2.3982  -18.2398  -42.4785 C.3       7 UNK         0.1400 
     38 CB          3.0985  -19.6064  -42.3340 C.3       7 UNK        -0.1800 
     39 N           3.3318  -17.2105  -42.9491 N.am      7 UNK        -0.5000 
     40 C           3.9101  -17.1233  -44.1584 C.2       6 UNK         0.5000 
     41 O           3.8664  -18.0117  -45.0095 O.2       6 UNK        -0.5000 
     42 CA          4.6181  -15.7978  -44.5000 C.3       6 UNK         0.1400 
     43 CB          3.8046  -15.0262  -45.5518 C.3       6 UNK        -0.1800 
     44 N           4.7934  -14.9402  -43.3262 N.am      6 UNK        -0.5000 
     45 C           5.8751  -14.9428  -42.5353 C.2       5 UNK         0.5000 
     46 O           6.8859  -15.6089  -42.7602 O.2       5 UNK        -0.5000 
     47 CA          5.8088  -14.0756  -41.2629 C.3       5 UNK         0.1400 
     48 CB          6.4754  -12.7121  -41.4967 C.3       5 UNK        -0.1800 
     49 N           4.4378  -13.8776  -40.7823 N.am      5 UNK        -0.5000 
     50 C           3.7128  -14.8332  -40.1807 C.2       4 UNK         0.5000 
     51 O           4.1371  -15.9665  -39.9567 O.2       4 UNK        -0.5000 
     52 CA          2.2591  -14.4947  -39.7990 C.3       4 UNK         0.1400 
     53 CB          2.1831  -14.0241  -38.3390 C.3       4 UNK        -0.1800 
     54 N           1.6351  -13.4879  -40.6580 N.am      4 UNK        -0.5000 
     55 C           1.4093  -13.6184  -41.9714 C.2       3 UNK         0.5000 
     56 O           1.7262  -14.6191  -42.6195 O.2       3 UNK        -0.5000 
     57 CA          0.7403  -12.4313  -42.6945 C.3       3 UNK         0.1400 
     58 CB          0.2917  -11.2844  -41.7611 C.3       3 UNK        -0.1800 
     59 N           1.5805  -11.9071  -43.7726 N.am      3 UNK        -0.5000 
     60 C           2.8365  -11.4414  -43.6726 C.2       2 UNK         0.5000 
     61 O           3.4676  -11.4192  -42.6146 O.2       2 UNK        -0.5000 
     62 CA          3.5006  -10.9316  -44.9689 C.3       2 UNK         0.1400 
     63 CB          5.0204  -11.1773  -44.9854 C.3       2 UNK        -0.1800 
     64 N           2.8938  -11.5637  -46.1402 N.am      2 UNK        -0.5000 
     65 C           2.4154  -10.9305  -47.2190 C.2       1 UNK         0.5000 
     66 O           2.5251   -9.7173  -47.4060 O.2       1 UNK        -0.5000 
     67 C          -1.9331  -21.3631  -47.4373 C.2       11 UNK         0.5000 
     68 O          -2.0914  -22.1583  -48.3649 O.2       11 UNK        -0.5000 
     69 N          -2.8693  -20.4907  -47.0362 N.am      12 UNK        -0.5000 
     70 CA         -4.2069  -20.3769  -47.6124 C.3       12 UNK         0.1400 
     71 CB         -4.8737  -19.0834  -47.1232 C.3       12 UNK        -0.1800 
     72 C          -5.0923  -21.5968  -47.3077 C.2       12 UNK         0.5000 
     73 O          -5.8163  -22.0413  -48.1975 O.2       12 UNK        -0.5000 
     74 N          -4.9973  -22.1446  -46.0862 N.am      13 UNK        -0.5000 
     75 CA         -5.6994  -23.3639  -45.6696 C.3       13 UNK         0.1400 
     76 CB         -5.5400  -23.5688  -44.1559 C.3       13 UNK        -0.1800 
     77 C          -5.2333  -24.6128  -46.4417 C.2       13 UNK         0.5000 
     78 O          -6.0629  -25.4389  -46.8231 O.2       13 UNK        -0.5000 
     79 N          -3.9213  -24.7022  -46.6985 N.am      14 UNK        -0.5000 
     80 CA         -3.3026  -25.7109  -47.5618 C.3       14 UNK         0.1400 
     81 CB         -1.7987  -25.7683  -47.2492 C.3       14 UNK        -0.1800 
     82 C          -3.5171  -25.4373  -49.0648 C.2       14 UNK         0.5000 
     83 O          -3.2141  -26.3064  -49.8833 O.2       14 UNK        -0.5000 
     84 N          -3.9837  -24.2257  -49.4035 N.am      15 UNK        -0.5000 
     85 CA         -4.1782  -23.6690  -50.7447 C.3       15 UNK         0.1400 
     86 CB         -5.3964  -24.3217  -51.4191 C.3       15 UNK        -0.1800 
     87 C          -2.8976  -23.7430  -51.5985 C.2       15 UNK         0.5000 
     88 O          -2.9432  -24.1645  -52.7576 O.2       15 UNK        -0.5000 
     89 N          -1.7642  -23.4055  -50.9630 N.am      16 UNK        -0.5000 
     90 CA         -0.3848  -23.4743  -51.4671 C.3       16 UNK         0.1400 
     91 CB         -0.1963  -22.4709  -52.6245 C.3       16 UNK        -0.1800 
     92 C           0.0821  -24.8900  -51.8807 C.2       16 UNK         0.5000 
     93 O           1.1193  -25.0105  -52.5335 O.2       16 UNK        -0.5000 
     94 N          -0.7084  -25.9244  -51.5477 N.am      17 UNK        -0.5000 
     95 CA         -0.6627  -27.2923  -52.0796 C.3       17 UNK         0.1400 
     96 CB          0.6412  -28.0087  -51.6716 C.3       17 UNK        -0.1800 
     97 C          -0.9387  -27.3661  -53.6021 C.2       17 UNK         0.5000 
     98 O          -0.6281  -28.3805  -54.2289 O.2       17 UNK        -0.5000 
     99 N          -1.5182  -26.2980  -54.1681 N.am      18 UNK        -0.5000 
    100 CA        -1.8145  -26.1374  -55.5908 C.3       18 UNK         0.1400 
    101 CB        -1.2985  -24.7608  -56.0405 C.3       18 UNK        -0.1800 
    102 C         -3.3205  -26.2526  -55.8818 C.2       18 UNK         0.5000 
    103 O         -3.6788  -26.6251  -56.9995 O.2       18 UNK        -0.5000 
    104 N         -4.1521  -25.9417  -54.8741 N.am      19 UNK        -0.5000 
    105 CA        -5.6145  -25.8305  -54.8851 C.3       19 UNK         0.1400 
    106 CB        -6.3085  -27.0683  -55.4871 C.3       19 UNK        -0.1800 
    107 C         -6.0842  -24.5244  -55.5534 C.2       19 UNK         0.5000 
    108 O         -5.6572  -24.2027  -56.6635 O.2       19 UNK        -0.5000 
    109 N         -6.9659  -23.7972  -54.8498 N.am      20 UNK        -0.5000 
    110 CA        -7.5907  -22.5267  -55.2467 C.3       20 UNK         0.1400 
    111 CB        -8.5741  -22.7524  -56.4143 C.3       20 UNK        -0.1800 
    112 C         -6.5857  -21.3849  -55.5263 C.2       20 UNK         0.5000 
    113 O         -6.8631  -20.5138  -56.3531 O.2       20 UNK        -0.5000 
    114 N         -5.4457  -21.3947  -54.8173 N.am      21 UNK        -0.5000 
    115 CA        -4.3028  -20.4912  -55.0075 C.3       21 UNK         0.1400 
    116 CB        -3.1894  -20.8817  -54.0241 C.3       21 UNK        -0.1800 
    117 C         -4.6230  -18.9875  -54.8851 C.2       21 UNK         0.5000 
    118 O         -3.9849  -18.1801  -55.5621 O.2       21 UNK        -0.5000 
    119 N         -5.6134  -18.6516  -54.0512 N.am      22 UNK        -0.5000 
    120 CA        -6.1661  -17.2967  -53.8836 C.3       22 UNK         0.1400 
    121 C         -7.6579  -17.2101  -54.3256 C.2       22 UNK         0.5000 
    122 N         -8.1732  -18.1444  -55.1174 N.am      22 UNK        -0.7600 
    123 O         -8.3648  -16.2738  -53.9625 O.2       22 UNK        -0.5000 
    124 C124       -5.9338  -16.7485  -52.4491 C.3       23 UNK        -0.0398 
    125 S125       -4.1595  -16.5478  -52.0673 S.3       23 UNK        -0.2404 
    126 C126       -4.0290  -17.3934  -50.4641 C.3       23 UNK        -0.0205 
    127 H127       -2.2913  -11.0031  -48.1639 H         1 UNK         0.0600 
    128 H128       -2.3192  -10.6911  -46.4250 H         1 UNK         0.0600 
    129 H129       -2.6534  -12.3145  -47.0375 H         1 UNK         0.0600 
    130 H130       -0.2172  -11.1058  -48.9571 H         1 UNK         0.3000 
    131 H131        1.9402  -11.4119  -49.2355 H         1 UNK         0.0600 
    132 H132        3.0835  -13.4230  -48.3844 H         1 UNK         0.0800 
    133 H133        1.8221  -13.7097  -47.2164 H         1 UNK         0.0800 
    134 H134        0.6266  -15.6469  -47.4890 H         1 UNK         0.0800 
    135 H135       -0.7077  -14.5978  -47.9059 H         1 UNK         0.0800 
    136 H136       -2.5165  -15.4539  -49.2807 H         1 UNK         0.1150 
    137 H137       -2.3414  -19.5202  -50.6205 H         1 UNK         0.1150 
    138 H138        1.1307  -17.6734  -48.9106 H         1 UNK         0.1150 
    139 H139       -0.4931  -20.8741  -50.0829 H         1 UNK         0.0800 
    140 H140        0.8181  -20.0159  -50.8507 H         1 UNK         0.0800 
    141 H141       -0.2376  -19.2715  -47.1394 H         1 UNK         0.0800 
    142 H142        1.0464  -20.0282  -46.2701 H         1 UNK         0.0800 
    143 H143       -0.1029  -22.3159  -46.8629 H         1 UNK         0.0600 
    144 H144       -0.4548  -20.5803  -44.6808 H         1 UNK         0.3000 
    145 H145       -2.5639  -22.6239  -42.6667 H         1 UNK         0.0600 
    146 H146       -0.6460  -22.2451  -41.1325 H         1 UNK         0.0600 
    147 H147       -0.2390  -23.4516  -42.3431 H         1 UNK         0.0600 
    148 H148        0.3899  -21.8163  -42.4934 H         1 UNK         0.0600 
    149 H149       -1.3191  -20.0244  -42.3986 H         1 UNK         0.3000 
    150 H150       -4.1813  -18.1511  -43.4492 H         1 UNK         0.0600 
    151 H151       -4.5501  -18.7797  -41.0567 H         1 UNK         0.0600 
    152 H152       -3.8314  -17.1836  -41.1991 H         1 UNK         0.0600 
    153 H153       -2.8364  -18.5599  -40.7233 H         1 UNK         0.0600 
    154 H154       -1.6198  -17.3253  -42.5153 H         1 UNK         0.3000 
    155 H155        0.0042  -17.2098  -45.6903 H         1 UNK         0.0600 
    156 H156        0.1899  -14.8165  -45.0856 H         1 UNK         0.0600 
    157 H157       -1.0897  -14.9888  -43.8865 H         1 UNK         0.0600 
    158 H158       -1.4533  -15.1732  -45.5963 H         1 UNK         0.0600 
    159 H159        1.0754  -16.2683  -43.3628 H         1 UNK         0.3000 
    160 H160        2.0701  -17.9283  -41.4859 H         1 UNK         0.0600 
    161 H161        3.3933  -20.0178  -43.2997 H         1 UNK         0.0600 
    162 H162        2.4386  -20.3330  -41.8589 H         1 UNK         0.0600 
    163 H163        3.9924  -19.5267  -41.7155 H         1 UNK         0.0600 
    164 H164        3.4358  -16.4147  -42.3361 H         1 UNK         0.3000 
    165 H165        5.5892  -16.0450  -44.9338 H         1 UNK         0.0600 
    166 H166        2.8383  -14.7099  -45.1575 H         1 UNK         0.0600 
    167 H167        4.3436  -14.1432  -45.8918 H         1 UNK         0.0600 
    168 H168        3.6137  -15.6419  -46.4321 H         1 UNK         0.0600 
    169 H169        3.9940  -14.3854  -43.0502 H         1 UNK         0.3000 
    170 H170        6.3727  -14.5930  -40.4836 H         1 UNK         0.0600 
    171 H171        7.5194  -12.8343  -41.7877 H         1 UNK         0.0600 
    172 H172        5.9809  -12.1508  -42.2882 H         1 UNK         0.0600 
    173 H173        6.4591  -12.1035  -40.5925 H         1 UNK         0.0600 
    174 H174        4.0114  -12.9794  -40.9757 H         1 UNK         0.3000 
    175 H175        1.6765  -15.4136  -39.8920 H         1 UNK         0.0600 
    176 H176        2.7243  -13.0890  -38.1892 H         1 UNK         0.0600 
    177 H177        1.1501  -13.8689  -38.0271 H         1 UNK         0.0600 
    178 H178        2.6160  -14.7655  -37.6659 H         1 UNK         0.0600 
    179 H179        1.3669  -12.6223  -40.2128 H         1 UNK         0.3000 
    180 H180       -0.1539  -12.8331  -43.1717 H         1 UNK         0.0600 
    181 H181        1.1323  -10.8118  -41.2516 H         1 UNK         0.0600 
    182 H182       -0.4058  -11.6408  -41.0020 H         1 UNK         0.0600 
    183 H183       -0.2252  -10.5085  -42.3260 H         1 UNK         0.0600 
    184 H184        1.1289  -11.9095  -44.6844 H         1 UNK         0.3000 
    185 H185        3.3282   -9.8540  -44.9940 H         1 UNK         0.0600 
    186 H186        5.4619  -10.8562  -45.9288 H         1 UNK         0.0600 
    187 H187        5.5144  -10.6154  -44.1921 H         1 UNK         0.0600 
    188 H188        5.2632  -12.2301  -44.8416 H         1 UNK         0.0600 
    189 H189        2.7193  -12.5531  -46.0505 H         1 UNK         0.3000 
    190 H190       -2.6420  -19.8220  -46.3038 H         1 UNK         0.3000 
    191 H191       -4.0977  -20.3100  -48.6968 H         1 UNK         0.0600 
    192 H192       -4.2876  -18.2088  -47.4060 H         1 UNK         0.0600 
    193 H193       -5.8665  -18.9649  -47.5587 H         1 UNK         0.0600 
    194 H194       -4.9843  -19.0742  -46.0381 H         1 UNK         0.0600 
    195 H195       -4.4231  -21.6893  -45.3844 H         1 UNK         0.3000 
    196 H196       -6.7617  -23.2239  -45.8801 H         1 UNK         0.0600 
    197 H197       -6.0657  -24.4655  -43.8255 H         1 UNK         0.0600 
    198 H198       -5.9527  -22.7277  -43.5989 H         1 UNK         0.0600 
    199 H199       -4.4936  -23.6785  -43.8717 H         1 UNK         0.0600 
    200 H200       -3.2940  -24.0197  -46.2809 H         1 UNK         0.3000 
    201 H201       -3.7403  -26.6854  -47.3365 H         1 UNK         0.0600 
    202 H202       -1.6232  -26.0080  -46.2003 H         1 UNK         0.0600 
    203 H203       -1.3091  -24.8166  -47.4604 H         1 UNK         0.0600 
    204 H204       -1.3008  -26.5341  -47.8455 H         1 UNK         0.0600 
    205 H205       -4.1776  -23.5837  -48.6470 H         1 UNK         0.3000 
    206 H206       -4.3967  -22.6084  -50.6135 H         1 UNK         0.0600 
    207 H207       -6.2881  -24.2181  -50.8006 H         1 UNK         0.0600 
    208 H208       -5.6071  -23.8440  -52.3745 H         1 UNK         0.0600 
    209 H209       -5.2344  -25.3849  -51.5981 H         1 UNK         0.0600 
    210 H210       -1.8574  -23.0821  -50.0015 H         1 UNK         0.3000 
    211 H211        0.2574  -23.1671  -50.6407 H         1 UNK         0.0600 
    212 H212       -0.6701  -22.8225  -53.5411 H         1 UNK         0.0600 
    213 H213        0.8615  -22.3221  -52.8435 H         1 UNK         0.0600 
    214 H214       -0.6194  -21.4955  -52.3884 H         1 UNK         0.0600 
    215 H215       -1.5366  -25.7251  -50.9973 H         1 UNK         0.3000 
    216 H216       -1.4887  -27.8220  -51.6030 H         1 UNK         0.0600 
    217 H217        0.8153  -27.9293  -50.5986 H         1 UNK         0.0600 
    218 H218        1.5103  -27.5977  -52.1853 H         1 UNK         0.0600 
    219 H219        0.5944  -29.0710  -51.9134 H         1 UNK         0.0600 
    220 H220       -1.7745  -25.5180  -53.5715 H         1 UNK         0.3000 
    221 H221       -1.3005  -26.9030  -56.1755 H         1 UNK         0.0600 
    222 H222       -1.8031  -23.9503  -55.5126 H         1 UNK         0.0600 
    223 H223       -0.2279  -24.6626  -55.8596 H         1 UNK         0.0600 
    224 H224       -1.4648  -24.6107  -57.1079 H         1 UNK         0.0600 
    225 H225       -3.7166  -25.5877  -54.0299 H         1 UNK         0.3000 
    226 H226       -5.9036  -25.7960  -53.8355 H         1 UNK         0.0600 
    227 H227       -5.9309  -27.9896  -55.0436 H         1 UNK         0.0600 
    228 H228       -7.3826  -27.0338  -55.3019 H         1 UNK         0.0600 
    229 H229       -6.1737  -27.1320  -56.5670 H         1 UNK         0.0600 
    230 H230       -7.2676  -24.1548  -53.9541 H         1 UNK         0.3000 
    231 H231       -8.1775  -22.1976  -54.3879 H         1 UNK         0.0600 
    232 H232       -9.1531  -21.8515  -56.6209 H         1 UNK         0.0600 
    233 H233       -9.2853  -23.5455  -56.1834 H         1 UNK         0.0600 
    234 H234       -8.0547  -23.0250  -57.3334 H         1 UNK         0.0600 
    235 H235       -5.3077  -22.1510  -54.1647 H         1 UNK         0.3000 
    236 H236       -3.9311  -20.6559  -56.0209 H         1 UNK         0.0600 
    237 H237       -3.5218  -20.8139  -52.9876 H         1 UNK         0.0600 
    238 H238       -2.8515  -21.9010  -54.2067 H         1 UNK         0.0600 
    239 H239       -2.3208  -20.2309  -54.1333 H         1 UNK         0.0600 
    240 H240       -6.0927  -19.3874  -53.5541 H         1 UNK         0.3000 
    241 H241       -5.6582  -16.6133  -54.5661 H         1 UNK         0.0600 
    242 H242       -7.6004  -18.8906  -55.4980 H         1 UNK         0.3800 
    243 H243       -9.1374  -18.0680  -55.4004 H         1 UNK         0.3800 
    244 H244       -6.3954  -15.7670  -52.3294 H         1 UNK         0.0800 
    245 H245       -6.4083  -17.3996  -51.7136 H         1 UNK         0.0800 
    246 H246       -4.4577  -18.3937  -50.5440 H         1 UNK         0.0800 
    247 H247       -4.6203  -16.8583  -49.7194 H         1 UNK         0.0800 
@<TRIPOS>BOND
     1    1    2 1    
     2    1  127 1    
     3    1  128 1    
     4    1  129 1    
     5    2    3 2    
     6    2    4 am   BACKBONE|DICT|INTERRES
     7    4    5 1    
     8    4  130 1    
     9    5    6 1    
    10    5   65 1    
    11    5  131 1    
    12    6    7 1    
    13    6  132 1    
    14    6  133 1    
    15    7    8 1    
    16    8    9 1    
    17    8  134 1    
    18    8  135 1    
    19    9   10 ar   
    20    9   14 ar   
    21   10   11 ar   
    22   10  136 1    
    23   11   12 ar   
    24   11  126 1    
    25   12   13 ar   
    26   12  137 1    
    27   13   14 ar   
    28   13   15 1    
    29   14  138 1    
    30   15   16 1    
    31   15  139 1    
    32   15  140 1    
    33   16   17 1    
    34   17   18 1    
    35   17  141 1    
    36   17  142 1    
    37   18   19 1    
    38   18   67 1    
    39   18  143 1    
    40   19   20 am   BACKBONE|DICT|INTERRES
    41   19  144 1    
    42   20   21 2    
    43   20   22 1    
    44   22   23 1    
    45   22   24 1    
    46   22  145 1    
    47   23  146 1    
    48   23  147 1    
    49   23  148 1    
    50   24   25 am   BACKBONE|DICT|INTERRES
    51   24  149 1    
    52   25   26 2    
    53   25   27 1    
    54   27   28 1    
    55   27   29 1    
    56   27  150 1    
    57   28  151 1    
    58   28  152 1    
    59   28  153 1    
    60   29   30 am   BACKBONE|DICT|INTERRES
    61   29  154 1    
    62   30   31 2    
    63   30   32 1    
    64   32   33 1    
    65   32   34 1    
    66   32  155 1    
    67   33  156 1    
    68   33  157 1    
    69   33  158 1    
    70   34   35 am   BACKBONE|DICT|INTERRES
    71   34  159 1    
    72   35   36 2    
    73   35   37 1    
    74   37   38 1    
    75   37   39 1    
    76   37  160 1    
    77   38  161 1    
    78   38  162 1    
    79   38  163 1    
    80   39   40 am   BACKBONE|DICT|INTERRES
    81   39  164 1    
    82   40   41 2    
    83   40   42 1    
    84   42   43 1    
    85   42   44 1    
    86   42  165 1    
    87   43  166 1    
    88   43  167 1    
    89   43  168 1    
    90   44   45 am   BACKBONE|DICT|INTERRES
    91   44  169 1    
    92   45   46 2    
    93   45   47 1    
    94   47   48 1    
    95   47   49 1    
    96   47  170 1    
    97   48  171 1    
    98   48  172 1    
    99   48  173 1    
   100   49   50 am   BACKBONE|DICT|INTERRES
   101   49  174 1    
   102   50   51 2    
   103   50   52 1    
   104   52   53 1    
   105   52   54 1    
   106   52  175 1    
   107   53  176 1    
   108   53  177 1    
   109   53  178 1    
   110   54   55 am   BACKBONE|DICT|INTERRES
   111   54  179 1    
   112   55   56 2    
   113   55   57 1    
   114   57   58 1    
   115   57   59 1    
   116   57  180 1    
   117   58  181 1    
   118   58  182 1    
   119   58  183 1    
   120   59   60 am   BACKBONE|DICT|INTERRES
   121   59  184 1    
   122   60   61 2    
   123   60   62 1    
   124   62   63 1    
   125   62   64 1    
   126   62  185 1    
   127   63  186 1    
   128   63  187 1    
   129   63  188 1    
   130   64   65 am   BACKBONE|DICT|INTERRES
   131   64  189 1    
   132   65   66 2    
   133   67   68 2    
   134   67   69 am   BACKBONE|DICT|INTERRES
   135   69   70 1    
   136   69  190 1    
   137   70   71 1    
   138   70   72 1    
   139   70  191 1    
   140   71  192 1    
   141   71  193 1    
   142   71  194 1    
   143   72   73 2    
   144   72   74 am   BACKBONE|DICT|INTERRES
   145   74   75 1    
   146   74  195 1    
   147   75   76 1    
   148   75   77 1    
   149   75  196 1    
   150   76  197 1    
   151   76  198 1    
   152   76  199 1    
   153   77   78 2    
   154   77   79 am   BACKBONE|DICT|INTERRES
   155   79   80 1    
   156   79  200 1    
   157   80   81 1    
   158   80   82 1    
   159   80  201 1    
   160   81  202 1    
   161   81  203 1    
   162   81  204 1    
   163   82   83 2    
   164   82   84 am   BACKBONE|DICT|INTERRES
   165   84   85 1    
   166   84  205 1    
   167   85   86 1    
   168   85   87 1    
   169   85  206 1    
   170   86  207 1    
   171   86  208 1    
   172   86  209 1    
   173   87   88 2    
   174   87   89 am   BACKBONE|DICT|INTERRES
   175   89   90 1    
   176   89  210 1    
   177   90   91 1    
   178   90   92 1    
   179   90  211 1    
   180   91  212 1    
   181   91  213 1    
   182   91  214 1    
   183   92   93 2    
   184   92   94 am   BACKBONE|DICT|INTERRES
   185   94   95 1    
   186   94  215 1    
   187   95   96 1    
   188   95   97 1    
   189   95  216 1    
   190   96  217 1    
   191   96  218 1    
   192   96  219 1    
   193   97   98 2    
   194   97   99 am   BACKBONE|DICT|INTERRES
   195   99  100 1    
   196   99  220 1    
   197  100  101 1    
   198  100  102 1    
   199  100  221 1    
   200  101  222 1    
   201  101  223 1    
   202  101  224 1    
   203  102  103 2    
   204  102  104 am   BACKBONE|DICT|INTERRES
   205  104  105 1    
   206  104  225 1    
   207  105  106 1    
   208  105  107 1    
   209  105  226 1    
   210  106  227 1    
   211  106  228 1    
   212  106  229 1    
   213  107  108 2    
   214  107  109 am   BACKBONE|DICT|INTERRES
   215  109  110 1    
   216  109  230 1    
   217  110  111 1    
   218  110  112 1    
   219  110  231 1    
   220  111  232 1    
   221  111  233 1    
   222  111  234 1    
   223  112  113 2    
   224  112  114 am   BACKBONE|DICT|INTERRES
   225  114  115 1    
   226  114  235 1    
   227  115  116 1    
   228  115  117 1    
   229  115  236 1    
   230  116  237 1    
   231  116  238 1    
   232  116  239 1    
   233  117  118 2    
   234  117  119 am   BACKBONE|DICT|INTERRES
   235  119  120 1    
   236  119  240 1    
   237  120  121 1    
   238  120  124 1    
   239  120  241 1    
   240  121  122 am   BACKBONE|DICT|INTERRES
   241  121  123 2    
   242  122  242 1    
   243  122  243 1    
   244  124  125 1    
   245  124  244 1    
   246  124  245 1    
   247  125  126 1    
   248  126  246 1    
   249  126  247 1    
@<TRIPOS>SUBSTRUCTURE
     1 UNK         1 GROUP             0       ****    0 ROOT    
