@<TRIPOS>MOLECULE
3R540
247   249    1
SMALL
USER_CHARGES


@<TRIPOS>ATOM
      1 CA          0.9006   -9.8210  -52.6176 C.3       0 UNK        -0.1800 
      2 C           1.0584  -10.3379  -51.1944 C.2       0 UNK         0.5000 
      3 O           1.2529   -9.5448  -50.2727 O.2       0 UNK        -0.5000 
      4 N           0.9833  -11.6622  -51.0136 N.am      1 UNK        -0.5000 
      5 CA          1.0402  -12.3342  -49.7126 C.3       1 UNK         0.1400 
      6 C6          1.3066  -13.8509  -49.8782 C.3       23 UNK        -0.0398 
      7 S7          2.0078  -14.6171  -48.3752 S.3       23 UNK        -0.2404 
      8 C8          3.5840  -15.3036  -48.9745 C.3       23 UNK        -0.0205 
      9 C9          3.3719  -16.5105  -49.8775 C.ar      23 UNK        -0.0193 
     10 C10         3.3550  -16.3573  -51.2667 C.ar      23 UNK        -0.1150 
     11 C11         3.1449  -17.4495  -52.1125 C.ar      23 UNK        -0.0193 
     12 C12         2.9820  -18.7194  -51.5415 C.ar      23 UNK        -0.1150 
     13 C13         3.0013  -18.8907  -50.1540 C.ar      23 UNK        -0.0193 
     14 C14         3.1973  -17.7824  -49.3259 C.ar      23 UNK        -0.1150 
     15 C15         2.8111  -20.2770  -49.5595 C.3       23 UNK        -0.0205 
     16 S16         1.1150  -20.5061  -48.9434 S.3       23 UNK        -0.2404 
     17 C17         0.8895  -22.3019  -49.1861 C.3       23 UNK        -0.0398 
     18 CA          0.1233  -23.0268  -48.0553 C.3       11 UNK         0.1400 
     19 N           0.7408  -22.8541  -46.7391 N.am      11 UNK        -0.5000 
     20 C           0.4947  -23.6458  -45.6888 C.2       10 UNK         0.5000 
     21 O          -0.3401  -24.5492  -45.7199 O.2       10 UNK        -0.5000 
     22 CA          1.2509  -23.3957  -44.3723 C.3       10 UNK         0.1400 
     23 CB          2.0783  -24.6259  -43.9511 C.3       10 UNK        -0.1800 
     24 N           2.0491  -22.1678  -44.3270 N.am      10 UNK        -0.5000 
     25 C           3.2105  -21.8794  -44.9316 C.2       9 UNK         0.5000 
     26 O           3.7772  -22.6359  -45.7198 O.2       9 UNK        -0.5000 
     27 CA          3.8464  -20.5062  -44.6168 C.3       9 UNK         0.1400 
     28 CB          3.9398  -19.6508  -45.8893 C.3       9 UNK        -0.1800 
     29 N           3.1234  -19.7465  -43.5930 N.am      9 UNK        -0.5000 
     30 C           3.1362  -20.0003  -42.2771 C.2       8 UNK         0.5000 
     31 O           3.8471  -20.8579  -41.7529 O.2       8 UNK        -0.5000 
     32 CA          2.1383  -19.2034  -41.4134 C.3       8 UNK         0.1400 
     33 CB          2.7479  -17.8679  -40.9620 C.3       8 UNK        -0.1800 
     34 N           0.8647  -18.9605  -42.1001 N.am      8 UNK        -0.5000 
     35 C          -0.0039  -19.9203  -42.4526 C.2       7 UNK         0.5000 
     36 O           0.1521  -21.1090  -42.1794 O.2       7 UNK        -0.5000 
     37 CA         -1.2185  -19.5019  -43.2981 C.3       7 UNK         0.1400 
     38 CB         -2.3472  -18.9581  -42.4119 C.3       7 UNK        -0.1800 
     39 N          -0.8579  -18.5189  -44.3191 N.am      7 UNK        -0.5000 
     40 C          -0.1511  -18.8035  -45.4222 C.2       6 UNK         0.5000 
     41 O           0.1602  -19.9505  -45.7443 O.2       6 UNK        -0.5000 
     42 CA          0.2886  -17.6195  -46.3064 C.3       6 UNK         0.1400 
     43 CB         -0.7426  -17.3349  -47.4035 C.3       6 UNK        -0.1800 
     44 N           0.5258  -16.3965  -45.5419 N.am      6 UNK        -0.5000 
     45 C           1.5273  -16.2364  -44.6686 C.2       5 UNK         0.5000 
     46 O           2.3734  -17.0982  -44.4372 O.2       5 UNK        -0.5000 
     47 CA          1.5488  -14.9208  -43.8733 C.3       5 UNK         0.1400 
     48 CB          2.1596  -13.7781  -44.6978 C.3       5 UNK        -0.1800 
     49 N           0.2133  -14.5427  -43.4103 N.am      5 UNK        -0.5000 
     50 C          -0.4672  -15.1969  -42.4587 C.2       4 UNK         0.5000 
     51 O          -0.0266  -16.1753  -41.8568 O.2       4 UNK        -0.5000 
     52 CA         -1.8907  -14.6963  -42.1527 C.3       4 UNK         0.1400 
     53 CB         -1.8502  -13.5268  -41.1580 C.3       4 UNK        -0.1800 
     54 N          -2.6147  -14.2845  -43.3557 N.am      4 UNK        -0.5000 
     55 C          -3.0118  -15.1218  -44.3246 C.2       3 UNK         0.5000 
     56 O          -2.8387  -16.3385  -44.2911 O.2       3 UNK        -0.5000 
     57 CA         -3.6585  -14.4811  -45.5669 C.3       3 UNK         0.1400 
     58 CB         -5.1598  -14.2508  -45.3403 C.3       3 UNK        -0.1800 
     59 N          -3.0220  -13.2201  -45.9626 N.am      3 UNK        -0.5000 
     60 C          -1.7360  -13.1104  -46.3191 C.2       2 UNK         0.5000 
     61 O          -0.9481  -14.0585  -46.3180 O.2       2 UNK        -0.5000 
     62 CA         -1.2298  -11.7026  -46.6757 C.3       2 UNK         0.1400 
     63 CB         -0.7557  -10.9711  -45.4101 C.3       2 UNK        -0.1800 
     64 N          -0.1177  -11.7829  -47.6206 N.am      2 UNK        -0.5000 
     65 C          -0.2574  -12.0778  -48.9181 C.2       1 UNK         0.5000 
     66 O          -1.3493  -12.1704  -49.4865 O.2       1 UNK        -0.5000 
     67 C          -1.3863  -22.7127  -48.0422 C.2       11 UNK         0.5000 
     68 O          -2.1725  -23.5181  -48.5435 O.2       11 UNK        -0.5000 
     69 N          -1.7819  -21.5984  -47.4063 N.am      12 UNK        -0.5000 
     70 CA         -3.1959  -21.2486  -47.2272 C.3       12 UNK         0.1400 
     71 CB         -3.3586  -19.7553  -46.9128 C.3       12 UNK        -0.1800 
     72 C          -3.8841  -22.0941  -46.1440 C.2       12 UNK         0.5000 
     73 O          -5.1071  -22.2022  -46.1665 O.2       12 UNK        -0.5000 
     74 N          -3.1069  -22.6874  -45.2276 N.am      13 UNK        -0.5000 
     75 CA         -3.6139  -23.6182  -44.2202 C.3       13 UNK         0.1400 
     76 CB         -2.5951  -23.7619  -43.0790 C.3       13 UNK        -0.1800 
     77 C          -3.9522  -24.9839  -44.8449 C.2       13 UNK         0.5000 
     78 O          -5.0216  -25.5284  -44.5710 O.2       13 UNK        -0.5000 
     79 N          -3.0470  -25.4954  -45.6914 N.am      14 UNK        -0.5000 
     80 CA         -3.1871  -26.7670  -46.3984 C.3       14 UNK         0.1400 
     81 CB         -1.8345  -27.1603  -47.0131 C.3       14 UNK        -0.1800 
     82 C          -4.2828  -26.7334  -47.4768 C.2       14 UNK         0.5000 
     83 O          -5.1086  -27.6457  -47.5299 O.2       14 UNK        -0.5000 
     84 N          -4.2741  -25.6871  -48.3146 N.am      15 UNK        -0.5000 
     85 CA         -5.2253  -25.5230  -49.4177 C.3       15 UNK         0.1400 
     86 CB         -4.5814  -24.6460  -50.4960 C.3       15 UNK        -0.1800 
     87 C          -6.5753  -24.9238  -48.9848 C.2       15 UNK         0.5000 
     88 O          -7.5306  -24.9804  -49.7587 O.2       15 UNK        -0.5000 
     89 N          -6.6177  -24.3354  -47.7816 N.am      16 UNK        -0.5000 
     90 CA         -7.7375  -23.6313  -47.1441 C.3       16 UNK         0.1400 
     91 CB         -8.9825  -24.5352  -47.0286 C.3       16 UNK        -0.1800 
     92 C          -8.0765  -22.2582  -47.7673 C.2       16 UNK         0.5000 
     93 O          -8.9535  -21.5722  -47.2389 O.2       16 UNK        -0.5000 
     94 N          -7.3900  -21.8581  -48.8469 N.am      17 UNK        -0.5000 
     95 CA         -7.5991  -20.6084  -49.5717 C.3       17 UNK         0.1400 
     96 CB         -8.9385  -20.6578  -50.3374 C.3       17 UNK        -0.1800 
     97 C          -6.4440  -20.3587  -50.5543 C.2       17 UNK         0.5000 
     98 O          -5.6780  -21.2764  -50.8655 O.2       17 UNK        -0.5000 
     99 N          -6.3771  -19.1120  -51.0460 N.am      18 UNK        -0.5000 
    100 CA        -5.6259  -18.6268  -52.2146 C.3       18 UNK         0.1400 
    101 CB        -6.2166  -19.2462  -53.4988 C.3       18 UNK        -0.1800 
    102 C         -4.0930  -18.7963  -52.1687 C.2       18 UNK         0.5000 
    103 O         -3.4453  -18.6484  -53.2078 O.2       18 UNK        -0.5000 
    104 N         -3.5371  -19.1304  -50.9944 N.am      19 UNK        -0.5000 
    105 CA        -2.1313  -19.4928  -50.7717 C.3       19 UNK         0.1400 
    106 CB        -1.2190  -18.2601  -50.9581 C.3       19 UNK        -0.1800 
    107 C         -1.7013  -20.7005  -51.6335 C.2       19 UNK         0.5000 
    108 O         -0.6011  -20.7036  -52.1810 O.2       19 UNK        -0.5000 
    109 N         -2.6069  -21.6809  -51.7888 N.am      20 UNK        -0.5000 
    110 CA        -2.4801  -22.8457  -52.6772 C.3       20 UNK         0.1400 
    111 CB        -1.3521  -23.7883  -52.2060 C.3       20 UNK        -0.1800 
    112 C         -2.3589  -22.4447  -54.1632 C.2       20 UNK         0.5000 
    113 O         -1.5545  -23.0135  -54.9022 O.2       20 UNK        -0.5000 
    114 N         -3.1639  -21.4448  -54.5515 N.am      21 UNK        -0.5000 
    115 CA        -3.2344  -20.7876  -55.8624 C.3       21 UNK         0.1400 
    116 CB        -3.5725  -21.7918  -56.9840 C.3       21 UNK        -0.1800 
    117 C         -2.0090  -19.9091  -56.1969 C.2       21 UNK         0.5000 
    118 O         -1.8833  -19.4572  -57.3365 O.2       21 UNK        -0.5000 
    119 N         -1.1461  -19.6508  -55.2063 N.am      22 UNK        -0.5000 
    120 CA        -0.0230  -18.7075  -55.2944 C.3       22 UNK         0.1400 
    121 C         -0.4615  -17.2149  -55.2094 C.2       22 UNK         0.5000 
    122 N         -1.6306  -16.8954  -54.6639 N.am      22 UNK        -0.7600 
    123 O          0.2586  -16.3319  -55.6660 O.2       22 UNK        -0.5000 
    124 C124        1.0535  -19.0506  -54.2352 C.3       23 UNK        -0.0398 
    125 S125        2.7593  -18.6110  -54.7103 S.3       23 UNK        -0.2404 
    126 C126        3.0967  -17.1819  -53.6212 C.3       23 UNK        -0.0205 
    127 H127        0.0480   -9.1445  -52.6785 H         1 UNK         0.0600 
    128 H128        1.7937   -9.2738  -52.9195 H         1 UNK         0.0600 
    129 H129        0.7423  -10.6321  -53.3290 H         1 UNK         0.0600 
    130 H130        0.7847  -12.2555  -51.8062 H         1 UNK         0.3000 
    131 H131        1.8790  -11.8977  -49.1653 H         1 UNK         0.0600 
    132 H132        0.4023  -14.3917  -50.1646 H         1 UNK         0.0800 
    133 H133        2.0078  -13.9979  -50.6972 H         1 UNK         0.0800 
    134 H134        4.1861  -15.5965  -48.1131 H         1 UNK         0.0800 
    135 H135        4.1510  -14.5278  -49.4913 H         1 UNK         0.0800 
    136 H136        3.5002  -15.3772  -51.6982 H         1 UNK         0.1150 
    137 H137        2.8288  -19.5869  -52.1652 H         1 UNK         0.1150 
    138 H138        3.2081  -17.9081  -48.2529 H         1 UNK         0.1150 
    139 H139        3.0346  -21.0302  -50.3164 H         1 UNK         0.0800 
    140 H140        3.5196  -20.4407  -48.7479 H         1 UNK         0.0800 
    141 H141        1.8706  -22.7682  -49.2838 H         1 UNK         0.0800 
    142 H142        0.3971  -22.4597  -50.1462 H         1 UNK         0.0800 
    143 H143        0.1948  -24.0920  -48.2881 H         1 UNK         0.0600 
    144 H144        1.3832  -22.0816  -46.6319 H         1 UNK         0.3000 
    145 H145        0.4788  -23.2618  -43.6157 H         1 UNK         0.0600 
    146 H146        2.5779  -24.4575  -42.9971 H         1 UNK         0.0600 
    147 H147        1.4393  -25.5017  -43.8316 H         1 UNK         0.0600 
    148 H148        2.8381  -24.8800  -44.6904 H         1 UNK         0.0600 
    149 H149        1.6617  -21.4534  -43.7239 H         1 UNK         0.3000 
    150 H150        4.8597  -20.6910  -44.2550 H         1 UNK         0.0600 
    151 H151        4.5746  -20.1304  -46.6346 H         1 UNK         0.0600 
    152 H152        4.3716  -18.6718  -45.6808 H         1 UNK         0.0600 
    153 H153        2.9585  -19.4974  -46.3385 H         1 UNK         0.0600 
    154 H154        2.5797  -18.9537  -43.9229 H         1 UNK         0.3000 
    155 H155        1.9274  -19.7965  -40.5211 H         1 UNK         0.0600 
    156 H156        2.9692  -17.2177  -41.8082 H         1 UNK         0.0600 
    157 H157        3.6801  -18.0282  -40.4190 H         1 UNK         0.0600 
    158 H158        2.0718  -17.3313  -40.2962 H         1 UNK         0.0600 
    159 H159        0.6375  -17.9923  -42.3043 H         1 UNK         0.3000 
    160 H160       -1.5946  -20.3952  -43.8014 H         1 UNK         0.0600 
    161 H161       -3.2393  -18.7443  -43.0007 H         1 UNK         0.0600 
    162 H162       -2.0546  -18.0409  -41.9010 H         1 UNK         0.0600 
    163 H163       -2.6289  -19.6848  -41.6490 H         1 UNK         0.0600 
    164 H164       -1.1726  -17.5670  -44.1695 H         1 UNK         0.3000 
    165 H165        1.2246  -17.8985  -46.7927 H         1 UNK         0.0600 
    166 H166       -0.4191  -16.5162  -48.0465 H         1 UNK         0.0600 
    167 H167       -0.8720  -18.2103  -48.0386 H         1 UNK         0.0600 
    168 H168       -1.7141  -17.0686  -46.9858 H         1 UNK         0.0600 
    169 H169       -0.0979  -15.6128  -45.7225 H         1 UNK         0.3000 
    170 H170        2.1815  -15.0751  -42.9967 H         1 UNK         0.0600 
    171 H171        3.1552  -14.0447  -45.0550 H         1 UNK         0.0600 
    172 H172        1.5539  -13.5396  -45.5712 H         1 UNK         0.0600 
    173 H173        2.2595  -12.8714  -44.1012 H         1 UNK         0.0600 
    174 H174       -0.2437  -13.7921  -43.9048 H         1 UNK         0.3000 
    175 H175       -2.4406  -15.5185  -41.6898 H         1 UNK         0.0600 
    176 H176       -2.8558  -13.2153  -40.8748 H         1 UNK         0.0600 
    177 H177       -1.3297  -13.8117  -40.2426 H         1 UNK         0.0600 
    178 H178       -1.3342  -12.6602  -41.5732 H         1 UNK         0.0600 
    179 H179       -2.7969  -13.2982  -43.4665 H         1 UNK         0.3000 
    180 H180       -3.5430  -15.1845  -46.3944 H         1 UNK         0.0600 
    181 H181       -5.3421  -13.5275  -44.5445 H         1 UNK         0.0600 
    182 H182       -5.6588  -15.1797  -45.0606 H         1 UNK         0.0600 
    183 H183       -5.6437  -13.8839  -46.2457 H         1 UNK         0.0600 
    184 H184       -3.6106  -12.3995  -45.9737 H         1 UNK         0.3000 
    185 H185       -2.0444  -11.1338  -47.1292 H         1 UNK         0.0600 
    186 H186        0.0602  -11.5004  -44.9167 H         1 UNK         0.0600 
    187 H187       -0.4071   -9.9653  -45.6451 H         1 UNK         0.0600 
    188 H188       -1.5664  -10.8708  -44.6873 H         1 UNK         0.0600 
    189 H189        0.8092  -11.7670  -47.2220 H         1 UNK         0.3000 
    190 H190       -1.0829  -21.0038  -46.9697 H         1 UNK         0.3000 
    191 H191       -3.7197  -21.4432  -48.1662 H         1 UNK         0.0600 
    192 H192       -2.9516  -19.1321  -47.7051 H         1 UNK         0.0600 
    193 H193       -2.8787  -19.4838  -45.9746 H         1 UNK         0.0600 
    194 H194       -4.4134  -19.4935  -46.8180 H         1 UNK         0.0600 
    195 H195       -2.1071  -22.5761  -45.2960 H         1 UNK         0.3000 
    196 H196       -4.5311  -23.2032  -43.7960 H         1 UNK         0.0600 
    197 H197       -3.0093  -24.3608  -42.2672 H         1 UNK         0.0600 
    198 H198       -2.3250  -22.7916  -42.6615 H         1 UNK         0.0600 
    199 H199       -1.6808  -24.2544  -43.4074 H         1 UNK         0.0600 
    200 H200       -2.1622  -25.0109  -45.8192 H         1 UNK         0.3000 
    201 H201       -3.4609  -27.5313  -45.6680 H         1 UNK         0.0600 
    202 H202       -1.0732  -27.2811  -46.2422 H         1 UNK         0.0600 
    203 H203       -1.4776  -26.4076  -47.7176 H         1 UNK         0.0600 
    204 H204       -1.9075  -28.1070  -47.5497 H         1 UNK         0.0600 
    205 H205       -3.5439  -24.9855  -48.2333 H         1 UNK         0.3000 
    206 H206       -5.4299  -26.5001  -49.8607 H         1 UNK         0.0600 
    207 H207       -3.6588  -25.0976  -50.8590 H         1 UNK         0.0600 
    208 H208       -5.2457  -24.5245  -51.3527 H         1 UNK         0.0600 
    209 H209       -4.3467  -23.6502  -50.1188 H         1 UNK         0.0600 
    210 H210       -5.7603  -24.3209  -47.2468 H         1 UNK         0.3000 
    211 H211       -7.4080  -23.4227  -46.1257 H         1 UNK         0.0600 
    212 H212       -9.4468  -24.7187  -47.9976 H         1 UNK         0.0600 
    213 H213       -9.7388  -24.0747  -46.3921 H         1 UNK         0.0600 
    214 H214       -8.7312  -25.4992  -46.5860 H         1 UNK         0.0600 
    215 H215       -6.6674  -22.4527  -49.2301 H         1 UNK         0.3000 
    216 H216       -7.6168  -19.7873  -48.8522 H         1 UNK         0.0600 
    217 H217       -9.1020  -19.7480  -50.9161 H         1 UNK         0.0600 
    218 H218       -9.7874  -20.7568  -49.6613 H         1 UNK         0.0600 
    219 H219       -8.9676  -21.4975  -51.0330 H         1 UNK         0.0600 
    220 H220       -7.0268  -18.4357  -50.6686 H         1 UNK         0.3000 
    221 H221       -5.7995  -17.5508  -52.2587 H         1 UNK         0.0600 
    222 H222       -6.0335  -20.3199  -53.5509 H         1 UNK         0.0600 
    223 H223       -7.2939  -19.0892  -53.5515 H         1 UNK         0.0600 
    224 H224       -5.7854  -18.7944  -54.3929 H         1 UNK         0.0600 
    225 H225       -4.1590  -19.2434  -50.2076 H         1 UNK         0.3000 
    226 H226       -2.0423  -19.8182  -49.7361 H         1 UNK         0.0600 
    227 H227       -1.5491  -17.4274  -50.3379 H         1 UNK         0.0600 
    228 H228       -0.1890  -18.4832  -50.6789 H         1 UNK         0.0600 
    229 H229       -1.2034  -17.9163  -51.9915 H         1 UNK         0.0600 
    230 H230       -3.5060  -21.5769  -51.3315 H         1 UNK         0.3000 
    231 H231       -3.4204  -23.3896  -52.6047 H         1 UNK         0.0600 
    232 H232       -1.4556  -24.0339  -51.1497 H         1 UNK         0.0600 
    233 H233       -0.3657  -23.3481  -52.3533 H         1 UNK         0.0600 
    234 H234       -1.3742  -24.7270  -52.7604 H         1 UNK         0.0600 
    235 H235       -3.7395  -21.0181  -53.8398 H         1 UNK         0.3000 
    236 H236       -4.0731  -20.0940  -55.7910 H         1 UNK         0.0600 
    237 H237       -3.8074  -21.2729  -57.9140 H         1 UNK         0.0600 
    238 H238       -2.7415  -22.4659  -57.1920 H         1 UNK         0.0600 
    239 H239       -4.4411  -22.3968  -56.7243 H         1 UNK         0.0600 
    240 H240       -1.3221  -20.0485  -54.2932 H         1 UNK         0.3000 
    241 H241        0.4274  -18.8425  -56.2797 H         1 UNK         0.0600 
    242 H242       -1.9081  -15.9282  -54.6289 H         1 UNK         0.3800 
    243 H243       -2.2368  -17.6044  -54.2596 H         1 UNK         0.3800 
    244 H244        0.7964  -18.6192  -53.2671 H         1 UNK         0.0800 
    245 H245        1.0772  -20.1294  -54.0756 H         1 UNK         0.0800 
    246 H246        2.3457  -16.4156  -53.8180 H         1 UNK         0.0800 
    247 H247        4.0540  -16.7548  -53.9224 H         1 UNK         0.0800 
@<TRIPOS>BOND
     1    1    2 1    
     2    1  127 1    
     3    1  128 1    
     4    1  129 1    
     5    2    3 2    
     6    2    4 am   BACKBONE|DICT|INTERRES
     7    4    5 1    
     8    4  130 1    
     9    5    6 1    
    10    5   65 1    
    11    5  131 1    
    12    6    7 1    
    13    6  132 1    
    14    6  133 1    
    15    7    8 1    
    16    8    9 1    
    17    8  134 1    
    18    8  135 1    
    19    9   10 ar   
    20    9   14 ar   
    21   10   11 ar   
    22   10  136 1    
    23   11   12 ar   
    24   11  126 1    
    25   12   13 ar   
    26   12  137 1    
    27   13   14 ar   
    28   13   15 1    
    29   14  138 1    
    30   15   16 1    
    31   15  139 1    
    32   15  140 1    
    33   16   17 1    
    34   17   18 1    
    35   17  141 1    
    36   17  142 1    
    37   18   19 1    
    38   18   67 1    
    39   18  143 1    
    40   19   20 am   BACKBONE|DICT|INTERRES
    41   19  144 1    
    42   20   21 2    
    43   20   22 1    
    44   22   23 1    
    45   22   24 1    
    46   22  145 1    
    47   23  146 1    
    48   23  147 1    
    49   23  148 1    
    50   24   25 am   BACKBONE|DICT|INTERRES
    51   24  149 1    
    52   25   26 2    
    53   25   27 1    
    54   27   28 1    
    55   27   29 1    
    56   27  150 1    
    57   28  151 1    
    58   28  152 1    
    59   28  153 1    
    60   29   30 am   BACKBONE|DICT|INTERRES
    61   29  154 1    
    62   30   31 2    
    63   30   32 1    
    64   32   33 1    
    65   32   34 1    
    66   32  155 1    
    67   33  156 1    
    68   33  157 1    
    69   33  158 1    
    70   34   35 am   BACKBONE|DICT|INTERRES
    71   34  159 1    
    72   35   36 2    
    73   35   37 1    
    74   37   38 1    
    75   37   39 1    
    76   37  160 1    
    77   38  161 1    
    78   38  162 1    
    79   38  163 1    
    80   39   40 am   BACKBONE|DICT|INTERRES
    81   39  164 1    
    82   40   41 2    
    83   40   42 1    
    84   42   43 1    
    85   42   44 1    
    86   42  165 1    
    87   43  166 1    
    88   43  167 1    
    89   43  168 1    
    90   44   45 am   BACKBONE|DICT|INTERRES
    91   44  169 1    
    92   45   46 2    
    93   45   47 1    
    94   47   48 1    
    95   47   49 1    
    96   47  170 1    
    97   48  171 1    
    98   48  172 1    
    99   48  173 1    
   100   49   50 am   BACKBONE|DICT|INTERRES
   101   49  174 1    
   102   50   51 2    
   103   50   52 1    
   104   52   53 1    
   105   52   54 1    
   106   52  175 1    
   107   53  176 1    
   108   53  177 1    
   109   53  178 1    
   110   54   55 am   BACKBONE|DICT|INTERRES
   111   54  179 1    
   112   55   56 2    
   113   55   57 1    
   114   57   58 1    
   115   57   59 1    
   116   57  180 1    
   117   58  181 1    
   118   58  182 1    
   119   58  183 1    
   120   59   60 am   BACKBONE|DICT|INTERRES
   121   59  184 1    
   122   60   61 2    
   123   60   62 1    
   124   62   63 1    
   125   62   64 1    
   126   62  185 1    
   127   63  186 1    
   128   63  187 1    
   129   63  188 1    
   130   64   65 am   BACKBONE|DICT|INTERRES
   131   64  189 1    
   132   65   66 2    
   133   67   68 2    
   134   67   69 am   BACKBONE|DICT|INTERRES
   135   69   70 1    
   136   69  190 1    
   137   70   71 1    
   138   70   72 1    
   139   70  191 1    
   140   71  192 1    
   141   71  193 1    
   142   71  194 1    
   143   72   73 2    
   144   72   74 am   BACKBONE|DICT|INTERRES
   145   74   75 1    
   146   74  195 1    
   147   75   76 1    
   148   75   77 1    
   149   75  196 1    
   150   76  197 1    
   151   76  198 1    
   152   76  199 1    
   153   77   78 2    
   154   77   79 am   BACKBONE|DICT|INTERRES
   155   79   80 1    
   156   79  200 1    
   157   80   81 1    
   158   80   82 1    
   159   80  201 1    
   160   81  202 1    
   161   81  203 1    
   162   81  204 1    
   163   82   83 2    
   164   82   84 am   BACKBONE|DICT|INTERRES
   165   84   85 1    
   166   84  205 1    
   167   85   86 1    
   168   85   87 1    
   169   85  206 1    
   170   86  207 1    
   171   86  208 1    
   172   86  209 1    
   173   87   88 2    
   174   87   89 am   BACKBONE|DICT|INTERRES
   175   89   90 1    
   176   89  210 1    
   177   90   91 1    
   178   90   92 1    
   179   90  211 1    
   180   91  212 1    
   181   91  213 1    
   182   91  214 1    
   183   92   93 2    
   184   92   94 am   BACKBONE|DICT|INTERRES
   185   94   95 1    
   186   94  215 1    
   187   95   96 1    
   188   95   97 1    
   189   95  216 1    
   190   96  217 1    
   191   96  218 1    
   192   96  219 1    
   193   97   98 2    
   194   97   99 am   BACKBONE|DICT|INTERRES
   195   99  100 1    
   196   99  220 1    
   197  100  101 1    
   198  100  102 1    
   199  100  221 1    
   200  101  222 1    
   201  101  223 1    
   202  101  224 1    
   203  102  103 2    
   204  102  104 am   BACKBONE|DICT|INTERRES
   205  104  105 1    
   206  104  225 1    
   207  105  106 1    
   208  105  107 1    
   209  105  226 1    
   210  106  227 1    
   211  106  228 1    
   212  106  229 1    
   213  107  108 2    
   214  107  109 am   BACKBONE|DICT|INTERRES
   215  109  110 1    
   216  109  230 1    
   217  110  111 1    
   218  110  112 1    
   219  110  231 1    
   220  111  232 1    
   221  111  233 1    
   222  111  234 1    
   223  112  113 2    
   224  112  114 am   BACKBONE|DICT|INTERRES
   225  114  115 1    
   226  114  235 1    
   227  115  116 1    
   228  115  117 1    
   229  115  236 1    
   230  116  237 1    
   231  116  238 1    
   232  116  239 1    
   233  117  118 2    
   234  117  119 am   BACKBONE|DICT|INTERRES
   235  119  120 1    
   236  119  240 1    
   237  120  121 1    
   238  120  124 1    
   239  120  241 1    
   240  121  122 am   BACKBONE|DICT|INTERRES
   241  121  123 2    
   242  122  242 1    
   243  122  243 1    
   244  124  125 1    
   245  124  244 1    
   246  124  245 1    
   247  125  126 1    
   248  126  246 1    
   249  126  247 1    
@<TRIPOS>SUBSTRUCTURE
     1 UNK         1 GROUP             0       ****    0 ROOT    
