@<TRIPOS>MOLECULE
3R540
247   249    1
SMALL
USER_CHARGES


@<TRIPOS>ATOM
      1 CA         -1.5175  -16.2422  -45.5826 C.3       0 UNK        -0.1800 
      2 C          -2.3729  -15.0230  -45.8850 C.2       0 UNK         0.5000 
      3 O          -2.3678  -14.0642  -45.1135 O.2       0 UNK        -0.5000 
      4 N          -3.1017  -15.0560  -47.0076 N.am      1 UNK        -0.5000 
      5 CA         -3.9280  -13.9516  -47.5018 C.3       1 UNK         0.1400 
      6 C6         -4.8190  -14.3675  -48.6968 C.3       23 UNK        -0.0398 
      7 S7         -6.0442  -15.6451  -48.2603 S.3       23 UNK        -0.2404 
      8 C8         -5.5623  -17.0286  -49.3433 C.3       23 UNK        -0.0205 
      9 C9         -4.2353  -17.6467  -48.9328 C.ar      23 UNK        -0.0193 
     10 C10        -3.1089  -17.5262  -49.7520 C.ar      23 UNK        -0.1150 
     11 C11        -1.9014  -18.1314  -49.3925 C.ar      23 UNK        -0.0193 
     12 C12        -1.8223  -18.8513  -48.2002 C.ar      23 UNK        -0.1150 
     13 C13        -2.9411  -18.9775  -47.3724 C.ar      23 UNK        -0.0193 
     14 C14        -4.1437  -18.3723  -47.7422 C.ar      23 UNK        -0.1150 
     15 C15        -2.8423  -19.7353  -46.0610 C.3       23 UNK        -0.0205 
     16 S16        -3.3967  -21.4569  -46.2035 S.3       23 UNK        -0.2404 
     17 C17        -2.0499  -22.2170  -47.1842 C.3       23 UNK        -0.0398 
     18 CA         -1.2990  -23.4305  -46.5691 C.3       11 UNK         0.1400 
     19 N          -0.0495  -23.0520  -45.8942 N.am      11 UNK        -0.5000 
     20 C           0.9575  -23.9111  -45.6754 C.2       10 UNK         0.5000 
     21 O           0.9141  -25.0998  -45.9873 O.2       10 UNK        -0.5000 
     22 CA          2.2003  -23.3775  -44.9486 C.3       10 UNK         0.1400 
     23 CB          3.0869  -22.5562  -45.8974 C.3       10 UNK        -0.1800 
     24 N           1.8569  -22.5855  -43.7699 N.am      10 UNK        -0.5000 
     25 C           1.3269  -23.0859  -42.6458 C.2       9 UNK         0.5000 
     26 O           1.0368  -24.2734  -42.4989 O.2       9 UNK        -0.5000 
     27 CA          1.0753  -22.0918  -41.4973 C.3       9 UNK         0.1400 
     28 CB          2.3270  -21.9607  -40.6169 C.3       9 UNK        -0.1800 
     29 N           0.6889  -20.7657  -41.9801 N.am      9 UNK        -0.5000 
     30 C          -0.5293  -20.4689  -42.4525 C.2       8 UNK         0.5000 
     31 O          -1.4621  -21.2711  -42.4937 O.2       8 UNK        -0.5000 
     32 CA         -0.7234  -19.0445  -43.0077 C.3       8 UNK         0.1400 
     33 CB         -0.9591  -18.0470  -41.8641 C.3       8 UNK        -0.1800 
     34 N           0.3891  -18.5667  -43.8358 N.am      8 UNK        -0.5000 
     35 C           0.9640  -19.2151  -44.8621 C.2       7 UNK         0.5000 
     36 O           0.5710  -20.3015  -45.2862 O.2       7 UNK        -0.5000 
     37 CA          2.1967  -18.5700  -45.5295 C.3       7 UNK         0.1400 
     38 CB          1.8525  -18.1446  -46.9630 C.3       7 UNK        -0.1800 
     39 N           2.7530  -17.4232  -44.8072 N.am      7 UNK        -0.5000 
     40 C           3.2896  -17.4596  -43.5780 C.2       6 UNK         0.5000 
     41 O           3.4238  -18.4981  -42.9286 O.2       6 UNK        -0.5000 
     42 CA          3.7066  -16.1155  -42.9449 C.3       6 UNK         0.1400 
     43 CB          5.2343  -15.9590  -42.9773 C.3       6 UNK        -0.1800 
     44 N           3.0990  -14.9352  -43.5676 N.am      6 UNK        -0.5000 
     45 C           1.7888  -14.6532  -43.6225 C.2       5 UNK         0.5000 
     46 O           0.9202  -15.3704  -43.1252 O.2       5 UNK        -0.5000 
     47 CA          1.3863  -13.3570  -44.3621 C.3       5 UNK         0.1400 
     48 CB          2.4144  -12.2234  -44.1695 C.3       5 UNK        -0.1800 
     49 N           1.1047  -13.5058  -45.7968 N.am      5 UNK        -0.5000 
     50 C           1.7839  -14.1971  -46.7277 C.2       4 UNK         0.5000 
     51 O           2.6927  -14.9897  -46.4830 O.2       4 UNK        -0.5000 
     52 CA          1.4202  -13.9221  -48.2019 C.3       4 UNK         0.1400 
     53 CB          0.4147  -14.9479  -48.7384 C.3       4 UNK        -0.1800 
     54 N           0.9084  -12.5679  -48.4278 N.am      4 UNK        -0.5000 
     55 C           1.6667  -11.4629  -48.3429 C.2       3 UNK         0.5000 
     56 O           2.8700  -11.4876  -48.0803 O.2       3 UNK        -0.5000 
     57 CA          0.9970  -10.0979  -48.5994 C.3       3 UNK         0.1400 
     58 CB          1.4202   -9.5433  -49.9689 C.3       3 UNK        -0.1800 
     59 N          -0.4636  -10.1143  -48.5380 N.am      3 UNK        -0.5000 
     60 C          -1.1994  -10.3210  -47.4389 C.2       2 UNK         0.5000 
     61 O          -0.7193  -10.5565  -46.3288 O.2       2 UNK        -0.5000 
     62 CA         -2.7338  -10.2773  -47.6096 C.3       2 UNK         0.1400 
     63 CB         -3.2020   -9.7481  -48.9850 C.3       2 UNK        -0.1800 
     64 N          -3.3599  -11.5741  -47.3406 N.am      2 UNK        -0.5000 
     65 C          -3.0491  -12.7506  -47.9027 C.2       1 UNK         0.5000 
     66 O          -2.1414  -12.9114  -48.7227 O.2       1 UNK        -0.5000 
     67 C          -2.1794  -24.3690  -45.7135 C.2       11 UNK         0.5000 
     68 O          -2.9712  -25.1248  -46.2741 O.2       11 UNK        -0.5000 
     69 N          -2.0115  -24.3215  -44.3835 N.am      12 UNK        -0.5000 
     70 CA         -2.6513  -25.2360  -43.4400 C.3       12 UNK         0.1400 
     71 CB         -2.5838  -24.6373  -42.0269 C.3       12 UNK        -0.1800 
     72 C          -2.0205  -26.6416  -43.4714 C.2       12 UNK         0.5000 
     73 O          -2.7366  -27.6280  -43.2950 O.2       12 UNK        -0.5000 
     74 N          -0.6997  -26.7101  -43.6918 N.am      13 UNK        -0.5000 
     75 CA          0.0503  -27.9570  -43.8424 C.3       13 UNK         0.1400 
     76 CB          1.5384  -27.6911  -43.5657 C.3       13 UNK        -0.1800 
     77 C          -0.1473  -28.5848  -45.2349 C.2       13 UNK         0.5000 
     78 O          -0.3146  -29.8012  -45.3379 O.2       13 UNK        -0.5000 
     79 N          -0.1231  -27.7436  -46.2762 N.am      14 UNK        -0.5000 
     80 CA         -0.3708  -28.1071  -47.6705 C.3       14 UNK         0.1400 
     81 CB          0.2068  -26.9987  -48.5687 C.3       14 UNK        -0.1800 
     82 C          -1.8689  -28.3289  -47.9651 C.2       14 UNK         0.5000 
     83 O          -2.7231  -28.1437  -47.0951 O.2       14 UNK        -0.5000 
     84 N          -2.1722  -28.7003  -49.2145 N.am      15 UNK        -0.5000 
     85 CA         -3.5277  -28.8634  -49.7427 C.3       15 UNK         0.1400 
     86 CB         -3.4735  -29.8234  -50.9455 C.3       15 UNK        -0.1800 
     87 C          -4.1691  -27.5013  -50.0921 C.2       15 UNK         0.5000 
     88 O          -4.4714  -27.2432  -51.2590 O.2       15 UNK        -0.5000 
     89 N          -4.3527  -26.6583  -49.0660 N.am      16 UNK        -0.5000 
     90 CA         -4.8917  -25.2943  -49.1057 C.3       16 UNK         0.1400 
     91 CB         -6.3456  -25.2920  -49.6305 C.3       16 UNK        -0.1800 
     92 C          -3.9768  -24.2978  -49.8538 C.2       16 UNK         0.5000 
     93 O          -2.8107  -24.5963  -50.1257 O.2       16 UNK        -0.5000 
     94 N          -4.5082  -23.0979  -50.1191 N.am      17 UNK        -0.5000 
     95 CA         -3.8372  -22.0221  -50.8482 C.3       17 UNK         0.1400 
     96 CB         -4.5874  -20.7112  -50.5802 C.3       17 UNK        -0.1800 
     97 C          -3.7918  -22.3007  -52.3600 C.2       17 UNK         0.5000 
     98 O          -4.6895  -22.9588  -52.8922 O.2       17 UNK        -0.5000 
     99 N          -2.7669  -21.7608  -53.0303 N.am      18 UNK        -0.5000 
    100 CA        -2.5905  -21.8744  -54.4793 C.3       18 UNK         0.1400 
    101 CB        -1.1252  -21.5773  -54.8339 C.3       18 UNK        -0.1800 
    102 C         -3.5323  -20.9468  -55.2704 C.2       18 UNK         0.5000 
    103 O         -3.9662  -21.3156  -56.3623 O.2       18 UNK        -0.5000 
    104 N         -3.8238  -19.7674  -54.7091 N.am      19 UNK        -0.5000 
    105 CA        -4.6320  -18.6922  -55.2803 C.3       19 UNK         0.1400 
    106 CB        -3.9559  -18.1165  -56.5454 C.3       19 UNK        -0.1800 
    107 C         -4.7941  -17.5986  -54.2117 C.2       19 UNK         0.5000 
    108 O         -4.2154  -17.7127  -53.1261 O.2       19 UNK        -0.5000 
    109 N         -5.5306  -16.5303  -54.5464 N.am      20 UNK        -0.5000 
    110 CA        -5.6316  -15.3000  -53.7571 C.3       20 UNK         0.1400 
    111 CB        -6.6335  -14.3467  -54.4272 C.3       20 UNK        -0.1800 
    112 C         -4.2464  -14.6409  -53.6020 C.2       20 UNK         0.5000 
    113 O         -3.6712  -14.1873  -54.5935 O.2       20 UNK        -0.5000 
    114 N         -3.7093  -14.6972  -52.3749 N.am      21 UNK        -0.5000 
    115 CA        -2.3351  -14.3426  -51.9866 C.3       21 UNK         0.1400 
    116 CB        -2.0921  -12.8269  -52.1346 C.3       21 UNK        -0.1800 
    117 C         -1.2480  -15.1954  -52.6844 C.2       21 UNK         0.5000 
    118 O         -0.0828  -14.7982  -52.7059 O.2       21 UNK        -0.5000 
    119 N         -1.6436  -16.3631  -53.2148 N.am      22 UNK        -0.5000 
    120 CA        -0.8116  -17.3487  -53.9271 C.3       22 UNK         0.1400 
    121 C         -0.1121  -16.8137  -55.2147 C.2       22 UNK         0.5000 
    122 N         -0.6137  -15.7535  -55.8381 N.am      22 UNK        -0.7600 
    123 O          0.8715  -17.3823  -55.6803 O.2       22 UNK        -0.5000 
    124 C124        0.1338  -18.1321  -52.9749 C.3       23 UNK        -0.0398 
    125 S125       -0.8113  -19.0919  -51.7387 S.3       23 UNK        -0.2404 
    126 C126       -0.6838  -18.0018  -50.2897 C.3       23 UNK        -0.0205 
    127 H127       -1.3225  -16.8227  -46.4809 H         1 UNK         0.0600 
    128 H128       -2.0132  -16.8803  -44.8522 H         1 UNK         0.0600 
    129 H129       -0.5547  -15.9377  -45.1787 H         1 UNK         0.0600 
    130 H130       -3.0822  -15.8806  -47.5911 H         1 UNK         0.3000 
    131 H131       -4.5840  -13.6438  -46.6845 H         1 UNK         0.0600 
    132 H132       -4.2032  -14.7159  -49.5247 H         1 UNK         0.0800 
    133 H133       -5.3750  -13.5073  -49.0750 H         1 UNK         0.0800 
    134 H134       -5.5367  -16.6954  -50.3815 H         1 UNK         0.0800 
    135 H135       -6.3356  -17.7966  -49.2940 H         1 UNK         0.0800 
    136 H136       -3.1747  -16.9887  -50.6855 H         1 UNK         0.1150 
    137 H137       -0.8848  -19.3039  -47.9121 H         1 UNK         0.1150 
    138 H138       -5.0121  -18.4698  -47.1057 H         1 UNK         0.1150 
    139 H139       -1.8161  -19.7250  -45.7095 H         1 UNK         0.0800 
    140 H140       -3.4390  -19.2319  -45.2991 H         1 UNK         0.0800 
    141 H141       -1.3262  -21.4615  -47.4825 H         1 UNK         0.0800 
    142 H142       -2.5116  -22.5345  -48.1167 H         1 UNK         0.0800 
    143 H143       -0.9936  -24.0359  -47.4252 H         1 UNK         0.0600 
    144 H144        0.0587  -22.0796  -45.6128 H         1 UNK         0.3000 
    145 H145        2.7822  -24.2385  -44.6121 H         1 UNK         0.0600 
    146 H146        3.9735  -22.1811  -45.3860 H         1 UNK         0.0600 
    147 H147        2.5557  -21.7039  -46.3201 H         1 UNK         0.0600 
    148 H148        3.4288  -23.1694  -46.7321 H         1 UNK         0.0600 
    149 H149        1.9967  -21.5887  -43.8358 H         1 UNK         0.3000 
    150 H150        0.2671  -22.4922  -40.8812 H         1 UNK         0.0600 
    151 H151        2.6364  -22.9328  -40.2307 H         1 UNK         0.0600 
    152 H152        2.1387  -21.3157  -39.7585 H         1 UNK         0.0600 
    153 H153        3.1687  -21.5437  -41.1717 H         1 UNK         0.0600 
    154 H154        1.4052  -20.0524  -41.9957 H         1 UNK         0.3000 
    155 H155       -1.6231  -19.0517  -43.6192 H         1 UNK         0.0600 
    156 H156       -1.7800  -18.3710  -41.2231 H         1 UNK         0.0600 
    157 H157       -1.2195  -17.0611  -42.2501 H         1 UNK         0.0600 
    158 H158       -0.0737  -17.9362  -41.2368 H         1 UNK         0.0600 
    159 H159        0.7682  -17.6632  -43.5824 H         1 UNK         0.3000 
    160 H160        2.9745  -19.3342  -45.5774 H         1 UNK         0.0600 
    161 H161        1.0376  -17.4218  -46.9720 H         1 UNK         0.0600 
    162 H162        1.5414  -19.0012  -47.5620 H         1 UNK         0.0600 
    163 H163        2.7105  -17.6949  -47.4630 H         1 UNK         0.0600 
    164 H164        2.7079  -16.5262  -45.2839 H         1 UNK         0.3000 
    165 H165        3.3858  -16.1393  -41.9016 H         1 UNK         0.0600 
    166 H166        5.5506  -15.0576  -42.4520 H         1 UNK         0.0600 
    167 H167        5.7254  -16.8043  -42.4930 H         1 UNK         0.0600 
    168 H168        5.6099  -15.9027  -43.9998 H         1 UNK         0.0600 
    169 H169        3.7319  -14.3123  -44.0479 H         1 UNK         0.3000 
    170 H170        0.4512  -13.0292  -43.9052 H         1 UNK         0.0600 
    171 H171        2.6679  -12.0921  -43.1166 H         1 UNK         0.0600 
    172 H172        3.3391  -12.4102  -44.7165 H         1 UNK         0.0600 
    173 H173        2.0126  -11.2739  -44.5244 H         1 UNK         0.0600 
    174 H174        0.3651  -12.9048  -46.1357 H         1 UNK         0.3000 
    175 H175        2.3371  -14.0290  -48.7856 H         1 UNK         0.0600 
    176 H176       -0.4979  -14.9711  -48.1469 H         1 UNK         0.0600 
    177 H177        0.1396  -14.7246  -49.7690 H         1 UNK         0.0600 
    178 H178        0.8439  -15.9484  -48.7293 H         1 UNK         0.0600 
    179 H179       -0.0805  -12.4806  -48.6385 H         1 UNK         0.3000 
    180 H180        1.3562   -9.4139  -47.8277 H         1 UNK         0.0600 
    181 H181        1.0230   -8.5408  -50.1297 H         1 UNK         0.0600 
    182 H182        1.0718  -10.1788  -50.7842 H         1 UNK         0.0600 
    183 H183        2.5063   -9.4758  -50.0467 H         1 UNK         0.0600 
    184 H184       -0.9484   -9.9632  -49.4104 H         1 UNK         0.3000 
    185 H185       -3.1025   -9.5883  -46.8484 H         1 UNK         0.0600 
    186 H186       -2.9059  -10.4049  -49.8038 H         1 UNK         0.0600 
    187 H187       -4.2881   -9.6596  -49.0156 H         1 UNK         0.0600 
    188 H188       -2.7978   -8.7551  -49.1862 H         1 UNK         0.0600 
    189 H189       -4.0880  -11.5587  -46.6403 H         1 UNK         0.3000 
    190 H190       -1.3639  -23.6472  -44.0010 H         1 UNK         0.3000 
    191 H191       -3.7035  -25.3355  -43.7150 H         1 UNK         0.0600 
    192 H192       -3.0738  -23.6641  -41.9878 H         1 UNK         0.0600 
    193 H193       -1.5550  -24.5065  -41.6910 H         1 UNK         0.0600 
    194 H194       -3.0850  -25.2836  -41.3054 H         1 UNK         0.0600 
    195 H195       -0.1767  -25.8507  -43.7968 H         1 UNK         0.3000 
    196 H196       -0.3066  -28.6720  -43.0980 H         1 UNK         0.0600 
    197 H197        1.6868  -27.2970  -42.5601 H         1 UNK         0.0600 
    198 H198        1.9600  -26.9729  -44.2696 H         1 UNK         0.0600 
    199 H199        2.1203  -28.6101  -43.6454 H         1 UNK         0.0600 
    200 H200        0.0627  -26.7602  -46.0986 H         1 UNK         0.3000 
    201 H201        0.1568  -29.0389  -47.8840 H         1 UNK         0.0600 
    202 H202        1.2506  -26.7971  -48.3266 H         1 UNK         0.0600 
    203 H203       -0.3474  -26.0663  -48.4585 H         1 UNK         0.0600 
    204 H204        0.1713  -27.2769  -49.6222 H         1 UNK         0.0600 
    205 H205       -1.4240  -28.8051  -49.8843 H         1 UNK         0.3000 
    206 H206       -4.1538  -29.3301  -48.9792 H         1 UNK         0.0600 
    207 H207       -2.8515  -29.4290  -51.7500 H         1 UNK         0.0600 
    208 H208       -3.0716  -30.7947  -50.6564 H         1 UNK         0.0600 
    209 H209       -4.4703  -29.9953  -51.3536 H         1 UNK         0.0600 
    210 H210       -3.9886  -26.9506  -48.1636 H         1 UNK         0.3000 
    211 H211       -4.9205  -24.9591  -48.0686 H         1 UNK         0.0600 
    212 H212       -6.3892  -25.4604  -50.7072 H         1 UNK         0.0600 
    213 H213       -6.8408  -24.3423  -49.4277 H         1 UNK         0.0600 
    214 H214       -6.9401  -26.0673  -49.1470 H         1 UNK         0.0600 
    215 H215       -5.4767  -22.9364  -49.8873 H         1 UNK         0.3000 
    216 H216       -2.8157  -21.9234  -50.4746 H         1 UNK         0.0600 
    217 H217       -4.0913  -19.8705  -51.0664 H         1 UNK         0.0600 
    218 H218       -4.6255  -20.4976  -49.5129 H         1 UNK         0.0600 
    219 H219       -5.6120  -20.7456  -50.9524 H         1 UNK         0.0600 
    220 H220       -2.0775  -21.2159  -52.5299 H         1 UNK         0.3000 
    221 H221       -2.8069  -22.9028  -54.7772 H         1 UNK         0.0600 
    222 H222       -0.8445  -20.5575  -54.5713 H         1 UNK         0.0600 
    223 H223       -0.4476  -22.2563  -54.3161 H         1 UNK         0.0600 
    224 H224       -0.9513  -21.6984  -55.9039 H         1 UNK         0.0600 
    225 H225       -3.4794  -19.5576  -53.7798 H         1 UNK         0.3000 
    226 H226       -5.6200  -19.0841  -55.5279 H         1 UNK         0.0600 
    227 H227       -3.8479  -18.8683  -57.3263 H         1 UNK         0.0600 
    228 H228       -4.5409  -17.3045  -56.9778 H         1 UNK         0.0600 
    229 H229       -2.9636  -17.7218  -56.3264 H         1 UNK         0.0600 
    230 H230       -5.9544  -16.5020  -55.4622 H         1 UNK         0.3000 
    231 H231       -6.0196  -15.5604  -52.7701 H         1 UNK         0.0600 
    232 H232       -6.7309  -13.4216  -53.8577 H         1 UNK         0.0600 
    233 H233       -7.6249  -14.7960  -54.4885 H         1 UNK         0.0600 
    234 H234       -6.3236  -14.0787  -55.4381 H         1 UNK         0.0600 
    235 H235       -4.2632  -15.1286  -51.6512 H         1 UNK         0.3000 
    236 H236       -2.2487  -14.5797  -50.9258 H         1 UNK         0.0600 
    237 H237       -2.0775  -12.5171  -53.1796 H         1 UNK         0.0600 
    238 H238       -2.8654  -12.2544  -51.6226 H         1 UNK         0.0600 
    239 H239       -1.1368  -12.5400  -51.6929 H         1 UNK         0.0600 
    240 H240       -2.6177  -16.6297  -53.1150 H         1 UNK         0.3000 
    241 H241       -1.5204  -18.0769  -54.3195 H         1 UNK         0.0600 
    242 H242       -0.1680  -15.4141  -56.6757 H         1 UNK         0.3800 
    243 H243       -1.4212  -15.2736  -55.4685 H         1 UNK         0.3800 
    244 H244        0.8392  -17.4603  -52.4840 H         1 UNK         0.0800 
    245 H245        0.7391  -18.8474  -53.5336 H         1 UNK         0.0800 
    246 H246       -0.5889  -16.9640  -50.6014 H         1 UNK         0.0800 
    247 H247        0.2309  -18.2406  -49.7455 H         1 UNK         0.0800 
@<TRIPOS>BOND
     1    1    2 1    
     2    1  127 1    
     3    1  128 1    
     4    1  129 1    
     5    2    3 2    
     6    2    4 am   BACKBONE|DICT|INTERRES
     7    4    5 1    
     8    4  130 1    
     9    5    6 1    
    10    5   65 1    
    11    5  131 1    
    12    6    7 1    
    13    6  132 1    
    14    6  133 1    
    15    7    8 1    
    16    8    9 1    
    17    8  134 1    
    18    8  135 1    
    19    9   10 ar   
    20    9   14 ar   
    21   10   11 ar   
    22   10  136 1    
    23   11   12 ar   
    24   11  126 1    
    25   12   13 ar   
    26   12  137 1    
    27   13   14 ar   
    28   13   15 1    
    29   14  138 1    
    30   15   16 1    
    31   15  139 1    
    32   15  140 1    
    33   16   17 1    
    34   17   18 1    
    35   17  141 1    
    36   17  142 1    
    37   18   19 1    
    38   18   67 1    
    39   18  143 1    
    40   19   20 am   BACKBONE|DICT|INTERRES
    41   19  144 1    
    42   20   21 2    
    43   20   22 1    
    44   22   23 1    
    45   22   24 1    
    46   22  145 1    
    47   23  146 1    
    48   23  147 1    
    49   23  148 1    
    50   24   25 am   BACKBONE|DICT|INTERRES
    51   24  149 1    
    52   25   26 2    
    53   25   27 1    
    54   27   28 1    
    55   27   29 1    
    56   27  150 1    
    57   28  151 1    
    58   28  152 1    
    59   28  153 1    
    60   29   30 am   BACKBONE|DICT|INTERRES
    61   29  154 1    
    62   30   31 2    
    63   30   32 1    
    64   32   33 1    
    65   32   34 1    
    66   32  155 1    
    67   33  156 1    
    68   33  157 1    
    69   33  158 1    
    70   34   35 am   BACKBONE|DICT|INTERRES
    71   34  159 1    
    72   35   36 2    
    73   35   37 1    
    74   37   38 1    
    75   37   39 1    
    76   37  160 1    
    77   38  161 1    
    78   38  162 1    
    79   38  163 1    
    80   39   40 am   BACKBONE|DICT|INTERRES
    81   39  164 1    
    82   40   41 2    
    83   40   42 1    
    84   42   43 1    
    85   42   44 1    
    86   42  165 1    
    87   43  166 1    
    88   43  167 1    
    89   43  168 1    
    90   44   45 am   BACKBONE|DICT|INTERRES
    91   44  169 1    
    92   45   46 2    
    93   45   47 1    
    94   47   48 1    
    95   47   49 1    
    96   47  170 1    
    97   48  171 1    
    98   48  172 1    
    99   48  173 1    
   100   49   50 am   BACKBONE|DICT|INTERRES
   101   49  174 1    
   102   50   51 2    
   103   50   52 1    
   104   52   53 1    
   105   52   54 1    
   106   52  175 1    
   107   53  176 1    
   108   53  177 1    
   109   53  178 1    
   110   54   55 am   BACKBONE|DICT|INTERRES
   111   54  179 1    
   112   55   56 2    
   113   55   57 1    
   114   57   58 1    
   115   57   59 1    
   116   57  180 1    
   117   58  181 1    
   118   58  182 1    
   119   58  183 1    
   120   59   60 am   BACKBONE|DICT|INTERRES
   121   59  184 1    
   122   60   61 2    
   123   60   62 1    
   124   62   63 1    
   125   62   64 1    
   126   62  185 1    
   127   63  186 1    
   128   63  187 1    
   129   63  188 1    
   130   64   65 am   BACKBONE|DICT|INTERRES
   131   64  189 1    
   132   65   66 2    
   133   67   68 2    
   134   67   69 am   BACKBONE|DICT|INTERRES
   135   69   70 1    
   136   69  190 1    
   137   70   71 1    
   138   70   72 1    
   139   70  191 1    
   140   71  192 1    
   141   71  193 1    
   142   71  194 1    
   143   72   73 2    
   144   72   74 am   BACKBONE|DICT|INTERRES
   145   74   75 1    
   146   74  195 1    
   147   75   76 1    
   148   75   77 1    
   149   75  196 1    
   150   76  197 1    
   151   76  198 1    
   152   76  199 1    
   153   77   78 2    
   154   77   79 am   BACKBONE|DICT|INTERRES
   155   79   80 1    
   156   79  200 1    
   157   80   81 1    
   158   80   82 1    
   159   80  201 1    
   160   81  202 1    
   161   81  203 1    
   162   81  204 1    
   163   82   83 2    
   164   82   84 am   BACKBONE|DICT|INTERRES
   165   84   85 1    
   166   84  205 1    
   167   85   86 1    
   168   85   87 1    
   169   85  206 1    
   170   86  207 1    
   171   86  208 1    
   172   86  209 1    
   173   87   88 2    
   174   87   89 am   BACKBONE|DICT|INTERRES
   175   89   90 1    
   176   89  210 1    
   177   90   91 1    
   178   90   92 1    
   179   90  211 1    
   180   91  212 1    
   181   91  213 1    
   182   91  214 1    
   183   92   93 2    
   184   92   94 am   BACKBONE|DICT|INTERRES
   185   94   95 1    
   186   94  215 1    
   187   95   96 1    
   188   95   97 1    
   189   95  216 1    
   190   96  217 1    
   191   96  218 1    
   192   96  219 1    
   193   97   98 2    
   194   97   99 am   BACKBONE|DICT|INTERRES
   195   99  100 1    
   196   99  220 1    
   197  100  101 1    
   198  100  102 1    
   199  100  221 1    
   200  101  222 1    
   201  101  223 1    
   202  101  224 1    
   203  102  103 2    
   204  102  104 am   BACKBONE|DICT|INTERRES
   205  104  105 1    
   206  104  225 1    
   207  105  106 1    
   208  105  107 1    
   209  105  226 1    
   210  106  227 1    
   211  106  228 1    
   212  106  229 1    
   213  107  108 2    
   214  107  109 am   BACKBONE|DICT|INTERRES
   215  109  110 1    
   216  109  230 1    
   217  110  111 1    
   218  110  112 1    
   219  110  231 1    
   220  111  232 1    
   221  111  233 1    
   222  111  234 1    
   223  112  113 2    
   224  112  114 am   BACKBONE|DICT|INTERRES
   225  114  115 1    
   226  114  235 1    
   227  115  116 1    
   228  115  117 1    
   229  115  236 1    
   230  116  237 1    
   231  116  238 1    
   232  116  239 1    
   233  117  118 2    
   234  117  119 am   BACKBONE|DICT|INTERRES
   235  119  120 1    
   236  119  240 1    
   237  120  121 1    
   238  120  124 1    
   239  120  241 1    
   240  121  122 am   BACKBONE|DICT|INTERRES
   241  121  123 2    
   242  122  242 1    
   243  122  243 1    
   244  124  125 1    
   245  124  244 1    
   246  124  245 1    
   247  125  126 1    
   248  126  246 1    
   249  126  247 1    
@<TRIPOS>SUBSTRUCTURE
     1 UNK         1 GROUP             0       ****    0 ROOT    
