@<TRIPOS>MOLECULE
3R540
247   249    1
SMALL
USER_CHARGES


@<TRIPOS>ATOM
      1 CA         -4.0000  -17.1046  -47.4295 C.3       0 UNK        -0.1800 
      2 C          -3.6409  -15.7324  -47.9802 C.2       0 UNK         0.5000 
      3 O          -4.4883  -15.0696  -48.5784 O.2       0 UNK        -0.5000 
      4 N          -2.3870  -15.3091  -47.7835 N.am      1 UNK        -0.5000 
      5 CA         -1.8641  -14.0063  -48.2054 C.3       1 UNK         0.1400 
      6 C6         -0.3149  -13.9786  -48.1944 C.3       23 UNK        -0.0398 
      7 S7          0.3860  -15.0991  -49.4494 S.3       23 UNK        -0.2404 
      8 C8          0.8765  -16.5174  -48.4168 C.3       23 UNK        -0.0205 
      9 C9          0.9345  -17.8221  -49.1976 C.ar      23 UNK        -0.0193 
     10 C10        -0.1436  -18.2164  -49.9948 C.ar      23 UNK        -0.1150 
     11 C11        -0.1191  -19.4367  -50.6709 C.ar      23 UNK        -0.0193 
     12 C12         0.9889  -20.2768  -50.5403 C.ar      23 UNK        -0.1150 
     13 C13         2.0632  -19.9082  -49.7246 C.ar      23 UNK        -0.0193 
     14 C14         2.0376  -18.6718  -49.0705 C.ar      23 UNK        -0.1150 
     15 C15         3.2248  -20.8668  -49.5093 C.3       23 UNK        -0.0205 
     16 S16         2.6810  -22.3309  -48.5756 S.3       23 UNK        -0.2404 
     17 C17         4.2643  -23.1064  -48.1171 C.3       23 UNK        -0.0398 
     18 CA          4.1993  -23.9852  -46.8397 C.3       11 UNK         0.1400 
     19 N           3.8972  -23.2071  -45.6280 N.am      11 UNK        -0.5000 
     20 C           4.4394  -23.4452  -44.4240 C.2       10 UNK         0.5000 
     21 O           5.3057  -24.2976  -44.2253 O.2       10 UNK        -0.5000 
     22 CA          3.9124  -22.6276  -43.2284 C.3       10 UNK         0.1400 
     23 CB          4.6985  -21.3161  -43.0819 C.3       10 UNK        -0.1800 
     24 N           2.4785  -22.3363  -43.2905 N.am      10 UNK        -0.5000 
     25 C           1.4993  -23.2525  -43.2624 C.2       9 UNK         0.5000 
     26 O           1.7029  -24.4636  -43.1857 O.2       9 UNK        -0.5000 
     27 CA          0.0515  -22.7356  -43.3915 C.3       9 UNK         0.1400 
     28 CB         -0.5202  -22.3469  -42.0206 C.3       9 UNK        -0.1800 
     29 N          -0.0592  -21.6040  -44.3135 N.am      9 UNK        -0.5000 
     30 C           0.2087  -21.6881  -45.6242 C.2       8 UNK         0.5000 
     31 O           0.5081  -22.7417  -46.1841 O.2       8 UNK        -0.5000 
     32 CA          0.2007  -20.3737  -46.4215 C.3       8 UNK         0.1400 
     33 CB         -1.2100  -20.0253  -46.9134 C.3       8 UNK        -0.1800 
     34 N           0.7458  -19.2661  -45.6351 N.am      8 UNK        -0.5000 
     35 C           2.0559  -19.0825  -45.4109 C.2       7 UNK         0.5000 
     36 O           2.9385  -19.7820  -45.9066 O.2       7 UNK        -0.5000 
     37 CA          2.4513  -17.9544  -44.4367 C.3       7 UNK         0.1400 
     38 CB          2.6572  -16.6270  -45.1794 C.3       7 UNK        -0.1800 
     39 N           1.4727  -17.7547  -43.3687 N.am      7 UNK        -0.5000 
     40 C           1.2265  -18.6417  -42.3943 C.2       6 UNK         0.5000 
     41 O           1.8468  -19.6951  -42.2643 O.2       6 UNK        -0.5000 
     42 CA          0.0611  -18.3281  -41.4360 C.3       6 UNK         0.1400 
     43 CB          0.5803  -17.6164  -40.1782 C.3       6 UNK        -0.1800 
     44 N          -0.9953  -17.5170  -42.0450 N.am      6 UNK        -0.5000 
     45 C          -1.7154  -17.8553  -43.1255 C.2       5 UNK         0.5000 
     46 O          -1.5870  -18.9284  -43.7141 O.2       5 UNK        -0.5000 
     47 CA         -2.6990  -16.7990  -43.6681 C.3       5 UNK         0.1400 
     48 CB         -4.1383  -17.1320  -43.2508 C.3       5 UNK        -0.1800 
     49 N          -2.3616  -15.4427  -43.2233 N.am      5 UNK        -0.5000 
     50 C          -1.3355  -14.7299  -43.7057 C.2       4 UNK         0.5000 
     51 O          -0.6277  -15.0962  -44.6484 O.2       4 UNK        -0.5000 
     52 CA         -0.9889  -13.4403  -42.9509 C.3       4 UNK         0.1400 
     53 CB          0.0819  -13.7478  -41.8828 C.3       4 UNK        -0.1800 
     54 N          -0.5113  -12.4485  -43.9080 N.am      4 UNK        -0.5000 
     55 C          -0.2199  -11.1676  -43.6474 C.2       3 UNK         0.5000 
     56 O          -0.2904  -10.6550  -42.5298 O.2       3 UNK        -0.5000 
     57 CA          0.1895  -10.3013  -44.8533 C.3       3 UNK         0.1400 
     58 CB          1.6165  -10.6400  -45.3136 C.3       3 UNK        -0.1800 
     59 N          -0.7334  -10.4526  -45.9783 N.am      3 UNK        -0.5000 
     60 C          -2.0106  -10.0415  -45.9810 C.2       2 UNK         0.5000 
     61 O          -2.5262   -9.3997  -45.0652 O.2       2 UNK        -0.5000 
     62 CA         -2.8622  -10.4208  -47.2099 C.3       2 UNK         0.1400 
     63 CB         -2.8857   -9.2684  -48.2258 C.3       2 UNK        -0.1800 
     64 N          -2.4121  -11.6431  -47.8841 N.am      2 UNK        -0.5000 
     65 C          -2.4347  -12.8667  -47.3374 C.2       1 UNK         0.5000 
     66 O          -2.8402  -13.0945  -46.1954 O.2       1 UNK        -0.5000 
     67 C           3.2724  -25.2169  -46.9974 C.2       11 UNK         0.5000 
     68 O           3.3960  -25.9384  -47.9883 O.2       11 UNK        -0.5000 
     69 N           2.3834  -25.4471  -46.0177 N.am      12 UNK        -0.5000 
     70 CA          1.4096  -26.5378  -45.9196 C.3       12 UNK         0.1400 
     71 CB          2.1158  -27.9074  -45.8291 C.3       12 UNK        -0.1800 
     72 C           0.3082  -26.4897  -46.9991 C.2       12 UNK         0.5000 
     73 O          -0.2099  -27.5370  -47.3931 O.2       12 UNK        -0.5000 
     74 N          -0.0566  -25.2792  -47.4385 N.am      13 UNK        -0.5000 
     75 CA         -1.2170  -25.0268  -48.2882 C.3       13 UNK         0.1400 
     76 CB         -0.9370  -23.7914  -49.1550 C.3       13 UNK        -0.1800 
     77 C          -2.4778  -24.8323  -47.4230 C.2       13 UNK         0.5000 
     78 O          -2.3775  -24.6060  -46.2140 O.2       13 UNK        -0.5000 
     79 N          -3.6532  -24.9218  -48.0581 N.am      14 UNK        -0.5000 
     80 CA         -4.9579  -24.8122  -47.3952 C.3       14 UNK         0.1400 
     81 CB         -6.0128  -25.5747  -48.2147 C.3       14 UNK        -0.1800 
     82 C          -5.3988  -23.3589  -47.1196 C.2       14 UNK         0.5000 
     83 O          -6.4013  -23.1645  -46.4307 O.2       14 UNK        -0.5000 
     84 N          -4.6478  -22.3755  -47.6410 N.am      15 UNK        -0.5000 
     85 CA         -4.8309  -20.9299  -47.4642 C.3       15 UNK         0.1400 
     86 CB         -4.6859  -20.5415  -45.9754 C.3       15 UNK        -0.1800 
     87 C          -6.1355  -20.3983  -48.0954 C.2       15 UNK         0.5000 
     88 O          -6.7289  -19.4513  -47.5770 O.2       15 UNK        -0.5000 
     89 N          -6.5641  -21.0133  -49.2068 N.am      16 UNK        -0.5000 
     90 CA         -7.8046  -20.6822  -49.9134 C.3       16 UNK         0.1400 
     91 CB         -8.1294  -21.8186  -50.8953 C.3       16 UNK        -0.1800 
     92 C          -7.7814  -19.3287  -50.6557 C.2       16 UNK         0.5000 
     93 O          -8.8496  -18.8020  -50.9704 O.2       16 UNK        -0.5000 
     94 N          -6.5872  -18.7979  -50.9415 N.am      17 UNK        -0.5000 
     95 CA         -6.3460  -17.5727  -51.6976 C.3       17 UNK         0.1400 
     96 CB         -6.6070  -17.8228  -53.1976 C.3       17 UNK        -0.1800 
     97 C          -4.8938  -17.1275  -51.4726 C.2       17 UNK         0.5000 
     98 O          -4.0992  -17.8926  -50.9242 O.2       17 UNK        -0.5000 
     99 N          -4.5668  -15.9117  -51.9267 N.am      18 UNK        -0.5000 
    100 CA        -3.2006  -15.3805  -51.9320 C.3       18 UNK         0.1400 
    101 CB        -3.2652  -13.8451  -51.9135 C.3       18 UNK        -0.1800 
    102 C         -2.3839  -15.8684  -53.1465 C.2       18 UNK         0.5000 
    103 O         -1.1541  -15.8522  -53.0951 O.2       18 UNK        -0.5000 
    104 N         -3.0756  -16.2752  -54.2214 N.am      19 UNK        -0.5000 
    105 CA        -2.4905  -16.8543  -55.4315 C.3       19 UNK         0.1400 
    106 CB        -3.5641  -16.8916  -56.5300 C.3       19 UNK        -0.1800 
    107 C         -1.9420  -18.2678  -55.1665 C.2       19 UNK         0.5000 
    108 O         -2.4972  -18.9825  -54.3330 O.2       19 UNK        -0.5000 
    109 N         -0.8767  -18.6441  -55.8861 N.am      20 UNK        -0.5000 
    110 CA        -0.1544  -19.9123  -55.7414 C.3       20 UNK         0.1400 
    111 CB         1.0031  -19.9377  -56.7521 C.3       20 UNK        -0.1800 
    112 C         -1.0354  -21.1693  -55.9046 C.2       20 UNK         0.5000 
    113 O         -2.0083  -21.1465  -56.6626 O.2       20 UNK        -0.5000 
    114 N         -0.6427  -22.2444  -55.2038 N.am      21 UNK        -0.5000 
    115 CA        -1.3268  -23.5415  -55.1104 C.3       21 UNK         0.1400 
    116 CB        -1.3683  -24.2556  -56.4785 C.3       21 UNK        -0.1800 
    117 C         -2.7100  -23.4308  -54.4324 C.2       21 UNK         0.5000 
    118 O         -3.6850  -24.0253  -54.8946 O.2       21 UNK        -0.5000 
    119 N         -2.7585  -22.6704  -53.3323 N.am      22 UNK        -0.5000 
    120 CA        -3.9535  -22.3854  -52.5215 C.3       22 UNK         0.1400 
    121 C         -4.4186  -23.5283  -51.5687 C.2       22 UNK         0.5000 
    122 N         -3.9867  -24.7698  -51.7499 N.am      22 UNK        -0.7600 
    123 O         -5.1869  -23.2827  -50.6435 O.2       22 UNK        -0.5000 
    124 C124       -3.8296  -21.0215  -51.7984 C.3       23 UNK        -0.0398 
    125 S125       -2.4483  -20.9109  -50.6096 S.3       23 UNK        -0.2404 
    126 C126       -1.3005  -19.8441  -51.5280 C.3       23 UNK        -0.0205 
    127 H127       -4.4406  -17.7187  -48.2142 H         1 UNK         0.0600 
    128 H128       -4.7273  -17.0080  -46.6235 H         1 UNK         0.0600 
    129 H129       -3.1259  -17.6286  -47.0442 H         1 UNK         0.0600 
    130 H130       -1.7555  -15.8689  -47.2319 H         1 UNK         0.3000 
    131 H131       -2.1994  -13.8301  -49.2285 H         1 UNK         0.0600 
    132 H132        0.0577  -12.9796  -48.4267 H         1 UNK         0.0800 
    133 H133        0.0780  -14.2246  -47.2061 H         1 UNK         0.0800 
    134 H134        1.8468  -16.2921  -47.9744 H         1 UNK         0.0800 
    135 H135        0.1748  -16.6486  -47.5929 H         1 UNK         0.0800 
    136 H136       -1.0119  -17.5776  -50.0808 H         1 UNK         0.1150 
    137 H137        0.9994  -21.2345  -51.0412 H         1 UNK         0.1150 
    138 H138        2.8603  -18.3904  -48.4285 H         1 UNK         0.1150 
    139 H139        3.6331  -21.1764  -50.4721 H         1 UNK         0.0800 
    140 H140        4.0307  -20.3696  -48.9674 H         1 UNK         0.0800 
    141 H141        4.6157  -23.6941  -48.9667 H         1 UNK         0.0800 
    142 H142        5.0105  -22.3245  -47.9707 H         1 UNK         0.0800 
    143 H143        5.2010  -24.4056  -46.7296 H         1 UNK         0.0600 
    144 H144        3.1919  -22.4875  -45.7240 H         1 UNK         0.3000 
    145 H145        4.0830  -23.2220  -42.3285 H         1 UNK         0.0600 
    146 H146        4.3994  -20.7741  -42.1847 H         1 UNK         0.0600 
    147 H147        4.5479  -20.6583  -43.9376 H         1 UNK         0.0600 
    148 H148        5.7690  -21.5092  -43.0016 H         1 UNK         0.0600 
    149 H149        2.2177  -21.3556  -43.2713 H         1 UNK         0.3000 
    150 H150       -0.5577  -23.5484  -43.7936 H         1 UNK         0.0600 
    151 H151       -0.5560  -23.2126  -41.3582 H         1 UNK         0.0600 
    152 H152       -1.5361  -21.9611  -42.1087 H         1 UNK         0.0600 
    153 H153        0.0879  -21.5885  -41.5291 H         1 UNK         0.0600 
    154 H154       -0.3396  -20.7105  -43.9290 H         1 UNK         0.3000 
    155 H155        0.8252  -20.5207  -47.3010 H         1 UNK         0.0600 
    156 H156       -1.6272  -20.8418  -47.5025 H         1 UNK         0.0600 
    157 H157       -1.1989  -19.1415  -47.5488 H         1 UNK         0.0600 
    158 H158       -1.8907  -19.8322  -46.0877 H         1 UNK         0.0600 
    159 H159        0.0763  -18.6998  -45.1324 H         1 UNK         0.3000 
    160 H160        3.4017  -18.2369  -43.9787 H         1 UNK         0.0600 
    161 H161        1.7197  -16.2431  -45.5812 H         1 UNK         0.0600 
    162 H162        3.3548  -16.7452  -46.0096 H         1 UNK         0.0600 
    163 H163        3.0685  -15.8662  -44.5158 H         1 UNK         0.0600 
    164 H164        0.9107  -16.9171  -43.4186 H         1 UNK         0.3000 
    165 H165       -0.3852  -19.2770  -41.1344 H         1 UNK         0.0600 
    166 H166       -0.2212  -17.4506  -39.4581 H         1 UNK         0.0600 
    167 H167        1.3441  -18.2147  -39.6795 H         1 UNK         0.0600 
    168 H168        1.0252  -16.6496  -40.4164 H         1 UNK         0.0600 
    169 H169       -1.1768  -16.6224  -41.6168 H         1 UNK         0.3000 
    170 H170       -2.6446  -16.8316  -44.7575 H         1 UNK         0.0600 
    171 H171       -4.4212  -18.1302  -43.5880 H         1 UNK         0.0600 
    172 H172       -4.2617  -17.1038  -42.1675 H         1 UNK         0.0600 
    173 H173       -4.8473  -16.4297  -43.6896 H         1 UNK         0.0600 
    174 H174       -2.9056  -15.0711  -42.4575 H         1 UNK         0.3000 
    175 H175       -1.8896  -13.0524  -42.4711 H         1 UNK         0.0600 
    176 H176        1.0123  -14.0922  -42.3363 H         1 UNK         0.0600 
    177 H177        0.3119  -12.8748  -41.2730 H         1 UNK         0.0600 
    178 H178       -0.2580  -14.5256  -41.1987 H         1 UNK         0.0600 
    179 H179       -0.4579  -12.7898  -44.8581 H         1 UNK         0.3000 
    180 H180        0.1735   -9.2559  -44.5374 H         1 UNK         0.0600 
    181 H181        2.3267  -10.5286  -44.4931 H         1 UNK         0.0600 
    182 H182        1.9402   -9.9745  -46.1141 H         1 UNK         0.0600 
    183 H183        1.6942  -11.6652  -45.6776 H         1 UNK         0.0600 
    184 H184       -0.3898  -10.9467  -46.7869 H         1 UNK         0.3000 
    185 H185       -3.8830  -10.5884  -46.8600 H         1 UNK         0.0600 
    186 H186       -3.2433   -8.3474  -47.7634 H         1 UNK         0.0600 
    187 H187       -1.8931   -9.0680  -48.6310 H         1 UNK         0.0600 
    188 H188       -3.5517   -9.4905  -49.0599 H         1 UNK         0.0600 
    189 H189       -2.0720  -11.5287  -48.8282 H         1 UNK         0.3000 
    190 H190        2.3584  -24.7921  -45.2464 H         1 UNK         0.3000 
    191 H191        0.8909  -26.3831  -44.9729 H         1 UNK         0.0600 
    192 H192        1.4054  -28.6981  -45.5855 H         1 UNK         0.0600 
    193 H193        2.8773  -27.9072  -45.0491 H         1 UNK         0.0600 
    194 H194        2.5963  -28.1804  -46.7688 H         1 UNK         0.0600 
    195 H195        0.3552  -24.4540  -47.0082 H         1 UNK         0.3000 
    196 H196       -1.3791  -25.8789  -48.9516 H         1 UNK         0.0600 
    197 H197       -0.8544  -22.8834  -48.5577 H         1 UNK         0.0600 
    198 H198       -0.0089  -23.9034  -49.7158 H         1 UNK         0.0600 
    199 H199       -1.7348  -23.6422  -49.8817 H         1 UNK         0.0600 
    200 H200       -3.6684  -25.0626  -49.0573 H         1 UNK         0.3000 
    201 H201       -4.8901  -25.3044  -46.4226 H         1 UNK         0.0600 
    202 H202       -6.9777  -25.5715  -47.7062 H         1 UNK         0.0600 
    203 H203       -5.7261  -26.6172  -48.3534 H         1 UNK         0.0600 
    204 H204       -6.1659  -25.1352  -49.1988 H         1 UNK         0.0600 
    205 H205       -3.8785  -22.6513  -48.2338 H         1 UNK         0.3000 
    206 H206       -4.0174  -20.4515  -48.0100 H         1 UNK         0.0600 
    207 H207       -3.8113  -21.0092  -45.5238 H         1 UNK         0.0600 
    208 H208       -4.5766  -19.4637  -45.8593 H         1 UNK         0.0600 
    209 H209       -5.5565  -20.8418  -45.3920 H         1 UNK         0.0600 
    210 H210       -6.0376  -21.8056  -49.5641 H         1 UNK         0.3000 
    211 H211       -8.6077  -20.6339  -49.1752 H         1 UNK         0.0600 
    212 H212       -7.3729  -21.9019  -51.6765 H         1 UNK         0.0600 
    213 H213       -9.0892  -21.6506  -51.3854 H         1 UNK         0.0600 
    214 H214       -8.1894  -22.7793  -50.3834 H         1 UNK         0.0600 
    215 H215       -5.7443  -19.2333  -50.5900 H         1 UNK         0.3000 
    216 H216       -7.0087  -16.7880  -51.3273 H         1 UNK         0.0600 
    217 H217       -7.6320  -18.1458  -53.3785 H         1 UNK         0.0600 
    218 H218       -5.9407  -18.5897  -53.5957 H         1 UNK         0.0600 
    219 H219       -6.4529  -16.9170  -53.7844 H         1 UNK         0.0600 
    220 H220       -5.2809  -15.3261  -52.3348 H         1 UNK         0.3000 
    221 H221       -2.6821  -15.7104  -51.0288 H         1 UNK         0.0600 
    222 H222       -2.2645  -13.4144  -51.8581 H         1 UNK         0.0600 
    223 H223       -3.7440  -13.4505  -52.8104 H         1 UNK         0.0600 
    224 H224       -3.8238  -13.4845  -51.0494 H         1 UNK         0.0600 
    225 H225       -4.0812  -16.2912  -54.1600 H         1 UNK         0.3000 
    226 H226       -1.6711  -16.2117  -55.7606 H         1 UNK         0.0600 
    227 H227       -3.9409  -15.8924  -56.7489 H         1 UNK         0.0600 
    228 H228       -3.1595  -17.2966  -57.4584 H         1 UNK         0.0600 
    229 H229       -4.4114  -17.5158  -56.2424 H         1 UNK         0.0600 
    230 H230       -0.5118  -18.0060  -56.5777 H         1 UNK         0.3000 
    231 H231        0.2676  -19.9225  -54.7343 H         1 UNK         0.0600 
    232 H232        1.5890  -20.8530  -56.6570 H         1 UNK         0.0600 
    233 H233        1.6847  -19.1014  -56.5952 H         1 UNK         0.0600 
    234 H234        0.6390  -19.8876  -57.7791 H         1 UNK         0.0600 
    235 H235        0.1917  -22.1619  -54.6398 H         1 UNK         0.3000 
    236 H236       -0.7180  -24.1570  -54.4464 H         1 UNK         0.0600 
    237 H237       -2.0182  -23.7435  -57.1883 H         1 UNK         0.0600 
    238 H238       -0.3738  -24.3201  -56.9200 H         1 UNK         0.0600 
    239 H239       -1.7425  -25.2746  -56.3736 H         1 UNK         0.0600 
    240 H240       -1.9083  -22.2355  -53.0095 H         1 UNK         0.3000 
    241 H241       -4.7843  -22.2750  -53.2206 H         1 UNK         0.0600 
    242 H242       -4.3541  -25.5143  -51.1824 H         1 UNK         0.3800 
    243 H243       -3.3993  -24.9875  -52.5384 H         1 UNK         0.3800 
    244 H244       -3.7425  -20.2253  -52.5354 H         1 UNK         0.0800 
    245 H245       -4.7484  -20.7957  -51.2630 H         1 UNK         0.0800 
    246 H246       -1.8291  -18.9494  -51.8579 H         1 UNK         0.0800 
    247 H247       -0.9552  -20.3533  -52.4277 H         1 UNK         0.0800 
@<TRIPOS>BOND
     1    1    2 1    
     2    1  127 1    
     3    1  128 1    
     4    1  129 1    
     5    2    3 2    
     6    2    4 am   BACKBONE|DICT|INTERRES
     7    4    5 1    
     8    4  130 1    
     9    5    6 1    
    10    5   65 1    
    11    5  131 1    
    12    6    7 1    
    13    6  132 1    
    14    6  133 1    
    15    7    8 1    
    16    8    9 1    
    17    8  134 1    
    18    8  135 1    
    19    9   10 ar   
    20    9   14 ar   
    21   10   11 ar   
    22   10  136 1    
    23   11   12 ar   
    24   11  126 1    
    25   12   13 ar   
    26   12  137 1    
    27   13   14 ar   
    28   13   15 1    
    29   14  138 1    
    30   15   16 1    
    31   15  139 1    
    32   15  140 1    
    33   16   17 1    
    34   17   18 1    
    35   17  141 1    
    36   17  142 1    
    37   18   19 1    
    38   18   67 1    
    39   18  143 1    
    40   19   20 am   BACKBONE|DICT|INTERRES
    41   19  144 1    
    42   20   21 2    
    43   20   22 1    
    44   22   23 1    
    45   22   24 1    
    46   22  145 1    
    47   23  146 1    
    48   23  147 1    
    49   23  148 1    
    50   24   25 am   BACKBONE|DICT|INTERRES
    51   24  149 1    
    52   25   26 2    
    53   25   27 1    
    54   27   28 1    
    55   27   29 1    
    56   27  150 1    
    57   28  151 1    
    58   28  152 1    
    59   28  153 1    
    60   29   30 am   BACKBONE|DICT|INTERRES
    61   29  154 1    
    62   30   31 2    
    63   30   32 1    
    64   32   33 1    
    65   32   34 1    
    66   32  155 1    
    67   33  156 1    
    68   33  157 1    
    69   33  158 1    
    70   34   35 am   BACKBONE|DICT|INTERRES
    71   34  159 1    
    72   35   36 2    
    73   35   37 1    
    74   37   38 1    
    75   37   39 1    
    76   37  160 1    
    77   38  161 1    
    78   38  162 1    
    79   38  163 1    
    80   39   40 am   BACKBONE|DICT|INTERRES
    81   39  164 1    
    82   40   41 2    
    83   40   42 1    
    84   42   43 1    
    85   42   44 1    
    86   42  165 1    
    87   43  166 1    
    88   43  167 1    
    89   43  168 1    
    90   44   45 am   BACKBONE|DICT|INTERRES
    91   44  169 1    
    92   45   46 2    
    93   45   47 1    
    94   47   48 1    
    95   47   49 1    
    96   47  170 1    
    97   48  171 1    
    98   48  172 1    
    99   48  173 1    
   100   49   50 am   BACKBONE|DICT|INTERRES
   101   49  174 1    
   102   50   51 2    
   103   50   52 1    
   104   52   53 1    
   105   52   54 1    
   106   52  175 1    
   107   53  176 1    
   108   53  177 1    
   109   53  178 1    
   110   54   55 am   BACKBONE|DICT|INTERRES
   111   54  179 1    
   112   55   56 2    
   113   55   57 1    
   114   57   58 1    
   115   57   59 1    
   116   57  180 1    
   117   58  181 1    
   118   58  182 1    
   119   58  183 1    
   120   59   60 am   BACKBONE|DICT|INTERRES
   121   59  184 1    
   122   60   61 2    
   123   60   62 1    
   124   62   63 1    
   125   62   64 1    
   126   62  185 1    
   127   63  186 1    
   128   63  187 1    
   129   63  188 1    
   130   64   65 am   BACKBONE|DICT|INTERRES
   131   64  189 1    
   132   65   66 2    
   133   67   68 2    
   134   67   69 am   BACKBONE|DICT|INTERRES
   135   69   70 1    
   136   69  190 1    
   137   70   71 1    
   138   70   72 1    
   139   70  191 1    
   140   71  192 1    
   141   71  193 1    
   142   71  194 1    
   143   72   73 2    
   144   72   74 am   BACKBONE|DICT|INTERRES
   145   74   75 1    
   146   74  195 1    
   147   75   76 1    
   148   75   77 1    
   149   75  196 1    
   150   76  197 1    
   151   76  198 1    
   152   76  199 1    
   153   77   78 2    
   154   77   79 am   BACKBONE|DICT|INTERRES
   155   79   80 1    
   156   79  200 1    
   157   80   81 1    
   158   80   82 1    
   159   80  201 1    
   160   81  202 1    
   161   81  203 1    
   162   81  204 1    
   163   82   83 2    
   164   82   84 am   BACKBONE|DICT|INTERRES
   165   84   85 1    
   166   84  205 1    
   167   85   86 1    
   168   85   87 1    
   169   85  206 1    
   170   86  207 1    
   171   86  208 1    
   172   86  209 1    
   173   87   88 2    
   174   87   89 am   BACKBONE|DICT|INTERRES
   175   89   90 1    
   176   89  210 1    
   177   90   91 1    
   178   90   92 1    
   179   90  211 1    
   180   91  212 1    
   181   91  213 1    
   182   91  214 1    
   183   92   93 2    
   184   92   94 am   BACKBONE|DICT|INTERRES
   185   94   95 1    
   186   94  215 1    
   187   95   96 1    
   188   95   97 1    
   189   95  216 1    
   190   96  217 1    
   191   96  218 1    
   192   96  219 1    
   193   97   98 2    
   194   97   99 am   BACKBONE|DICT|INTERRES
   195   99  100 1    
   196   99  220 1    
   197  100  101 1    
   198  100  102 1    
   199  100  221 1    
   200  101  222 1    
   201  101  223 1    
   202  101  224 1    
   203  102  103 2    
   204  102  104 am   BACKBONE|DICT|INTERRES
   205  104  105 1    
   206  104  225 1    
   207  105  106 1    
   208  105  107 1    
   209  105  226 1    
   210  106  227 1    
   211  106  228 1    
   212  106  229 1    
   213  107  108 2    
   214  107  109 am   BACKBONE|DICT|INTERRES
   215  109  110 1    
   216  109  230 1    
   217  110  111 1    
   218  110  112 1    
   219  110  231 1    
   220  111  232 1    
   221  111  233 1    
   222  111  234 1    
   223  112  113 2    
   224  112  114 am   BACKBONE|DICT|INTERRES
   225  114  115 1    
   226  114  235 1    
   227  115  116 1    
   228  115  117 1    
   229  115  236 1    
   230  116  237 1    
   231  116  238 1    
   232  116  239 1    
   233  117  118 2    
   234  117  119 am   BACKBONE|DICT|INTERRES
   235  119  120 1    
   236  119  240 1    
   237  120  121 1    
   238  120  124 1    
   239  120  241 1    
   240  121  122 am   BACKBONE|DICT|INTERRES
   241  121  123 2    
   242  122  242 1    
   243  122  243 1    
   244  124  125 1    
   245  124  244 1    
   246  124  245 1    
   247  125  126 1    
   248  126  246 1    
   249  126  247 1    
@<TRIPOS>SUBSTRUCTURE
     1 UNK         1 GROUP             0       ****    0 ROOT    
