@<TRIPOS>MOLECULE
3R540
247   249    1
SMALL
USER_CHARGES


@<TRIPOS>ATOM
      1 CA         -2.3253  -13.1808  -51.6141 C.3       0 UNK        -0.1800 
      2 C          -1.1962  -13.2182  -50.5940 C.2       0 UNK         0.5000 
      3 O          -1.3580  -12.7192  -49.4815 O.2       0 UNK        -0.5000 
      4 N          -0.0612  -13.8237  -50.9637 N.am      1 UNK        -0.5000 
      5 CA          1.1212  -14.0066  -50.1159 C.3       1 UNK         0.1400 
      6 C6          2.3251  -14.5260  -50.9406 C.3       23 UNK        -0.0398 
      7 S7          3.9588  -14.0469  -50.2821 S.3       23 UNK        -0.2404 
      8 C8          4.3257  -15.3395  -49.0382 C.3       23 UNK        -0.0205 
      9 C9          4.2965  -16.7919  -49.5200 C.ar      23 UNK        -0.0193 
     10 C10         4.4690  -17.1512  -50.8628 C.ar      23 UNK        -0.1150 
     11 C11         4.4015  -18.4912  -51.2575 C.ar      23 UNK        -0.0193 
     12 C12         4.2279  -19.4865  -50.2933 C.ar      23 UNK        -0.1150 
     13 C13         4.0756  -19.1468  -48.9478 C.ar      23 UNK        -0.0193 
     14 C14         4.1012  -17.8014  -48.5724 C.ar      23 UNK        -0.1150 
     15 C15         3.8752  -20.2252  -47.8957 C.3       23 UNK        -0.0205 
     16 S16         2.1149  -20.6230  -47.6818 S.3       23 UNK        -0.2404 
     17 C17         1.7946  -21.7535  -49.0907 C.3       23 UNK        -0.0398 
     18 CA          0.9468  -22.9934  -48.7041 C.3       11 UNK         0.1400 
     19 N           1.5173  -23.6872  -47.5467 N.am      11 UNK        -0.5000 
     20 C           1.0499  -24.7935  -46.9540 C.2       10 UNK         0.5000 
     21 O           0.0987  -25.4531  -47.3704 O.2       10 UNK        -0.5000 
     22 CA          1.7279  -25.1859  -45.6261 C.3       10 UNK         0.1400 
     23 CB          2.8742  -26.1748  -45.8823 C.3       10 UNK        -0.1800 
     24 N           2.2388  -24.0412  -44.8608 N.am      10 UNK        -0.5000 
     25 C           1.5133  -22.9916  -44.4445 C.2       9 UNK         0.5000 
     26 O           0.3020  -22.8884  -44.6593 O.2       9 UNK        -0.5000 
     27 CA          2.2730  -21.8712  -43.6993 C.3       9 UNK         0.1400 
     28 CB          3.7628  -21.7847  -44.0871 C.3       9 UNK        -0.1800 
     29 N           1.6624  -20.5678  -43.9493 N.am      9 UNK        -0.5000 
     30 C           0.6569  -20.0299  -43.2521 C.2       8 UNK         0.5000 
     31 O           0.1619  -20.5495  -42.2497 O.2       8 UNK        -0.5000 
     32 CA          0.1543  -18.6614  -43.7514 C.3       8 UNK         0.1400 
     33 CB         -1.1747  -18.2413  -43.0989 C.3       8 UNK        -0.1800 
     34 N           1.1428  -17.6085  -43.5251 N.am      8 UNK        -0.5000 
     35 C           2.2305  -17.3851  -44.2752 C.2       7 UNK         0.5000 
     36 O           2.5454  -18.0927  -45.2326 O.2       7 UNK        -0.5000 
     37 CA          3.1217  -16.1850  -43.8991 C.3       7 UNK         0.1400 
     38 CB          3.4617  -15.3280  -45.1293 C.3       7 UNK        -0.1800 
     39 N           2.4916  -15.3226  -42.8982 N.am      7 UNK        -0.5000 
     40 C           3.0166  -15.0053  -41.7071 C.2       6 UNK         0.5000 
     41 O           4.0937  -15.4414  -41.2988 O.2       6 UNK        -0.5000 
     42 CA          2.2228  -14.0273  -40.8144 C.3       6 UNK         0.1400 
     43 CB          2.8473  -12.6245  -40.8730 C.3       6 UNK        -0.1800 
     44 N           0.8045  -13.9217  -41.1607 N.am      6 UNK        -0.5000 
     45 C          -0.1042  -14.8882  -40.9784 C.2       5 UNK         0.5000 
     46 O           0.1505  -15.9759  -40.4613 O.2       5 UNK        -0.5000 
     47 CA         -1.5283  -14.6089  -41.4986 C.3       5 UNK         0.1400 
     48 CB         -2.4019  -14.0275  -40.3769 C.3       5 UNK        -0.1800 
     49 N          -1.6020  -13.7248  -42.6697 N.am      5 UNK        -0.5000 
     50 C          -0.9853  -13.9312  -43.8414 C.2       4 UNK         0.5000 
     51 O          -0.1615  -14.8257  -44.0343 O.2       4 UNK        -0.5000 
     52 CA         -1.3435  -12.9798  -44.9944 C.3       4 UNK         0.1400 
     53 CB         -0.1145  -12.1763  -45.4474 C.3       4 UNK        -0.1800 
     54 N          -1.8594  -13.7551  -46.1191 N.am      4 UNK        -0.5000 
     55 C          -3.0753  -14.3206  -46.1501 C.2       3 UNK         0.5000 
     56 O          -3.9373  -14.1200  -45.2933 O.2       3 UNK        -0.5000 
     57 CA         -3.3892  -15.2799  -47.3153 C.3       3 UNK         0.1400 
     58 CB         -4.2870  -14.6055  -48.3640 C.3       3 UNK        -0.1800 
     59 N          -2.1894  -15.7965  -47.9728 N.am      3 UNK        -0.5000 
     60 C          -1.3865  -16.7372  -47.4553 C.2       2 UNK         0.5000 
     61 O          -1.5994  -17.2909  -46.3796 O.2       2 UNK        -0.5000 
     62 CA         -0.1560  -17.1426  -48.2886 C.3       2 UNK         0.1400 
     63 CB         -0.4269  -18.4539  -49.0433 C.3       2 UNK        -0.1800 
     64 N           0.2351  -16.1189  -49.2587 N.am      2 UNK        -0.5000 
     65 C           0.8079  -14.9496  -48.9384 C.2       1 UNK         0.5000 
     66 O           1.0425  -14.5943  -47.7851 O.2       1 UNK        -0.5000 
     67 C          -0.5359  -22.6074  -48.5111 C.2       11 UNK         0.5000 
     68 O          -1.3232  -22.7410  -49.4471 O.2       11 UNK        -0.5000 
     69 N          -0.8900  -22.1565  -47.3005 N.am      12 UNK        -0.5000 
     70 CA         -2.2549  -21.8115  -46.9245 C.3       12 UNK         0.1400 
     71 CB         -2.2336  -20.7771  -45.7916 C.3       12 UNK        -0.1800 
     72 C          -3.0412  -23.0592  -46.5084 C.2       12 UNK         0.5000 
     73 O          -4.1833  -23.2207  -46.9350 O.2       12 UNK        -0.5000 
     74 N          -2.4127  -23.9226  -45.6978 N.am      13 UNK        -0.5000 
     75 CA         -3.0277  -25.1221  -45.1268 C.3       13 UNK         0.1400 
     76 CB         -2.0643  -25.7631  -44.1179 C.3       13 UNK        -0.1800 
     77 C          -3.4751  -26.1523  -46.1802 C.2       13 UNK         0.5000 
     78 O          -4.5654  -26.7099  -46.0508 O.2       13 UNK        -0.5000 
     79 N          -2.6418  -26.3764  -47.2060 N.am      14 UNK        -0.5000 
     80 CA         -2.9294  -27.3030  -48.3023 C.3       14 UNK         0.1400 
     81 CB         -1.6276  -27.6286  -49.0500 C.3       14 UNK        -0.1800 
     82 C          -3.9873  -26.7596  -49.2795 C.2       14 UNK         0.5000 
     83 O          -4.7840  -27.5377  -49.8055 O.2       14 UNK        -0.5000 
     84 N          -3.9708  -25.4405  -49.5108 N.am      15 UNK        -0.5000 
     85 CA         -4.8818  -24.7535  -50.4261 C.3       15 UNK         0.1400 
     86 CB         -4.2345  -23.4331  -50.8608 C.3       15 UNK        -0.1800 
     87 C          -6.2645  -24.4810  -49.8119 C.2       15 UNK         0.5000 
     88 O          -7.2401  -24.3686  -50.5546 O.2       15 UNK        -0.5000 
     89 N          -6.3133  -24.3205  -48.4818 N.am      16 UNK        -0.5000 
     90 CA         -7.4458  -23.9428  -47.6267 C.3       16 UNK         0.1400 
     91 CB         -8.6188  -24.9332  -47.7512 C.3       16 UNK        -0.1800 
     92 C          -7.9044  -22.4850  -47.8278 C.2       16 UNK         0.5000 
     93 O          -8.0551  -21.7546  -46.8482 O.2       16 UNK        -0.5000 
     94 N          -8.0902  -22.0780  -49.0891 N.am      17 UNK        -0.5000 
     95 CA         -8.4229  -20.7134  -49.4988 C.3       17 UNK         0.1400 
     96 CB         -9.0310  -20.7581  -50.9091 C.3       17 UNK        -0.1800 
     97 C          -7.2077  -19.7661  -49.4775 C.2       17 UNK         0.5000 
     98 O          -7.3966  -18.5505  -49.4278 O.2       17 UNK        -0.5000 
     99 N          -5.9921  -20.3330  -49.5527 N.am      18 UNK        -0.5000 
    100 CA        -4.6645  -19.6970  -49.5720 C.3       18 UNK         0.1400 
    101 CB        -4.4195  -18.8818  -48.2926 C.3       18 UNK        -0.1800 
    102 C         -4.3711  -18.8647  -50.8354 C.2       18 UNK         0.5000 
    103 O         -3.3127  -19.0313  -51.4442 O.2       18 UNK        -0.5000 
    104 N         -5.3330  -18.0344  -51.2530 N.am      19 UNK        -0.5000 
    105 CA        -5.3254  -17.2580  -52.4961 C.3       19 UNK         0.1400 
    106 CB        -6.5090  -16.2798  -52.4726 C.3       19 UNK        -0.1800 
    107 C         -5.3646  -18.1331  -53.7671 C.2       19 UNK         0.5000 
    108 O         -4.9939  -17.6603  -54.8410 O.2       19 UNK        -0.5000 
    109 N         -5.7915  -19.3959  -53.6179 N.am      20 UNK        -0.5000 
    110 CA        -5.7360  -20.4343  -54.6477 C.3       20 UNK         0.1400 
    111 CB        -6.6446  -21.5995  -54.2248 C.3       20 UNK        -0.1800 
    112 C         -4.3024  -20.9343  -54.9293 C.2       20 UNK         0.5000 
    113 O         -4.0632  -21.4851  -56.0049 O.2       20 UNK        -0.5000 
    114 N         -3.3839  -20.7329  -53.9738 N.am      21 UNK        -0.5000 
    115 CA        -1.9503  -20.9640  -54.1196 C.3       21 UNK         0.1400 
    116 CB        -1.4311  -21.7418  -52.8933 C.3       21 UNK        -0.1800 
    117 C         -1.2666  -19.6024  -54.3414 C.2       21 UNK         0.5000 
    118 O         -1.5896  -18.9203  -55.3157 O.2       21 UNK        -0.5000 
    119 N         -0.3388  -19.2252  -53.4546 N.am      22 UNK        -0.5000 
    120 CA         0.3932  -17.9509  -53.5146 C.3       22 UNK         0.1400 
    121 C         -0.4151  -16.7282  -52.9929 C.2       22 UNK         0.5000 
    122 N         -1.5461  -16.8995  -52.3176 N.am      22 UNK        -0.7600 
    123 O          0.0048  -15.5911  -53.1856 O.2       22 UNK        -0.5000 
    124 C124        1.7604  -18.0284  -52.7931 C.3       23 UNK        -0.0398 
    125 S125        2.8305  -19.3964  -53.3590 S.3       23 UNK        -0.2404 
    126 C126        4.4596  -18.8599  -52.7328 C.3       23 UNK        -0.0205 
    127 H127       -3.1693  -13.7762  -51.2663 H         1 UNK         0.0600 
    128 H128       -2.6668  -12.1556  -51.7568 H         1 UNK         0.0600 
    129 H129       -2.0088  -13.5689  -52.5828 H         1 UNK         0.0600 
    130 H130       -0.0101  -14.2557  -51.8845 H         1 UNK         0.3000 
    131 H131        1.3746  -13.0266  -49.7054 H         1 UNK         0.0600 
    132 H132        2.2849  -14.1007  -51.9447 H         1 UNK         0.0800 
    133 H133        2.2719  -15.6028  -51.0919 H         1 UNK         0.0800 
    134 H134        5.3175  -15.1414  -48.6303 H         1 UNK         0.0800 
    135 H135        3.6317  -15.2167  -48.2070 H         1 UNK         0.0800 
    136 H136        4.6228  -16.3892  -51.6128 H         1 UNK         0.1150 
    137 H137        4.1847  -20.5223  -50.5979 H         1 UNK         0.1150 
    138 H138        3.9661  -17.5437  -47.5317 H         1 UNK         0.1150 
    139 H139        4.4423  -21.1223  -48.1477 H         1 UNK         0.0800 
    140 H140        4.2681  -19.8777  -46.9389 H         1 UNK         0.0800 
    141 H141        2.7470  -22.0988  -49.4929 H         1 UNK         0.0800 
    142 H142        1.3254  -21.1894  -49.8991 H         1 UNK         0.0800 
    143 H143        0.9793  -23.6954  -49.5398 H         1 UNK         0.0600 
    144 H144        2.2888  -23.2129  -47.1019 H         1 UNK         0.3000 
    145 H145        0.9823  -25.6850  -45.0076 H         1 UNK         0.0600 
    146 H146        3.3042  -26.5323  -44.9465 H         1 UNK         0.0600 
    147 H147        2.5202  -27.0492  -46.4302 H         1 UNK         0.0600 
    148 H148        3.6741  -25.7212  -46.4690 H         1 UNK         0.0600 
    149 H149        3.2256  -24.0541  -44.6476 H         1 UNK         0.3000 
    150 H150        2.2151  -22.0975  -42.6329 H         1 UNK         0.0600 
    151 H151        4.3117  -22.6735  -43.7746 H         1 UNK         0.0600 
    152 H152        4.2433  -20.9336  -43.6037 H         1 UNK         0.0600 
    153 H153        3.8946  -21.6689  -45.1634 H         1 UNK         0.0600 
    154 H154        2.0223  -20.0372  -44.7361 H         1 UNK         0.3000 
    155 H155       -0.0161  -18.7516  -44.8254 H         1 UNK         0.0600 
    156 H156       -1.0684  -18.0889  -42.0243 H         1 UNK         0.0600 
    157 H157       -1.9424  -19.0004  -43.2524 H         1 UNK         0.0600 
    158 H158       -1.5467  -17.3148  -43.5367 H         1 UNK         0.0600 
    159 H159        0.9700  -16.9942  -42.7428 H         1 UNK         0.3000 
    160 H160        4.0517  -16.6061  -43.5127 H         1 UNK         0.0600 
    161 H161        4.0892  -14.4789  -44.8587 H         1 UNK         0.0600 
    162 H162        2.5602  -14.9406  -45.6048 H         1 UNK         0.0600 
    163 H163        4.0083  -15.9076  -45.8721 H         1 UNK         0.0600 
    164 H164        1.5817  -14.9518  -43.1602 H         1 UNK         0.3000 
    165 H165        2.2954  -14.3912  -39.7874 H         1 UNK         0.0600 
    166 H166        2.3454  -11.9394  -40.1894 H         1 UNK         0.0600 
    167 H167        3.8998  -12.6520  -40.5876 H         1 UNK         0.0600 
    168 H168        2.7906  -12.2011  -41.8767 H         1 UNK         0.0600 
    169 H169        0.5074  -13.0650  -41.6040 H         1 UNK         0.3000 
    170 H170       -1.9552  -15.5688  -41.7943 H         1 UNK         0.0600 
    171 H171       -2.3914  -14.6732  -39.4976 H         1 UNK         0.0600 
    172 H172       -2.0526  -13.0424  -40.0650 H         1 UNK         0.0600 
    173 H173       -3.4406  -13.9318  -40.6940 H         1 UNK         0.0600 
    174 H174       -2.2598  -12.9615  -42.6022 H         1 UNK         0.3000 
    175 H175       -2.1115  -12.2761  -44.6665 H         1 UNK         0.0600 
    176 H176        0.7016  -12.8277  -45.7626 H         1 UNK         0.0600 
    177 H177       -0.3585  -11.5198  -46.2829 H         1 UNK         0.0600 
    178 H178        0.2612  -11.5500  -44.6376 H         1 UNK         0.0600 
    179 H179       -1.1904  -14.0030  -46.8357 H         1 UNK         0.3000 
    180 H180       -3.9399  -16.1250  -46.8970 H         1 UNK         0.0600 
    181 H181       -3.8131  -13.7223  -48.7921 H         1 UNK         0.0600 
    182 H182       -5.2296  -14.2850  -47.9188 H         1 UNK         0.0600 
    183 H183       -4.5294  -15.2894  -49.1781 H         1 UNK         0.0600 
    184 H184       -1.9288  -15.3687  -48.8476 H         1 UNK         0.3000 
    185 H185        0.6755  -17.3061  -47.5984 H         1 UNK         0.0600 
    186 H186       -0.6935  -19.2546  -48.3526 H         1 UNK         0.0600 
    187 H187       -1.2450  -18.3499  -49.7557 H         1 UNK         0.0600 
    188 H188        0.4566  -18.7814  -49.5906 H         1 UNK         0.0600 
    189 H189        0.0333  -16.3155  -50.2275 H         1 UNK         0.3000 
    190 H190       -0.1971  -22.1350  -46.5619 H         1 UNK         0.3000 
    191 H191       -2.7586  -21.3612  -47.7801 H         1 UNK         0.0600 
    192 H192       -1.7592  -21.1664  -44.8906 H         1 UNK         0.0600 
    193 H193       -3.2446  -20.4694  -45.5227 H         1 UNK         0.0600 
    194 H194       -1.6924  -19.8835  -46.0957 H         1 UNK         0.0600 
    195 H195       -1.4726  -23.6977  -45.3907 H         1 UNK         0.3000 
    196 H196       -3.9178  -24.7991  -44.5829 H         1 UNK         0.0600 
    197 H197       -1.7230  -25.0401  -43.3765 H         1 UNK         0.0600 
    198 H198       -1.1884  -26.1808  -44.6120 H         1 UNK         0.0600 
    199 H199       -2.5521  -26.5770  -43.5802 H         1 UNK         0.0600 
    200 H200       -1.7402  -25.9054  -47.2312 H         1 UNK         0.3000 
    201 H201       -3.3146  -28.2320  -47.8766 H         1 UNK         0.0600 
    202 H202       -1.1890  -26.7375  -49.5012 H         1 UNK         0.0600 
    203 H203       -1.8052  -28.3489  -49.8496 H         1 UNK         0.0600 
    204 H204       -0.8859  -28.0628  -48.3793 H         1 UNK         0.0600 
    205 H205       -3.2832  -24.8725  -49.0365 H         1 UNK         0.3000 
    206 H206       -5.0270  -25.3709  -51.3153 H         1 UNK         0.0600 
    207 H207       -4.8656  -22.8876  -51.5625 H         1 UNK         0.0600 
    208 H208       -4.0427  -22.7851  -50.0063 H         1 UNK         0.0600 
    209 H209       -3.2821  -23.6192  -51.3531 H         1 UNK         0.0600 
    210 H210       -5.4252  -24.3268  -47.9891 H         1 UNK         0.3000 
    211 H211       -7.0690  -24.0133  -46.6049 H         1 UNK         0.0600 
    212 H212       -9.0822  -24.9023  -48.7374 H         1 UNK         0.0600 
    213 H213       -9.3963  -24.7044  -47.0215 H         1 UNK         0.0600 
    214 H214       -8.2901  -25.9560  -47.5666 H         1 UNK         0.0600 
    215 H215       -7.9577  -22.7680  -49.8241 H         1 UNK         0.3000 
    216 H216       -9.1708  -20.3101  -48.8129 H         1 UNK         0.0600 
    217 H217       -9.3014  -19.7587  -51.2532 H         1 UNK         0.0600 
    218 H218       -9.9379  -21.3628  -50.9270 H         1 UNK         0.0600 
    219 H219       -8.3343  -21.1793  -51.6345 H         1 UNK         0.0600 
    220 H220       -5.9797  -21.3411  -49.5903 H         1 UNK         0.3000 
    221 H221       -3.9443  -20.5144  -49.5780 H         1 UNK         0.0600 
    222 H222       -5.0258  -17.9763  -48.2595 H         1 UNK         0.0600 
    223 H223       -4.6433  -19.4675  -47.4012 H         1 UNK         0.0600 
    224 H224       -3.3757  -18.5824  -48.2283 H         1 UNK         0.0600 
    225 H225       -6.1721  -17.9771  -50.6796 H         1 UNK         0.3000 
    226 H226       -4.4020  -16.6777  -52.5279 H         1 UNK         0.0600 
    227 H227       -6.4456  -15.6062  -51.6177 H         1 UNK         0.0600 
    228 H228       -6.5258  -15.6624  -53.3717 H         1 UNK         0.0600 
    229 H229       -7.4629  -16.8058  -52.4154 H         1 UNK         0.0600 
    230 H230       -6.1015  -19.6824  -52.7025 H         1 UNK         0.3000 
    231 H231       -6.1262  -20.0171  -55.5785 H         1 UNK         0.0600 
    232 H232       -7.6788  -21.2725  -54.1161 H         1 UNK         0.0600 
    233 H233       -6.3287  -22.0367  -53.2775 H         1 UNK         0.0600 
    234 H234       -6.6348  -22.3943  -54.9719 H         1 UNK         0.0600 
    235 H235       -3.6514  -20.2145  -53.1463 H         1 UNK         0.3000 
    236 H236       -1.7433  -21.5670  -55.0058 H         1 UNK         0.0600 
    237 H237       -0.3503  -21.8833  -52.9348 H         1 UNK         0.0600 
    238 H238       -1.6730  -21.2436  -51.9532 H         1 UNK         0.0600 
    239 H239       -1.8701  -22.7374  -52.8648 H         1 UNK         0.0600 
    240 H240       -0.1229  -19.8341  -52.6800 H         1 UNK         0.3000 
    241 H241        0.6027  -17.7392  -54.5649 H         1 UNK         0.0600 
    242 H242       -2.0722  -16.0911  -52.0391 H         1 UNK         0.3800 
    243 H243       -1.9356  -17.8227  -52.1554 H         1 UNK         0.3800 
    244 H244        2.3089  -17.0975  -52.9460 H         1 UNK         0.0800 
    245 H245        1.6160  -18.1332  -51.7165 H         1 UNK         0.0800 
    246 H246        5.1827  -19.6632  -52.8803 H         1 UNK         0.0800 
    247 H247        4.8110  -18.0163  -53.3289 H         1 UNK         0.0800 
@<TRIPOS>BOND
     1    1    2 1    
     2    1  127 1    
     3    1  128 1    
     4    1  129 1    
     5    2    3 2    
     6    2    4 am   BACKBONE|DICT|INTERRES
     7    4    5 1    
     8    4  130 1    
     9    5    6 1    
    10    5   65 1    
    11    5  131 1    
    12    6    7 1    
    13    6  132 1    
    14    6  133 1    
    15    7    8 1    
    16    8    9 1    
    17    8  134 1    
    18    8  135 1    
    19    9   10 ar   
    20    9   14 ar   
    21   10   11 ar   
    22   10  136 1    
    23   11   12 ar   
    24   11  126 1    
    25   12   13 ar   
    26   12  137 1    
    27   13   14 ar   
    28   13   15 1    
    29   14  138 1    
    30   15   16 1    
    31   15  139 1    
    32   15  140 1    
    33   16   17 1    
    34   17   18 1    
    35   17  141 1    
    36   17  142 1    
    37   18   19 1    
    38   18   67 1    
    39   18  143 1    
    40   19   20 am   BACKBONE|DICT|INTERRES
    41   19  144 1    
    42   20   21 2    
    43   20   22 1    
    44   22   23 1    
    45   22   24 1    
    46   22  145 1    
    47   23  146 1    
    48   23  147 1    
    49   23  148 1    
    50   24   25 am   BACKBONE|DICT|INTERRES
    51   24  149 1    
    52   25   26 2    
    53   25   27 1    
    54   27   28 1    
    55   27   29 1    
    56   27  150 1    
    57   28  151 1    
    58   28  152 1    
    59   28  153 1    
    60   29   30 am   BACKBONE|DICT|INTERRES
    61   29  154 1    
    62   30   31 2    
    63   30   32 1    
    64   32   33 1    
    65   32   34 1    
    66   32  155 1    
    67   33  156 1    
    68   33  157 1    
    69   33  158 1    
    70   34   35 am   BACKBONE|DICT|INTERRES
    71   34  159 1    
    72   35   36 2    
    73   35   37 1    
    74   37   38 1    
    75   37   39 1    
    76   37  160 1    
    77   38  161 1    
    78   38  162 1    
    79   38  163 1    
    80   39   40 am   BACKBONE|DICT|INTERRES
    81   39  164 1    
    82   40   41 2    
    83   40   42 1    
    84   42   43 1    
    85   42   44 1    
    86   42  165 1    
    87   43  166 1    
    88   43  167 1    
    89   43  168 1    
    90   44   45 am   BACKBONE|DICT|INTERRES
    91   44  169 1    
    92   45   46 2    
    93   45   47 1    
    94   47   48 1    
    95   47   49 1    
    96   47  170 1    
    97   48  171 1    
    98   48  172 1    
    99   48  173 1    
   100   49   50 am   BACKBONE|DICT|INTERRES
   101   49  174 1    
   102   50   51 2    
   103   50   52 1    
   104   52   53 1    
   105   52   54 1    
   106   52  175 1    
   107   53  176 1    
   108   53  177 1    
   109   53  178 1    
   110   54   55 am   BACKBONE|DICT|INTERRES
   111   54  179 1    
   112   55   56 2    
   113   55   57 1    
   114   57   58 1    
   115   57   59 1    
   116   57  180 1    
   117   58  181 1    
   118   58  182 1    
   119   58  183 1    
   120   59   60 am   BACKBONE|DICT|INTERRES
   121   59  184 1    
   122   60   61 2    
   123   60   62 1    
   124   62   63 1    
   125   62   64 1    
   126   62  185 1    
   127   63  186 1    
   128   63  187 1    
   129   63  188 1    
   130   64   65 am   BACKBONE|DICT|INTERRES
   131   64  189 1    
   132   65   66 2    
   133   67   68 2    
   134   67   69 am   BACKBONE|DICT|INTERRES
   135   69   70 1    
   136   69  190 1    
   137   70   71 1    
   138   70   72 1    
   139   70  191 1    
   140   71  192 1    
   141   71  193 1    
   142   71  194 1    
   143   72   73 2    
   144   72   74 am   BACKBONE|DICT|INTERRES
   145   74   75 1    
   146   74  195 1    
   147   75   76 1    
   148   75   77 1    
   149   75  196 1    
   150   76  197 1    
   151   76  198 1    
   152   76  199 1    
   153   77   78 2    
   154   77   79 am   BACKBONE|DICT|INTERRES
   155   79   80 1    
   156   79  200 1    
   157   80   81 1    
   158   80   82 1    
   159   80  201 1    
   160   81  202 1    
   161   81  203 1    
   162   81  204 1    
   163   82   83 2    
   164   82   84 am   BACKBONE|DICT|INTERRES
   165   84   85 1    
   166   84  205 1    
   167   85   86 1    
   168   85   87 1    
   169   85  206 1    
   170   86  207 1    
   171   86  208 1    
   172   86  209 1    
   173   87   88 2    
   174   87   89 am   BACKBONE|DICT|INTERRES
   175   89   90 1    
   176   89  210 1    
   177   90   91 1    
   178   90   92 1    
   179   90  211 1    
   180   91  212 1    
   181   91  213 1    
   182   91  214 1    
   183   92   93 2    
   184   92   94 am   BACKBONE|DICT|INTERRES
   185   94   95 1    
   186   94  215 1    
   187   95   96 1    
   188   95   97 1    
   189   95  216 1    
   190   96  217 1    
   191   96  218 1    
   192   96  219 1    
   193   97   98 2    
   194   97   99 am   BACKBONE|DICT|INTERRES
   195   99  100 1    
   196   99  220 1    
   197  100  101 1    
   198  100  102 1    
   199  100  221 1    
   200  101  222 1    
   201  101  223 1    
   202  101  224 1    
   203  102  103 2    
   204  102  104 am   BACKBONE|DICT|INTERRES
   205  104  105 1    
   206  104  225 1    
   207  105  106 1    
   208  105  107 1    
   209  105  226 1    
   210  106  227 1    
   211  106  228 1    
   212  106  229 1    
   213  107  108 2    
   214  107  109 am   BACKBONE|DICT|INTERRES
   215  109  110 1    
   216  109  230 1    
   217  110  111 1    
   218  110  112 1    
   219  110  231 1    
   220  111  232 1    
   221  111  233 1    
   222  111  234 1    
   223  112  113 2    
   224  112  114 am   BACKBONE|DICT|INTERRES
   225  114  115 1    
   226  114  235 1    
   227  115  116 1    
   228  115  117 1    
   229  115  236 1    
   230  116  237 1    
   231  116  238 1    
   232  116  239 1    
   233  117  118 2    
   234  117  119 am   BACKBONE|DICT|INTERRES
   235  119  120 1    
   236  119  240 1    
   237  120  121 1    
   238  120  124 1    
   239  120  241 1    
   240  121  122 am   BACKBONE|DICT|INTERRES
   241  121  123 2    
   242  122  242 1    
   243  122  243 1    
   244  124  125 1    
   245  124  244 1    
   246  124  245 1    
   247  125  126 1    
   248  126  246 1    
   249  126  247 1    
@<TRIPOS>SUBSTRUCTURE
     1 UNK         1 GROUP             0       ****    0 ROOT    
