@<TRIPOS>MOLECULE
3R540
247   249    1
SMALL
USER_CHARGES


@<TRIPOS>ATOM
      1 CA          5.5474  -13.7981  -50.8081 C.3       0 UNK        -0.1800 
      2 C           5.3454  -14.3098  -49.3889 C.2       0 UNK         0.5000 
      3 O           6.2669  -14.8836  -48.8085 O.2       0 UNK        -0.5000 
      4 N           4.1436  -14.1065  -48.8336 N.am      1 UNK        -0.5000 
      5 CA          3.7679  -14.5074  -47.4725 C.3       1 UNK         0.1400 
      6 C6          2.2335  -14.4489  -47.2668 C.3       23 UNK        -0.0398 
      7 S7          1.3869  -15.9410  -47.8768 S.3       23 UNK        -0.2404 
      8 C8          0.9942  -15.4863  -49.5978 C.3       23 UNK        -0.0205 
      9 C9          0.0997  -16.5113  -50.2889 C.ar      23 UNK        -0.0193 
     10 C10        -0.9870  -16.0833  -51.0580 C.ar      23 UNK        -0.1150 
     11 C11        -1.8057  -17.0089  -51.7111 C.ar      23 UNK        -0.0193 
     12 C12        -1.5397  -18.3715  -51.5741 C.ar      23 UNK        -0.1150 
     13 C13        -0.4506  -18.8249  -50.8261 C.ar      23 UNK        -0.0193 
     14 C14         0.3723  -17.8812  -50.1968 C.ar      23 UNK        -0.1150 
     15 C15        -0.1962  -20.3333  -50.7669 C.3       23 UNK        -0.0205 
     16 S16         1.0825  -20.8942  -49.5941 S.3       23 UNK        -0.2404 
     17 C17         0.2566  -20.6064  -47.9968 C.3       23 UNK        -0.0398 
     18 CA         -0.1206  -21.9278  -47.2825 C.3       11 UNK         0.1400 
     19 N           0.0197  -21.8083  -45.8255 N.am      11 UNK        -0.5000 
     20 C          -0.0989  -22.8068  -44.9387 C.2       10 UNK         0.5000 
     21 O          -0.3751  -23.9657  -45.2486 O.2       10 UNK        -0.5000 
     22 CA          0.0679  -22.4359  -43.4555 C.3       10 UNK         0.1400 
     23 CB          1.5477  -22.2423  -43.0913 C.3       10 UNK        -0.1800 
     24 N          -0.6899  -21.2293  -43.1262 N.am      10 UNK        -0.5000 
     25 C          -2.0202  -21.2071  -42.9628 C.2       9 UNK         0.5000 
     26 O          -2.7231  -22.2178  -42.9689 O.2       9 UNK        -0.5000 
     27 CA         -2.6866  -19.8285  -42.7884 C.3       9 UNK         0.1400 
     28 CB         -2.7420  -19.4436  -41.3026 C.3       9 UNK        -0.1800 
     29 N          -2.0280  -18.7607  -43.5440 N.am      9 UNK        -0.5000 
     30 C          -1.9327  -18.7162  -44.8809 C.2       8 UNK         0.5000 
     31 O          -2.4253  -19.5589  -45.6286 O.2       8 UNK        -0.5000 
     32 CA         -1.0906  -17.5787  -45.4844 C.3       8 UNK         0.1400 
     33 CB         -1.9209  -16.2956  -45.6283 C.3       8 UNK        -0.1800 
     34 N           0.1188  -17.2987  -44.7108 N.am      8 UNK        -0.5000 
     35 C           1.1099  -18.1759  -44.5000 C.2       7 UNK         0.5000 
     36 O           1.1083  -19.3255  -44.9376 O.2       7 UNK        -0.5000 
     37 CA          2.2690  -17.7135  -43.6055 C.3       7 UNK         0.1400 
     38 CB          3.2448  -16.8202  -44.3797 C.3       7 UNK        -0.1800 
     39 N           1.7820  -17.0001  -42.4283 N.am      7 UNK        -0.5000 
     40 C           1.2184  -17.5942  -41.3688 C.2       6 UNK         0.5000 
     41 O           1.0915  -18.8134  -41.2520 O.2       6 UNK        -0.5000 
     42 CA          0.6847  -16.6607  -40.2667 C.3       6 UNK         0.1400 
     43 CB          1.8033  -16.2976  -39.2785 C.3       6 UNK        -0.1800 
     44 N           0.0887  -15.4311  -40.7964 N.am      6 UNK        -0.5000 
     45 C          -1.0318  -15.3949  -41.5304 C.2       5 UNK         0.5000 
     46 O          -1.6675  -16.3956  -41.8596 O.2       5 UNK        -0.5000 
     47 CA         -1.5022  -14.0098  -42.0080 C.3       5 UNK         0.1400 
     48 CB         -2.2649  -13.2834  -40.8899 C.3       5 UNK        -0.1800 
     49 N          -0.4296  -13.1433  -42.5070 N.am      5 UNK        -0.5000 
     50 C           0.3851  -13.4390  -43.5305 C.2       4 UNK         0.5000 
     51 O           0.4320  -14.5446  -44.0665 O.2       4 UNK        -0.5000 
     52 CA          1.3166  -12.3302  -44.0469 C.3       4 UNK         0.1400 
     53 CB          0.6950  -11.6532  -45.2773 C.3       4 UNK        -0.1800 
     54 N           1.5842  -11.3052  -43.0345 N.am      4 UNK        -0.5000 
     55 C           2.6298  -11.1900  -42.1989 C.2       3 UNK         0.5000 
     56 O           2.6157  -10.3516  -41.2991 O.2       3 UNK        -0.5000 
     57 CA          3.8982  -12.0650  -42.3561 C.3       3 UNK         0.1400 
     58 CB          3.6770  -13.4998  -41.8448 C.3       3 UNK        -0.1800 
     59 N           4.4776  -12.0968  -43.7011 N.am      3 UNK        -0.5000 
     60 C           4.8368  -11.0505  -44.4541 C.2       2 UNK         0.5000 
     61 O           4.7530   -9.8799  -44.0816 O.2       2 UNK        -0.5000 
     62 CA          5.3905  -11.3496  -45.8659 C.3       2 UNK         0.1400 
     63 CB          6.8934  -11.6814  -45.8033 C.3       2 UNK        -0.1800 
     64 N           4.6624  -12.3635  -46.6492 N.am      2 UNK        -0.5000 
     65 C           4.5061  -13.6740  -46.4020 C.2       1 UNK         0.5000 
     66 O           4.9192  -14.2334  -45.3866 O.2       1 UNK        -0.5000 
     67 C          -1.5122  -22.4405  -47.7189 C.2       11 UNK         0.5000 
     68 O          -1.6186  -23.1722  -48.7072 O.2       11 UNK        -0.5000 
     69 N          -2.5467  -22.0998  -46.9370 N.am      12 UNK        -0.5000 
     70 CA         -3.9175  -22.5954  -47.0580 C.3       12 UNK         0.1400 
     71 CB         -4.8066  -21.9087  -46.0117 C.3       12 UNK        -0.1800 
     72 C          -4.0445  -24.1274  -46.9557 C.2       12 UNK         0.5000 
     73 O          -4.9529  -24.6920  -47.5640 O.2       12 UNK        -0.5000 
     74 N          -3.1282  -24.7688  -46.2197 N.am      13 UNK        -0.5000 
     75 CA         -3.0229  -26.2204  -46.1137 C.3       13 UNK         0.1400 
     76 CB         -2.7292  -26.6024  -44.6539 C.3       13 UNK        -0.1800 
     77 C          -1.9283  -26.7572  -47.0496 C.2       13 UNK         0.5000 
     78 O          -2.1825  -27.6983  -47.8010 O.2       13 UNK        -0.5000 
     79 N          -0.7323  -26.1543  -46.9870 N.am      14 UNK        -0.5000 
     80 CA          0.4868  -26.6390  -47.6386 C.3       14 UNK         0.1400 
     81 CB          1.6929  -25.8542  -47.1002 C.3       14 UNK        -0.1800 
     82 C           0.4566  -26.5902  -49.1766 C.2       14 UNK         0.5000 
     83 O           1.0156  -27.4836  -49.8141 O.2       14 UNK        -0.5000 
     84 N          -0.1878  -25.5621  -49.7411 N.am      15 UNK        -0.5000 
     85 CA         -0.3190  -25.3516  -51.1858 C.3       15 UNK         0.1400 
     86 CB          0.4030  -24.0463  -51.5575 C.3       15 UNK        -0.1800 
     87 C          -1.7945  -25.3024  -51.6189 C.2       15 UNK         0.5000 
     88 O          -2.0808  -24.8857  -52.7434 O.2       15 UNK        -0.5000 
     89 N          -2.7124  -25.6700  -50.7109 N.am      16 UNK        -0.5000 
     90 CA         -4.1705  -25.5935  -50.8565 C.3       16 UNK         0.1400 
     91 CB         -4.6651  -26.6399  -51.8771 C.3       16 UNK        -0.1800 
     92 C          -4.6569  -24.1643  -51.1842 C.2       16 UNK         0.5000 
     93 O          -5.5570  -23.9957  -52.0066 O.2       16 UNK        -0.5000 
     94 N          -4.0057  -23.1573  -50.5796 N.am      17 UNK        -0.5000 
     95 CA         -4.2002  -21.7208  -50.8140 C.3       17 UNK         0.1400 
     96 CB         -5.6253  -21.2777  -50.4207 C.3       17 UNK        -0.1800 
     97 C          -3.8222  -21.3036  -52.2505 C.2       17 UNK         0.5000 
     98 O          -4.4818  -20.4414  -52.8330 O.2       17 UNK        -0.5000 
     99 N          -2.7652  -21.9364  -52.7848 N.am      18 UNK        -0.5000 
    100 CA        -2.2750  -21.8562  -54.1651 C.3       18 UNK         0.1400 
    101 CB        -1.7140  -20.4578  -54.4963 C.3       18 UNK        -0.1800 
    102 C         -3.3445  -22.3411  -55.1600 C.2       18 UNK         0.5000 
    103 O         -3.7165  -21.6128  -56.0804 O.2       18 UNK        -0.5000 
    104 N         -3.8460  -23.5604  -54.9127 N.am      19 UNK        -0.5000 
    105 CA        -4.9412  -24.2216  -55.6316 C.3       19 UNK         0.1400 
    106 CB        -4.5007  -24.6105  -57.0582 C.3       19 UNK        -0.1800 
    107 C         -6.2436  -23.3917  -55.5999 C.2       19 UNK         0.5000 
    108 O         -6.8406  -23.1180  -56.6426 O.2       19 UNK        -0.5000 
    109 N         -6.6363  -22.9957  -54.3822 N.am      20 UNK        -0.5000 
    110 CA        -7.8270  -22.2258  -54.0145 C.3       20 UNK         0.1400 
    111 CB        -9.1164  -22.9693  -54.4215 C.3       20 UNK        -0.1800 
    112 C         -7.8305  -20.7524  -54.4742 C.2       20 UNK         0.5000 
    113 O         -8.8598  -20.0917  -54.3248 O.2       20 UNK        -0.5000 
    114 N         -6.6990  -20.2283  -54.9693 N.am      21 UNK        -0.5000 
    115 CA        -6.5473  -18.8324  -55.3994 C.3       21 UNK         0.1400 
    116 CB        -5.1763  -18.6396  -56.0609 C.3       21 UNK        -0.1800 
    117 C         -6.7455  -17.8152  -54.2577 C.2       21 UNK         0.5000 
    118 O         -7.3596  -16.7702  -54.4769 O.2       21 UNK        -0.5000 
    119 N         -6.2636  -18.1663  -53.0606 N.am      22 UNK        -0.5000 
    120 CA        -6.5158  -17.4563  -51.7958 C.3       22 UNK         0.1400 
    121 C         -7.6218  -18.1388  -50.9337 C.2       22 UNK         0.5000 
    122 N         -8.4434  -19.0292  -51.4784 N.am      22 UNK        -0.7600 
    123 O         -7.7599  -17.8451  -49.7497 O.2       22 UNK        -0.5000 
    124 C124       -5.1937  -17.2125  -51.0145 C.3       23 UNK        -0.0398 
    125 S125       -4.2945  -15.7669  -51.6702 S.3       23 UNK        -0.2404 
    126 C126       -2.9426  -16.5386  -52.6080 C.3       23 UNK        -0.0205 
    127 H127        6.3553  -13.0667  -50.8315 H         1 UNK         0.0600 
    128 H128        4.6477  -13.3239  -51.2011 H         1 UNK         0.0600 
    129 H129        5.8131  -14.6226  -51.4698 H         1 UNK         0.0600 
    130 H130        3.4310  -13.6337  -49.3699 H         1 UNK         0.3000 
    131 H131        4.0941  -15.5402  -47.3282 H         1 UNK         0.0600 
    132 H132        1.9827  -14.3871  -46.2092 H         1 UNK         0.0800 
    133 H133        1.8027  -13.5565  -47.7228 H         1 UNK         0.0800 
    134 H134        0.5163  -14.5055  -49.6019 H         1 UNK         0.0800 
    135 H135        1.9196  -15.3918  -50.1666 H         1 UNK         0.0800 
    136 H136       -1.1930  -15.0271  -51.1618 H         1 UNK         0.1150 
    137 H137       -2.1723  -19.0825  -52.0798 H         1 UNK         0.1150 
    138 H138        1.2331  -18.1994  -49.6283 H         1 UNK         0.1150 
    139 H139       -1.1263  -20.8505  -50.5329 H         1 UNK         0.0800 
    140 H140        0.1013  -20.6678  -51.7607 H         1 UNK         0.0800 
    141 H141       -0.6027  -19.9422  -48.1092 H         1 UNK         0.0800 
    142 H142        0.9771  -20.0456  -47.4019 H         1 UNK         0.0800 
    143 H143        0.5970  -22.6943  -47.5789 H         1 UNK         0.0600 
    144 H144        0.2797  -20.8884  -45.4759 H         1 UNK         0.3000 
    145 H145       -0.3153  -23.2657  -42.8577 H         1 UNK         0.0600 
    146 H146        1.6641  -22.0091  -42.0327 H         1 UNK         0.0600 
    147 H147        2.1177  -23.1508  -43.2895 H         1 UNK         0.0600 
    148 H148        2.0096  -21.4366  -43.6614 H         1 UNK         0.0600 
    149 H149       -0.1811  -20.3557  -43.1162 H         1 UNK         0.3000 
    150 H150       -3.7109  -19.9118  -43.1576 H         1 UNK         0.0600 
    151 H151       -3.3120  -18.5263  -41.1548 H         1 UNK         0.0600 
    152 H152       -3.2246  -20.2236  -40.7124 H         1 UNK         0.0600 
    153 H153       -1.7440  -19.2878  -40.8910 H         1 UNK         0.0600 
    154 H154       -1.6443  -17.9925  -43.0010 H         1 UNK         0.3000 
    155 H155       -0.7775  -17.8920  -46.4825 H         1 UNK         0.0600 
    156 H156       -2.2420  -15.9143  -44.6588 H         1 UNK         0.0600 
    157 H157       -2.8149  -16.4738  -46.2270 H         1 UNK         0.0600 
    158 H158       -1.3483  -15.5111  -46.1238 H         1 UNK         0.0600 
    159 H159        0.2110  -16.3534  -44.3463 H         1 UNK         0.3000 
    160 H160        2.8133  -18.6025  -43.2792 H         1 UNK         0.0600 
    161 H161        2.7819  -15.8759  -44.6595 H         1 UNK         0.0600 
    162 H162        3.5845  -17.3061  -45.2952 H         1 UNK         0.0600 
    163 H163        4.1286  -16.5920  -43.7837 H         1 UNK         0.0600 
    164 H164        1.7850  -15.9925  -42.4711 H         1 UNK         0.3000 
    165 H165       -0.0904  -17.2033  -39.7210 H         1 UNK         0.0600 
    166 H166        1.4224  -15.6925  -38.4556 H         1 UNK         0.0600 
    167 H167        2.2444  -17.1952  -38.8430 H         1 UNK         0.0600 
    168 H168        2.6059  -15.7405  -39.7629 H         1 UNK         0.0600 
    169 H169        0.5485  -14.5614  -40.5721 H         1 UNK         0.3000 
    170 H170       -2.1960  -14.1732  -42.8351 H         1 UNK         0.0600 
    171 H171       -3.0800  -13.9000  -40.5081 H         1 UNK         0.0600 
    172 H172       -1.6145  -13.0411  -40.0486 H         1 UNK         0.0600 
    173 H173       -2.7057  -12.3544  -41.2521 H         1 UNK         0.0600 
    174 H174       -0.3749  -12.2224  -42.0992 H         1 UNK         0.3000 
    175 H175        2.2237  -12.8263  -44.3774 H         1 UNK         0.0600 
    176 H176       -0.2040  -11.0924  -45.0187 H         1 UNK         0.0600 
    177 H177        1.3996  -10.9620  -45.7405 H         1 UNK         0.0600 
    178 H178        0.4122  -12.3855  -46.0341 H         1 UNK         0.0600 
    179 H179        0.8404  -10.6338  -42.9161 H         1 UNK         0.3000 
    180 H180        4.6576  -11.6151  -41.7135 H         1 UNK         0.0600 
    181 H181        3.0791  -14.0969  -42.5312 H         1 UNK         0.0600 
    182 H182        3.1733  -13.4999  -40.8774 H         1 UNK         0.0600 
    183 H183        4.6287  -14.0147  -41.7121 H         1 UNK         0.0600 
    184 H184        4.6235  -13.0159  -44.1142 H         1 UNK         0.3000 
    185 H185        5.2904  -10.4231  -46.4337 H         1 UNK         0.0600 
    186 H186        7.0858  -12.5990  -45.2466 H         1 UNK         0.0600 
    187 H187        7.3116  -11.8028  -46.8026 H         1 UNK         0.0600 
    188 H188        7.4492  -10.8811  -45.3131 H         1 UNK         0.0600 
    189 H189        4.2682  -12.0156  -47.5119 H         1 UNK         0.3000 
    190 H190       -2.3853  -21.4128  -46.2059 H         1 UNK         0.3000 
    191 H191       -4.2795  -22.3032  -48.0393 H         1 UNK         0.0600 
    192 H192       -4.8045  -20.8263  -46.1402 H         1 UNK         0.0600 
    193 H193       -5.8415  -22.2420  -46.0985 H         1 UNK         0.0600 
    194 H194       -4.4753  -22.1280  -44.9969 H         1 UNK         0.0600 
    195 H195       -2.3929  -24.2305  -45.7770 H         1 UNK         0.3000 
    196 H196       -3.9664  -26.6926  -46.3956 H         1 UNK         0.0600 
    197 H197       -2.6388  -27.6838  -44.5440 H         1 UNK         0.0600 
    198 H198       -3.5333  -26.2747  -43.9947 H         1 UNK         0.0600 
    199 H199       -1.8017  -26.1564  -44.2930 H         1 UNK         0.0600 
    200 H200       -0.6115  -25.3773  -46.3402 H         1 UNK         0.3000 
    201 H201        0.6146  -27.6848  -47.3512 H         1 UNK         0.0600 
    202 H202        1.7710  -25.9443  -46.0165 H         1 UNK         0.0600 
    203 H203        1.6247  -24.7941  -47.3432 H         1 UNK         0.0600 
    204 H204        2.6248  -26.2287  -47.5255 H         1 UNK         0.0600 
    205 H205       -0.6204  -24.8581  -49.1509 H         1 UNK         0.3000 
    206 H206        0.1412  -26.1685  -51.7444 H         1 UNK         0.0600 
    207 H207        1.4417  -24.0595  -51.2270 H         1 UNK         0.0600 
    208 H208        0.4080  -23.8879  -52.6366 H         1 UNK         0.0600 
    209 H209       -0.0829  -23.1859  -51.1002 H         1 UNK         0.0600 
    210 H210       -2.3761  -26.0165  -49.8232 H         1 UNK         0.3000 
    211 H211       -4.5965  -25.8536  -49.8878 H         1 UNK         0.0600 
    212 H212       -4.3189  -26.4191  -52.8871 H         1 UNK         0.0600 
    213 H213       -5.7549  -26.6740  -51.9055 H         1 UNK         0.0600 
    214 H214       -4.3177  -27.6392  -51.6151 H         1 UNK         0.0600 
    215 H215       -3.2480  -23.3954  -49.9476 H         1 UNK         0.3000 
    216 H216       -3.5033  -21.2069  -50.1511 H         1 UNK         0.0600 
    217 H217       -5.6768  -20.1938  -50.3357 H         1 UNK         0.0600 
    218 H218       -5.9334  -21.6893  -49.4609 H         1 UNK         0.0600 
    219 H219       -6.3658  -21.5821  -51.1594 H         1 UNK         0.0600 
    220 H220       -2.3537  -22.6822  -52.2413 H         1 UNK         0.3000 
    221 H221       -1.4466  -22.5620  -54.2427 H         1 UNK         0.0600 
    222 H222       -2.4643  -19.6765  -54.3885 H         1 UNK         0.0600 
    223 H223       -0.8728  -20.2071  -53.8526 H         1 UNK         0.0600 
    224 H224       -1.3495  -20.4178  -55.5233 H         1 UNK         0.0600 
    225 H225       -3.4598  -24.0730  -54.1265 H         1 UNK         0.3000 
    226 H226       -5.1524  -25.1445  -55.0894 H         1 UNK         0.0600 
    227 H227       -3.5980  -25.2210  -57.0383 H         1 UNK         0.0600 
    228 H228       -5.2750  -25.1924  -57.5595 H         1 UNK         0.0600 
    229 H229       -4.2995  -23.7346  -57.6756 H         1 UNK         0.0600 
    230 H230       -6.0803  -23.3016  -53.5841 H         1 UNK         0.3000 
    231 H231       -7.8155  -22.1876  -52.9251 H         1 UNK         0.0600 
    232 H232       -9.2523  -22.9857  -55.5031 H         1 UNK         0.0600 
    233 H233       -9.9972  -22.4911  -53.9916 H         1 UNK         0.0600 
    234 H234       -9.1057  -24.0001  -54.0674 H         1 UNK         0.0600 
    235 H235       -5.8753  -20.8128  -55.0250 H         1 UNK         0.3000 
    236 H236       -7.3144  -18.6358  -56.1510 H         1 UNK         0.0600 
    237 H237       -5.0571  -19.2974  -56.9219 H         1 UNK         0.0600 
    238 H238       -5.0510  -17.6150  -56.4129 H         1 UNK         0.0600 
    239 H239       -4.3663  -18.8489  -55.3634 H         1 UNK         0.0600 
    240 H240       -5.7493  -19.0415  -52.9872 H         1 UNK         0.3000 
    241 H241       -6.9450  -16.4773  -52.0158 H         1 UNK         0.0600 
    242 H242       -8.4159  -19.2335  -52.4689 H         1 UNK         0.3800 
    243 H243       -9.1587  -19.4462  -50.9046 H         1 UNK         0.3800 
    244 H244       -5.3811  -16.9959  -49.9620 H         1 UNK         0.0800 
    245 H245       -4.5577  -18.0984  -51.0277 H         1 UNK         0.0800 
    246 H246       -2.5498  -15.8086  -53.3169 H         1 UNK         0.0800 
    247 H247       -3.3394  -17.3598  -53.2077 H         1 UNK         0.0800 
@<TRIPOS>BOND
     1    1    2 1    
     2    1  127 1    
     3    1  128 1    
     4    1  129 1    
     5    2    3 2    
     6    2    4 am   BACKBONE|DICT|INTERRES
     7    4    5 1    
     8    4  130 1    
     9    5    6 1    
    10    5   65 1    
    11    5  131 1    
    12    6    7 1    
    13    6  132 1    
    14    6  133 1    
    15    7    8 1    
    16    8    9 1    
    17    8  134 1    
    18    8  135 1    
    19    9   10 ar   
    20    9   14 ar   
    21   10   11 ar   
    22   10  136 1    
    23   11   12 ar   
    24   11  126 1    
    25   12   13 ar   
    26   12  137 1    
    27   13   14 ar   
    28   13   15 1    
    29   14  138 1    
    30   15   16 1    
    31   15  139 1    
    32   15  140 1    
    33   16   17 1    
    34   17   18 1    
    35   17  141 1    
    36   17  142 1    
    37   18   19 1    
    38   18   67 1    
    39   18  143 1    
    40   19   20 am   BACKBONE|DICT|INTERRES
    41   19  144 1    
    42   20   21 2    
    43   20   22 1    
    44   22   23 1    
    45   22   24 1    
    46   22  145 1    
    47   23  146 1    
    48   23  147 1    
    49   23  148 1    
    50   24   25 am   BACKBONE|DICT|INTERRES
    51   24  149 1    
    52   25   26 2    
    53   25   27 1    
    54   27   28 1    
    55   27   29 1    
    56   27  150 1    
    57   28  151 1    
    58   28  152 1    
    59   28  153 1    
    60   29   30 am   BACKBONE|DICT|INTERRES
    61   29  154 1    
    62   30   31 2    
    63   30   32 1    
    64   32   33 1    
    65   32   34 1    
    66   32  155 1    
    67   33  156 1    
    68   33  157 1    
    69   33  158 1    
    70   34   35 am   BACKBONE|DICT|INTERRES
    71   34  159 1    
    72   35   36 2    
    73   35   37 1    
    74   37   38 1    
    75   37   39 1    
    76   37  160 1    
    77   38  161 1    
    78   38  162 1    
    79   38  163 1    
    80   39   40 am   BACKBONE|DICT|INTERRES
    81   39  164 1    
    82   40   41 2    
    83   40   42 1    
    84   42   43 1    
    85   42   44 1    
    86   42  165 1    
    87   43  166 1    
    88   43  167 1    
    89   43  168 1    
    90   44   45 am   BACKBONE|DICT|INTERRES
    91   44  169 1    
    92   45   46 2    
    93   45   47 1    
    94   47   48 1    
    95   47   49 1    
    96   47  170 1    
    97   48  171 1    
    98   48  172 1    
    99   48  173 1    
   100   49   50 am   BACKBONE|DICT|INTERRES
   101   49  174 1    
   102   50   51 2    
   103   50   52 1    
   104   52   53 1    
   105   52   54 1    
   106   52  175 1    
   107   53  176 1    
   108   53  177 1    
   109   53  178 1    
   110   54   55 am   BACKBONE|DICT|INTERRES
   111   54  179 1    
   112   55   56 2    
   113   55   57 1    
   114   57   58 1    
   115   57   59 1    
   116   57  180 1    
   117   58  181 1    
   118   58  182 1    
   119   58  183 1    
   120   59   60 am   BACKBONE|DICT|INTERRES
   121   59  184 1    
   122   60   61 2    
   123   60   62 1    
   124   62   63 1    
   125   62   64 1    
   126   62  185 1    
   127   63  186 1    
   128   63  187 1    
   129   63  188 1    
   130   64   65 am   BACKBONE|DICT|INTERRES
   131   64  189 1    
   132   65   66 2    
   133   67   68 2    
   134   67   69 am   BACKBONE|DICT|INTERRES
   135   69   70 1    
   136   69  190 1    
   137   70   71 1    
   138   70   72 1    
   139   70  191 1    
   140   71  192 1    
   141   71  193 1    
   142   71  194 1    
   143   72   73 2    
   144   72   74 am   BACKBONE|DICT|INTERRES
   145   74   75 1    
   146   74  195 1    
   147   75   76 1    
   148   75   77 1    
   149   75  196 1    
   150   76  197 1    
   151   76  198 1    
   152   76  199 1    
   153   77   78 2    
   154   77   79 am   BACKBONE|DICT|INTERRES
   155   79   80 1    
   156   79  200 1    
   157   80   81 1    
   158   80   82 1    
   159   80  201 1    
   160   81  202 1    
   161   81  203 1    
   162   81  204 1    
   163   82   83 2    
   164   82   84 am   BACKBONE|DICT|INTERRES
   165   84   85 1    
   166   84  205 1    
   167   85   86 1    
   168   85   87 1    
   169   85  206 1    
   170   86  207 1    
   171   86  208 1    
   172   86  209 1    
   173   87   88 2    
   174   87   89 am   BACKBONE|DICT|INTERRES
   175   89   90 1    
   176   89  210 1    
   177   90   91 1    
   178   90   92 1    
   179   90  211 1    
   180   91  212 1    
   181   91  213 1    
   182   91  214 1    
   183   92   93 2    
   184   92   94 am   BACKBONE|DICT|INTERRES
   185   94   95 1    
   186   94  215 1    
   187   95   96 1    
   188   95   97 1    
   189   95  216 1    
   190   96  217 1    
   191   96  218 1    
   192   96  219 1    
   193   97   98 2    
   194   97   99 am   BACKBONE|DICT|INTERRES
   195   99  100 1    
   196   99  220 1    
   197  100  101 1    
   198  100  102 1    
   199  100  221 1    
   200  101  222 1    
   201  101  223 1    
   202  101  224 1    
   203  102  103 2    
   204  102  104 am   BACKBONE|DICT|INTERRES
   205  104  105 1    
   206  104  225 1    
   207  105  106 1    
   208  105  107 1    
   209  105  226 1    
   210  106  227 1    
   211  106  228 1    
   212  106  229 1    
   213  107  108 2    
   214  107  109 am   BACKBONE|DICT|INTERRES
   215  109  110 1    
   216  109  230 1    
   217  110  111 1    
   218  110  112 1    
   219  110  231 1    
   220  111  232 1    
   221  111  233 1    
   222  111  234 1    
   223  112  113 2    
   224  112  114 am   BACKBONE|DICT|INTERRES
   225  114  115 1    
   226  114  235 1    
   227  115  116 1    
   228  115  117 1    
   229  115  236 1    
   230  116  237 1    
   231  116  238 1    
   232  116  239 1    
   233  117  118 2    
   234  117  119 am   BACKBONE|DICT|INTERRES
   235  119  120 1    
   236  119  240 1    
   237  120  121 1    
   238  120  124 1    
   239  120  241 1    
   240  121  122 am   BACKBONE|DICT|INTERRES
   241  121  123 2    
   242  122  242 1    
   243  122  243 1    
   244  124  125 1    
   245  124  244 1    
   246  124  245 1    
   247  125  126 1    
   248  126  246 1    
   249  126  247 1    
@<TRIPOS>SUBSTRUCTURE
     1 UNK         1 GROUP             0       ****    0 ROOT    
