@<TRIPOS>MOLECULE
3R540
247   249    1
SMALL
USER_CHARGES


@<TRIPOS>ATOM
      1 CA         -0.4903  -10.1903  -45.4494 C.3       0 UNK        -0.1800 
      2 C          -0.8339  -11.6473  -45.7215 C.2       0 UNK         0.5000 
      3 O          -1.9213  -12.0975  -45.3602 O.2       0 UNK        -0.5000 
      4 N           0.0937  -12.3914  -46.3387 N.am      1 UNK        -0.5000 
      5 CA         -0.0068  -13.8186  -46.6621 C.3       1 UNK         0.1400 
      6 C6         -1.0991  -14.1156  -47.7297 C.3       23 UNK        -0.0398 
      7 S7         -0.6751  -15.5310  -48.7961 S.3       23 UNK        -0.2404 
      8 C8         -1.6186  -16.8901  -48.0371 C.3       23 UNK        -0.0205 
      9 C9         -1.6693  -18.0987  -48.9601 C.ar      23 UNK        -0.0193 
     10 C10        -2.8782  -18.4985  -49.5351 C.ar      23 UNK        -0.1150 
     11 C11        -2.9285  -19.6044  -50.3890 C.ar      23 UNK        -0.0193 
     12 C12        -1.7537  -20.3058  -50.6795 C.ar      23 UNK        -0.1150 
     13 C13        -0.5360  -19.9093  -50.1174 C.ar      23 UNK        -0.0193 
     14 C14        -0.5047  -18.8139  -49.2498 C.ar      23 UNK        -0.1150 
     15 C15         0.7559  -20.6266  -50.4833 C.3       23 UNK        -0.0205 
     16 S16         0.8801  -22.2987  -49.7724 S.3       23 UNK        -0.2404 
     17 C17         0.9311  -21.9589  -47.9782 C.3       23 UNK        -0.0398 
     18 CA         -0.0862  -22.8138  -47.1866 C.3       11 UNK         0.1400 
     19 N           0.1570  -22.7700  -45.7439 N.am      11 UNK        -0.5000 
     20 C          -0.3851  -23.6176  -44.8569 C.2       10 UNK         0.5000 
     21 O          -1.1137  -24.5597  -45.1661 O.2       10 UNK        -0.5000 
     22 CA         -0.1122  -23.3245  -43.3706 C.3       10 UNK         0.1400 
     23 CB          1.2646  -23.8614  -42.9524 C.3       10 UNK        -0.1800 
     24 N          -0.1926  -21.8949  -43.0674 N.am      10 UNK        -0.5000 
     25 C          -1.3165  -21.1697  -43.1557 C.2       9 UNK         0.5000 
     26 O          -2.4156  -21.6474  -43.4332 O.2       9 UNK        -0.5000 
     27 CA         -1.1843  -19.6502  -42.9527 C.3       9 UNK         0.1400 
     28 CB         -1.4043  -19.2735  -41.4808 C.3       9 UNK        -0.1800 
     29 N           0.0984  -19.1054  -43.4016 N.am      9 UNK        -0.5000 
     30 C           0.5541  -19.1170  -44.6627 C.2       8 UNK         0.5000 
     31 O          -0.0549  -19.6498  -45.5914 O.2       8 UNK        -0.5000 
     32 CA          1.9040  -18.4144  -44.9210 C.3       8 UNK         0.1400 
     33 CB          2.0139  -17.8757  -46.3569 C.3       8 UNK        -0.1800 
     34 N           2.1149  -17.3102  -43.9830 N.am      8 UNK        -0.5000 
     35 C           2.7957  -17.3850  -42.8355 C.2       7 UNK         0.5000 
     36 O           3.3866  -18.3949  -42.4483 O.2       7 UNK        -0.5000 
     37 CA          2.7364  -16.1412  -41.9322 C.3       7 UNK         0.1400 
     38 CB          1.8883  -16.4416  -40.6855 C.3       7 UNK        -0.1800 
     39 N           4.0537  -15.6655  -41.5134 N.am      7 UNK        -0.5000 
     40 C           5.0359  -15.2653  -42.3311 C.2       6 UNK         0.5000 
     41 O           4.9682  -15.2978  -43.5609 O.2       6 UNK        -0.5000 
     42 CA          6.2496  -14.6203  -41.6412 C.3       6 UNK         0.1400 
     43 CB          7.4527  -14.4454  -42.5857 C.3       6 UNK        -0.1800 
     44 N           5.8241  -13.3074  -41.1661 N.am      6 UNK        -0.5000 
     45 C           5.4711  -13.0123  -39.9091 C.2       5 UNK         0.5000 
     46 O           5.6305  -13.7710  -38.9523 O.2       5 UNK        -0.5000 
     47 CA          4.7598  -11.6592  -39.7078 C.3       5 UNK         0.1400 
     48 CB          5.7822  -10.5242  -39.5447 C.3       5 UNK        -0.1800 
     49 N           3.8444  -11.3390  -40.8104 N.am      5 UNK        -0.5000 
     50 C           2.7365  -12.0379  -41.0974 C.2       4 UNK         0.5000 
     51 O           2.3392  -12.9893  -40.4222 O.2       4 UNK        -0.5000 
     52 CA          1.9806  -11.6281  -42.3771 C.3       4 UNK         0.1400 
     53 CB          2.7301  -12.1277  -43.6228 C.3       4 UNK        -0.1800 
     54 N           0.6130  -12.1515  -42.4096 N.am      4 UNK        -0.5000 
     55 C          -0.3843  -11.7249  -41.6208 C.2       3 UNK         0.5000 
     56 O          -0.2621  -10.7902  -40.8272 O.2       3 UNK        -0.5000 
     57 CA         -1.7521  -12.4289  -41.7416 C.3       3 UNK         0.1400 
     58 CB         -2.8606  -11.4163  -42.0766 C.3       3 UNK        -0.1800 
     59 N          -1.7655  -13.4843  -42.7572 N.am      3 UNK        -0.5000 
     60 C          -1.5681  -14.7880  -42.5158 C.2       2 UNK         0.5000 
     61 O          -1.3445  -15.2487  -41.3976 O.2       2 UNK        -0.5000 
     62 CA         -1.6200  -15.7451  -43.7243 C.3       2 UNK         0.1400 
     63 CB         -2.9943  -16.4228  -43.8213 C.3       2 UNK        -0.1800 
     64 N          -1.3300  -15.0815  -44.9954 N.am      2 UNK        -0.5000 
     65 C          -0.1172  -14.6511  -45.3649 C.2       1 UNK         0.5000 
     66 O           0.8938  -14.8479  -44.6904 O.2       1 UNK        -0.5000 
     67 C          -1.5446  -22.4411  -47.5136 C.2       11 UNK         0.5000 
     68 O          -2.1600  -23.1165  -48.3362 O.2       11 UNK        -0.5000 
     69 N          -2.0858  -21.4225  -46.8304 N.am      12 UNK        -0.5000 
     70 CA         -3.4804  -20.9967  -46.9589 C.3       12 UNK         0.1400 
     71 CB         -3.7040  -19.7061  -46.1569 C.3       12 UNK        -0.1800 
     72 C          -4.4857  -22.0864  -46.5427 C.2       12 UNK         0.5000 
     73 O          -5.4990  -22.2651  -47.2189 O.2       12 UNK        -0.5000 
     74 N          -4.1758  -22.8065  -45.4562 N.am      13 UNK        -0.5000 
     75 CA         -4.9632  -23.9299  -44.9535 C.3       13 UNK         0.1400 
     76 CB         -4.5029  -24.2784  -43.5294 C.3       13 UNK        -0.1800 
     77 C          -4.8885  -25.1657  -45.8687 C.2       13 UNK         0.5000 
     78 O          -5.9238  -25.7652  -46.1620 O.2       13 UNK        -0.5000 
     79 N          -3.6712  -25.5325  -46.2926 N.am      14 UNK        -0.5000 
     80 CA         -3.4128  -26.7205  -47.1091 C.3       14 UNK         0.1400 
     81 CB         -1.9312  -27.1047  -46.9732 C.3       14 UNK        -0.1800 
     82 C          -3.7732  -26.5476  -48.5960 C.2       14 UNK         0.5000 
     83 O          -4.0365  -27.5471  -49.2653 O.2       14 UNK        -0.5000 
     84 N          -3.7286  -25.3011  -49.0906 N.am      15 UNK        -0.5000 
     85 CA         -3.7904  -24.8952  -50.5007 C.3       15 UNK         0.1400 
     86 CB         -5.1616  -25.2335  -51.1226 C.3       15 UNK        -0.1800 
     87 C          -2.5942  -25.4421  -51.3135 C.2       15 UNK         0.5000 
     88 O          -2.7373  -25.7549  -52.4964 O.2       15 UNK        -0.5000 
     89 N          -1.4349  -25.5625  -50.6478 N.am      16 UNK        -0.5000 
     90 CA         -0.2409  -26.2690  -51.1227 C.3       16 UNK         0.1400 
     91 CB          0.7762  -26.3569  -49.9742 C.3       16 UNK        -0.1800 
     92 C           0.4117  -25.6619  -52.3782 C.2       16 UNK         0.5000 
     93 O           0.9771  -26.4012  -53.1849 O.2       16 UNK        -0.5000 
     94 N           0.3081  -24.3383  -52.5256 N.am      17 UNK        -0.5000 
     95 CA          0.7867  -23.5760  -53.6760 C.3       17 UNK         0.1400 
     96 CB          2.2066  -23.0443  -53.4043 C.3       17 UNK        -0.1800 
     97 C          -0.2339  -22.4788  -54.0183 C.2       17 UNK         0.5000 
     98 O           0.1412  -21.3361  -54.2816 O.2       17 UNK        -0.5000 
     99 N          -1.5218  -22.8512  -53.9845 N.am      18 UNK        -0.5000 
    100 CA        -2.6579  -21.9720  -54.2661 C.3       18 UNK         0.1400 
    101 CB        -3.9497  -22.6891  -53.8505 C.3       18 UNK        -0.1800 
    102 C         -2.7570  -21.5276  -55.7358 C.2       18 UNK         0.5000 
    103 O         -3.3204  -20.4664  -56.0049 O.2       18 UNK        -0.5000 
    104 N         -2.2530  -22.3653  -56.6577 N.am      19 UNK        -0.5000 
    105 CA        -2.1768  -22.1554  -58.1131 C.3       19 UNK         0.1400 
    106 CB        -1.1377  -21.0592  -58.4270 C.3       19 UNK        -0.1800 
    107 C         -3.5380  -21.8778  -58.7948 C.2       19 UNK         0.5000 
    108 O         -3.5743  -21.2674  -59.8642 O.2       19 UNK        -0.5000 
    109 N         -4.6311  -22.3018  -58.1408 N.am      20 UNK        -0.5000 
    110 CA        -6.0380  -22.0149  -58.4502 C.3       20 UNK         0.1400 
    111 CB        -6.4434  -22.6324  -59.8050 C.3       20 UNK        -0.1800 
    112 C         -6.4199  -20.5180  -58.3447 C.2       20 UNK         0.5000 
    113 O         -7.4947  -20.1370  -58.8118 O.2       20 UNK        -0.5000 
    114 N         -5.5577  -19.6951  -57.7295 N.am      21 UNK        -0.5000 
    115 CA        -5.7816  -18.2658  -57.5153 C.3       21 UNK         0.1400 
    116 CB        -4.4271  -17.5403  -57.4902 C.3       21 UNK        -0.1800 
    117 C         -6.5624  -18.0013  -56.2170 C.2       21 UNK         0.5000 
    118 O         -7.3517  -17.0567  -56.1678 O.2       21 UNK        -0.5000 
    119 N         -6.3312  -18.8350  -55.1946 N.am      22 UNK        -0.5000 
    120 CA        -7.0352  -18.7979  -53.9041 C.3       22 UNK         0.1400 
    121 C         -8.5269  -19.2133  -54.0363 C.2       22 UNK         0.5000 
    122 N         -9.4289  -18.5504  -53.3255 N.am      22 UNK        -0.7600 
    123 O         -8.8671  -20.1600  -54.7428 O.2       22 UNK        -0.5000 
    124 C124       -6.3296  -19.6716  -52.8368 C.3       23 UNK        -0.0398 
    125 S125       -4.6084  -19.1513  -52.5288 S.3       23 UNK        -0.2404 
    126 C126       -4.2589  -20.0387  -50.9811 C.3       23 UNK        -0.0205 
    127 H127       -0.5098   -9.9949  -44.3773 H         1 UNK         0.0600 
    128 H128       -1.2193   -9.5376  -45.9294 H         1 UNK         0.0600 
    129 H129        0.4999   -9.9300  -45.8239 H         1 UNK         0.0600 
    130 H130        0.9716  -11.9605  -46.5929 H         1 UNK         0.3000 
    131 H131        0.9622  -14.0706  -47.0964 H         1 UNK         0.0600 
    132 H132       -1.1751  -13.2620  -48.4048 H         1 UNK         0.0800 
    133 H133       -2.1006  -14.2218  -47.3123 H         1 UNK         0.0800 
    134 H134       -2.6282  -16.5488  -47.8042 H         1 UNK         0.0800 
    135 H135       -1.1601  -17.1781  -47.0903 H         1 UNK         0.0800 
    136 H136       -3.7845  -17.9511  -49.3178 H         1 UNK         0.1150 
    137 H137       -1.7829  -21.1563  -51.3450 H         1 UNK         0.1150 
    138 H138        0.4323  -18.4950  -48.8184 H         1 UNK         0.1150 
    139 H139        1.6244  -20.0441  -50.1719 H         1 UNK         0.0800 
    140 H140        0.8169  -20.6986  -51.5695 H         1 UNK         0.0800 
    141 H141        0.7798  -20.8969  -47.7856 H         1 UNK         0.0800 
    142 H142        1.9429  -22.1825  -47.6380 H         1 UNK         0.0800 
    143 H143        0.0532  -23.8528  -47.4946 H         1 UNK         0.0600 
    144 H144        0.6831  -21.9805  -45.4001 H         1 UNK         0.3000 
    145 H145       -0.8743  -23.8411  -42.7830 H         1 UNK         0.0600 
    146 H146        1.3442  -24.9299  -43.1569 H         1 UNK         0.0600 
    147 H147        1.4334  -23.7228  -41.8844 H         1 UNK         0.0600 
    148 H148        2.0738  -23.3632  -43.4878 H         1 UNK         0.0600 
    149 H149        0.6679  -21.4257  -42.8267 H         1 UNK         0.3000 
    150 H150       -1.9674  -19.1760  -43.5453 H         1 UNK         0.0600 
    151 H151       -0.6298  -19.6926  -40.8373 H         1 UNK         0.0600 
    152 H152       -2.3658  -19.6440  -41.1227 H         1 UNK         0.0600 
    153 H153       -1.4046  -18.1918  -41.3451 H         1 UNK         0.0600 
    154 H154        0.6767  -18.6749  -42.6962 H         1 UNK         0.3000 
    155 H155        2.6846  -19.1661  -44.7895 H         1 UNK         0.0600 
    156 H156        2.9584  -17.3535  -46.5099 H         1 UNK         0.0600 
    157 H157        1.2076  -17.1814  -46.5921 H         1 UNK         0.0600 
    158 H158        1.9762  -18.6893  -47.0813 H         1 UNK         0.0600 
    159 H159        1.6718  -16.4263  -44.2287 H         1 UNK         0.3000 
    160 H160        2.2563  -15.3264  -42.4763 H         1 UNK         0.0600 
    161 H161        2.3491  -17.2062  -40.0589 H         1 UNK         0.0600 
    162 H162        0.8965  -16.7998  -40.9632 H         1 UNK         0.0600 
    163 H163        1.7463  -15.5502  -40.0753 H         1 UNK         0.0600 
    164 H164        4.1922  -15.5677  -40.5177 H         1 UNK         0.3000 
    165 H165        6.5563  -15.2613  -40.8119 H         1 UNK         0.0600 
    166 H166        8.3014  -14.0068  -42.0607 H         1 UNK         0.0600 
    167 H167        7.7779  -15.4073  -42.9838 H         1 UNK         0.0600 
    168 H168        7.2159  -13.8004  -43.4329 H         1 UNK         0.0600 
    169 H169        5.6187  -12.6279  -41.8839 H         1 UNK         0.3000 
    170 H170        4.1734  -11.7252  -38.7887 H         1 UNK         0.0600 
    171 H171        5.2883   -9.5768  -39.3280 H         1 UNK         0.0600 
    172 H172        6.3860  -10.3911  -40.4433 H         1 UNK         0.0600 
    173 H173        6.4643  -10.7300  -38.7186 H         1 UNK         0.0600 
    174 H174        4.1049  -10.5629  -41.4018 H         1 UNK         0.3000 
    175 H175        1.9318  -10.5378  -42.4126 H         1 UNK         0.0600 
    176 H176        3.7432  -11.7264  -43.6640 H         1 UNK         0.0600 
    177 H177        2.8106  -13.2150  -43.6370 H         1 UNK         0.0600 
    178 H178        2.2270  -11.8171  -44.5373 H         1 UNK         0.0600 
    179 H179        0.4505  -12.9572  -42.9954 H         1 UNK         0.3000 
    180 H180       -1.9776  -12.8570  -40.7627 H         1 UNK         0.0600 
    181 H181       -2.6693  -10.9046  -43.0201 H         1 UNK         0.0600 
    182 H182       -2.9435  -10.6531  -41.3018 H         1 UNK         0.0600 
    183 H183       -3.8318  -11.9056  -42.1518 H         1 UNK         0.0600 
    184 H184       -1.9302  -13.1765  -43.7116 H         1 UNK         0.3000 
    185 H185       -0.8686  -16.5180  -43.5593 H         1 UNK         0.0600 
    186 H186       -3.0208  -17.1438  -44.6380 H         1 UNK         0.0600 
    187 H187       -3.2310  -16.9619  -42.9031 H         1 UNK         0.0600 
    188 H188       -3.7902  -15.6963  -43.9893 H         1 UNK         0.0600 
    189 H189       -2.1282  -14.8281  -45.5590 H         1 UNK         0.3000 
    190 H190       -1.4910  -20.8811  -46.2116 H         1 UNK         0.3000 
    191 H191       -3.6582  -20.7797  -48.0117 H         1 UNK         0.0600 
    192 H192       -2.9637  -18.9486  -46.4106 H         1 UNK         0.0600 
    193 H193       -4.6880  -19.2857  -46.3670 H         1 UNK         0.0600 
    194 H194       -3.6480  -19.8827  -45.0835 H         1 UNK         0.0600 
    195 H195       -3.3579  -22.5442  -44.9145 H         1 UNK         0.3000 
    196 H196       -6.0078  -23.6157  -44.9018 H         1 UNK         0.0600 
    197 H197       -5.0784  -25.1118  -43.1245 H         1 UNK         0.0600 
    198 H198       -4.6369  -23.4322  -42.8552 H         1 UNK         0.0600 
    199 H199       -3.4498  -24.5609  -43.5030 H         1 UNK         0.0600 
    200 H200       -2.8573  -25.0144  -45.9740 H         1 UNK         0.3000 
    201 H201       -4.0115  -27.5467  -46.7197 H         1 UNK         0.0600 
    202 H202       -1.7006  -27.9984  -47.5547 H         1 UNK         0.0600 
    203 H203       -1.6728  -27.3166  -45.9355 H         1 UNK         0.0600 
    204 H204       -1.2767  -26.3058  -47.3233 H         1 UNK         0.0600 
    205 H205       -3.4426  -24.5558  -48.4620 H         1 UNK         0.3000 
    206 H206       -3.6878  -23.8093  -50.5062 H         1 UNK         0.0600 
    207 H207       -5.9756  -24.8292  -50.5210 H         1 UNK         0.0600 
    208 H208       -5.2566  -24.8094  -52.1221 H         1 UNK         0.0600 
    209 H209       -5.3137  -26.3089  -51.2146 H         1 UNK         0.0600 
    210 H210       -1.4119  -25.2292  -49.6949 H         1 UNK         0.3000 
    211 H211       -0.5470  -27.2849  -51.3808 H         1 UNK         0.0600 
    212 H212        1.0768  -25.3689  -49.6246 H         1 UNK         0.0600 
    213 H213        1.6792  -26.8811  -50.2902 H         1 UNK         0.0600 
    214 H214        0.3673  -26.9046  -49.1254 H         1 UNK         0.0600 
    215 H215       -0.1618  -23.8089  -51.8037 H         1 UNK         0.3000 
    216 H216        0.8317  -24.2238  -54.5539 H         1 UNK         0.0600 
    217 H217        2.5895  -22.4900  -54.2619 H         1 UNK         0.0600 
    218 H218        2.9010  -23.8622  -53.2123 H         1 UNK         0.0600 
    219 H219        2.2318  -22.3785  -52.5426 H         1 UNK         0.0600 
    220 H220       -1.7391  -23.8120  -53.7541 H         1 UNK         0.3000 
    221 H221       -2.5505  -21.0683  -53.6635 H         1 UNK         0.0600 
    222 H222       -4.0409  -23.6664  -54.3261 H         1 UNK         0.0600 
    223 H223       -3.9830  -22.8365  -52.7729 H         1 UNK         0.0600 
    224 H224       -4.8298  -22.1103  -54.1283 H         1 UNK         0.0600 
    225 H225       -1.8464  -23.2274  -56.3236 H         1 UNK         0.3000 
    226 H226       -1.8121  -23.0907  -58.5397 H         1 UNK         0.0600 
    227 H227       -0.9520  -20.9859  -59.4992 H         1 UNK         0.0600 
    228 H228       -1.4711  -20.0790  -58.0840 H         1 UNK         0.0600 
    229 H229       -0.1820  -21.2734  -57.9485 H         1 UNK         0.0600 
    230 H230       -4.4757  -22.7967  -57.2744 H         1 UNK         0.3000 
    231 H231       -6.6189  -22.5195  -57.6770 H         1 UNK         0.0600 
    232 H232       -5.9707  -22.1202  -60.6433 H         1 UNK         0.0600 
    233 H233       -7.5219  -22.5727  -59.9553 H         1 UNK         0.0600 
    234 H234       -6.1691  -23.6860  -59.8566 H         1 UNK         0.0600 
    235 H235       -4.7031  -20.0777  -57.3362 H         1 UNK         0.3000 
    236 H236       -6.3625  -17.8613  -58.3469 H         1 UNK         0.0600 
    237 H237       -3.8039  -17.8743  -56.6599 H         1 UNK         0.0600 
    238 H238       -3.8727  -17.7089  -58.4136 H         1 UNK         0.0600 
    239 H239       -4.5645  -16.4636  -57.3838 H         1 UNK         0.0600 
    240 H240       -5.6508  -19.5705  -55.3158 H         1 UNK         0.3000 
    241 H241       -7.0072  -17.7634  -53.5551 H         1 UNK         0.0600 
    242 H242       -9.1729  -17.7739  -52.7349 H         1 UNK         0.3800 
    243 H243      -10.3983  -18.8207  -53.3910 H         1 UNK         0.3800 
    244 H244       -6.3402  -20.7221  -53.1277 H         1 UNK         0.0800 
    245 H245       -6.8736  -19.6127  -51.8923 H         1 UNK         0.0800 
    246 H246       -4.2589  -21.1135  -51.1632 H         1 UNK         0.0800 
    247 H247       -5.0571  -19.8500  -50.2614 H         1 UNK         0.0800 
@<TRIPOS>BOND
     1    1    2 1    
     2    1  127 1    
     3    1  128 1    
     4    1  129 1    
     5    2    3 2    
     6    2    4 am   BACKBONE|DICT|INTERRES
     7    4    5 1    
     8    4  130 1    
     9    5    6 1    
    10    5   65 1    
    11    5  131 1    
    12    6    7 1    
    13    6  132 1    
    14    6  133 1    
    15    7    8 1    
    16    8    9 1    
    17    8  134 1    
    18    8  135 1    
    19    9   10 ar   
    20    9   14 ar   
    21   10   11 ar   
    22   10  136 1    
    23   11   12 ar   
    24   11  126 1    
    25   12   13 ar   
    26   12  137 1    
    27   13   14 ar   
    28   13   15 1    
    29   14  138 1    
    30   15   16 1    
    31   15  139 1    
    32   15  140 1    
    33   16   17 1    
    34   17   18 1    
    35   17  141 1    
    36   17  142 1    
    37   18   19 1    
    38   18   67 1    
    39   18  143 1    
    40   19   20 am   BACKBONE|DICT|INTERRES
    41   19  144 1    
    42   20   21 2    
    43   20   22 1    
    44   22   23 1    
    45   22   24 1    
    46   22  145 1    
    47   23  146 1    
    48   23  147 1    
    49   23  148 1    
    50   24   25 am   BACKBONE|DICT|INTERRES
    51   24  149 1    
    52   25   26 2    
    53   25   27 1    
    54   27   28 1    
    55   27   29 1    
    56   27  150 1    
    57   28  151 1    
    58   28  152 1    
    59   28  153 1    
    60   29   30 am   BACKBONE|DICT|INTERRES
    61   29  154 1    
    62   30   31 2    
    63   30   32 1    
    64   32   33 1    
    65   32   34 1    
    66   32  155 1    
    67   33  156 1    
    68   33  157 1    
    69   33  158 1    
    70   34   35 am   BACKBONE|DICT|INTERRES
    71   34  159 1    
    72   35   36 2    
    73   35   37 1    
    74   37   38 1    
    75   37   39 1    
    76   37  160 1    
    77   38  161 1    
    78   38  162 1    
    79   38  163 1    
    80   39   40 am   BACKBONE|DICT|INTERRES
    81   39  164 1    
    82   40   41 2    
    83   40   42 1    
    84   42   43 1    
    85   42   44 1    
    86   42  165 1    
    87   43  166 1    
    88   43  167 1    
    89   43  168 1    
    90   44   45 am   BACKBONE|DICT|INTERRES
    91   44  169 1    
    92   45   46 2    
    93   45   47 1    
    94   47   48 1    
    95   47   49 1    
    96   47  170 1    
    97   48  171 1    
    98   48  172 1    
    99   48  173 1    
   100   49   50 am   BACKBONE|DICT|INTERRES
   101   49  174 1    
   102   50   51 2    
   103   50   52 1    
   104   52   53 1    
   105   52   54 1    
   106   52  175 1    
   107   53  176 1    
   108   53  177 1    
   109   53  178 1    
   110   54   55 am   BACKBONE|DICT|INTERRES
   111   54  179 1    
   112   55   56 2    
   113   55   57 1    
   114   57   58 1    
   115   57   59 1    
   116   57  180 1    
   117   58  181 1    
   118   58  182 1    
   119   58  183 1    
   120   59   60 am   BACKBONE|DICT|INTERRES
   121   59  184 1    
   122   60   61 2    
   123   60   62 1    
   124   62   63 1    
   125   62   64 1    
   126   62  185 1    
   127   63  186 1    
   128   63  187 1    
   129   63  188 1    
   130   64   65 am   BACKBONE|DICT|INTERRES
   131   64  189 1    
   132   65   66 2    
   133   67   68 2    
   134   67   69 am   BACKBONE|DICT|INTERRES
   135   69   70 1    
   136   69  190 1    
   137   70   71 1    
   138   70   72 1    
   139   70  191 1    
   140   71  192 1    
   141   71  193 1    
   142   71  194 1    
   143   72   73 2    
   144   72   74 am   BACKBONE|DICT|INTERRES
   145   74   75 1    
   146   74  195 1    
   147   75   76 1    
   148   75   77 1    
   149   75  196 1    
   150   76  197 1    
   151   76  198 1    
   152   76  199 1    
   153   77   78 2    
   154   77   79 am   BACKBONE|DICT|INTERRES
   155   79   80 1    
   156   79  200 1    
   157   80   81 1    
   158   80   82 1    
   159   80  201 1    
   160   81  202 1    
   161   81  203 1    
   162   81  204 1    
   163   82   83 2    
   164   82   84 am   BACKBONE|DICT|INTERRES
   165   84   85 1    
   166   84  205 1    
   167   85   86 1    
   168   85   87 1    
   169   85  206 1    
   170   86  207 1    
   171   86  208 1    
   172   86  209 1    
   173   87   88 2    
   174   87   89 am   BACKBONE|DICT|INTERRES
   175   89   90 1    
   176   89  210 1    
   177   90   91 1    
   178   90   92 1    
   179   90  211 1    
   180   91  212 1    
   181   91  213 1    
   182   91  214 1    
   183   92   93 2    
   184   92   94 am   BACKBONE|DICT|INTERRES
   185   94   95 1    
   186   94  215 1    
   187   95   96 1    
   188   95   97 1    
   189   95  216 1    
   190   96  217 1    
   191   96  218 1    
   192   96  219 1    
   193   97   98 2    
   194   97   99 am   BACKBONE|DICT|INTERRES
   195   99  100 1    
   196   99  220 1    
   197  100  101 1    
   198  100  102 1    
   199  100  221 1    
   200  101  222 1    
   201  101  223 1    
   202  101  224 1    
   203  102  103 2    
   204  102  104 am   BACKBONE|DICT|INTERRES
   205  104  105 1    
   206  104  225 1    
   207  105  106 1    
   208  105  107 1    
   209  105  226 1    
   210  106  227 1    
   211  106  228 1    
   212  106  229 1    
   213  107  108 2    
   214  107  109 am   BACKBONE|DICT|INTERRES
   215  109  110 1    
   216  109  230 1    
   217  110  111 1    
   218  110  112 1    
   219  110  231 1    
   220  111  232 1    
   221  111  233 1    
   222  111  234 1    
   223  112  113 2    
   224  112  114 am   BACKBONE|DICT|INTERRES
   225  114  115 1    
   226  114  235 1    
   227  115  116 1    
   228  115  117 1    
   229  115  236 1    
   230  116  237 1    
   231  116  238 1    
   232  116  239 1    
   233  117  118 2    
   234  117  119 am   BACKBONE|DICT|INTERRES
   235  119  120 1    
   236  119  240 1    
   237  120  121 1    
   238  120  124 1    
   239  120  241 1    
   240  121  122 am   BACKBONE|DICT|INTERRES
   241  121  123 2    
   242  122  242 1    
   243  122  243 1    
   244  124  125 1    
   245  124  244 1    
   246  124  245 1    
   247  125  126 1    
   248  126  246 1    
   249  126  247 1    
@<TRIPOS>SUBSTRUCTURE
     1 UNK         1 GROUP             0       ****    0 ROOT    
