@<TRIPOS>MOLECULE
3R540
247   249    1
SMALL
USER_CHARGES


@<TRIPOS>ATOM
      1 CA          1.8099  -11.1293  -50.3820 C.3       0 UNK        -0.1800 
      2 C           1.5090  -11.6803  -48.9955 C.2       0 UNK         0.5000 
      3 O           0.4534  -11.3817  -48.4374 O.2       0 UNK        -0.5000 
      4 N           2.4340  -12.4796  -48.4453 N.am      1 UNK        -0.5000 
      5 CA          2.3486  -13.1424  -47.1342 C.3       1 UNK         0.1400 
      6 C6          1.2153  -14.1981  -47.0422 C.3       23 UNK        -0.0398 
      7 S7          1.4283  -15.5310  -48.2695 S.3       23 UNK        -0.2404 
      8 C8         -0.2056  -15.5517  -49.0802 C.3       23 UNK        -0.0205 
      9 C9         -0.3366  -16.6209  -50.1626 C.ar      23 UNK        -0.0193 
     10 C10        -1.0666  -16.3416  -51.3237 C.ar      23 UNK        -0.1150 
     11 C11        -1.2197  -17.3108  -52.3204 C.ar      23 UNK        -0.0193 
     12 C12        -0.6310  -18.5657  -52.1560 C.ar      23 UNK        -0.1150 
     13 C13         0.1052  -18.8573  -51.0069 C.ar      23 UNK        -0.0193 
     14 C14         0.2354  -17.8903  -50.0072 C.ar      23 UNK        -0.1150 
     15 C15         0.7635  -20.2170  -50.8582 C.3       23 UNK        -0.0205 
     16 S16        -0.3956  -21.4283  -50.1659 S.3       23 UNK        -0.2404 
     17 C17        -0.4027  -20.9696  -48.4038 C.3       23 UNK        -0.0398 
     18 CA         -0.5925  -22.1957  -47.4831 C.3       11 UNK         0.1400 
     19 N          -0.0399  -21.9495  -46.1492 N.am      11 UNK        -0.5000 
     20 C           0.1779  -22.8982  -45.2295 C.2       10 UNK         0.5000 
     21 O          -0.0532  -24.0922  -45.4164 O.2       10 UNK        -0.5000 
     22 CA          0.6968  -22.4286  -43.8578 C.3       10 UNK         0.1400 
     23 CB          2.2076  -22.1582  -43.9077 C.3       10 UNK        -0.1800 
     24 N          -0.0011  -21.2372  -43.3718 N.am      10 UNK        -0.5000 
     25 C          -1.3095  -21.1942  -43.0821 C.2       9 UNK         0.5000 
     26 O          -2.0536  -22.1725  -43.1425 O.2       9 UNK        -0.5000 
     27 CA         -1.8997  -19.8190  -42.7222 C.3       9 UNK         0.1400 
     28 CB         -1.6128  -19.4632  -41.2560 C.3       9 UNK        -0.1800 
     29 N          -1.4097  -18.7502  -43.5924 N.am      9 UNK        -0.5000 
     30 C          -1.5978  -18.6952  -44.9190 C.2       8 UNK         0.5000 
     31 O          -2.2394  -19.5272  -45.5575 O.2       8 UNK        -0.5000 
     32 CA         -0.9028  -17.5464  -45.6654 C.3       8 UNK         0.1400 
     33 CB         -1.6862  -16.2348  -45.4963 C.3       8 UNK        -0.1800 
     34 N           0.4789  -17.3760  -45.2150 N.am      8 UNK        -0.5000 
     35 C           1.4594  -18.2620  -45.4476 C.2       7 UNK         0.5000 
     36 O           1.3038  -19.2975  -46.0929 O.2       7 UNK        -0.5000 
     37 CA          2.8298  -17.9704  -44.8084 C.3       7 UNK         0.1400 
     38 CB          3.6826  -17.0712  -45.7150 C.3       7 UNK        -0.1800 
     39 N           2.7105  -17.3517  -43.4892 N.am      7 UNK        -0.5000 
     40 C           2.2084  -17.9635  -42.4078 C.2       6 UNK         0.5000 
     41 O           1.8400  -19.1381  -42.3926 O.2       6 UNK        -0.5000 
     42 CA          2.0311  -17.0872  -41.1565 C.3       6 UNK         0.1400 
     43 CB          3.3422  -16.9965  -40.3623 C.3       6 UNK        -0.1800 
     44 N           1.5610  -15.7394  -41.4894 N.am      6 UNK        -0.5000 
     45 C           0.3453  -15.4707  -41.9924 C.2       5 UNK         0.5000 
     46 O          -0.4762  -16.3518  -42.2474 O.2       5 UNK        -0.5000 
     47 CA         -0.0053  -13.9990  -42.3103 C.3       5 UNK         0.1400 
     48 CB         -1.4857  -13.6712  -42.0266 C.3       5 UNK        -0.1800 
     49 N           0.8853  -13.0210  -41.6761 N.am      5 UNK        -0.5000 
     50 C           1.0610  -12.8069  -40.3624 C.2       4 UNK         0.5000 
     51 O           0.3929  -13.3573  -39.4858 O.2       4 UNK        -0.5000 
     52 CA          2.1952  -11.8357  -39.9617 C.3       4 UNK         0.1400 
     53 CB          2.8258  -12.2078  -38.6037 C.3       4 UNK        -0.1800 
     54 N           3.2492  -11.6772  -40.9743 N.am      4 UNK        -0.5000 
     55 C           4.0262  -12.6264  -41.5151 C.2       3 UNK         0.5000 
     56 O           3.8887  -13.8300  -41.2879 O.2       3 UNK        -0.5000 
     57 CA          5.0994  -12.1383  -42.5131 C.3       3 UNK         0.1400 
     58 CB          6.0477  -13.2686  -42.9529 C.3       3 UNK        -0.1800 
     59 N           4.5073  -11.5381  -43.7101 N.am      3 UNK        -0.5000 
     60 C           3.8896  -10.3509  -43.7865 C.2       2 UNK         0.5000 
     61 O           3.7954   -9.5752  -42.8336 O.2       2 UNK        -0.5000 
     62 CA          3.2598   -9.9610  -45.1408 C.3       2 UNK         0.1400 
     63 CB          4.0623   -8.8291  -45.8012 C.3       2 UNK        -0.1800 
     64 N           3.1330  -11.0651  -46.0979 N.am      2 UNK        -0.5000 
     65 C           2.3280  -12.1297  -45.9653 C.2       1 UNK         0.5000 
     66 O           1.6226  -12.3276  -44.9742 O.2       1 UNK        -0.5000 
     67 C          -2.0641  -22.6686  -47.4359 C.2       11 UNK         0.5000 
     68 O          -2.4614  -23.5069  -48.2475 O.2       11 UNK        -0.5000 
     69 N          -2.8426  -22.1523  -46.4751 N.am      12 UNK        -0.5000 
     70 CA         -4.2094  -22.5850  -46.1871 C.3       12 UNK         0.1400 
     71 CB         -4.9024  -21.5579  -45.2808 C.3       12 UNK        -0.1800 
     72 C          -4.2579  -23.9931  -45.5722 C.2       12 UNK         0.5000 
     73 O          -5.0990  -24.7934  -45.9790 O.2       12 UNK        -0.5000 
     74 N          -3.3323  -24.2953  -44.6501 N.am      13 UNK        -0.5000 
     75 CA         -3.1603  -25.6217  -44.0483 C.3       13 UNK         0.1400 
     76 CB         -2.1571  -25.5375  -42.8882 C.3       13 UNK        -0.1800 
     77 C          -2.7290  -26.6899  -45.0726 C.2       13 UNK         0.5000 
     78 O          -3.1937  -27.8278  -44.9997 O.2       13 UNK        -0.5000 
     79 N          -1.8889  -26.2894  -46.0368 N.am      14 UNK        -0.5000 
     80 CA         -1.4872  -27.0909  -47.1956 C.3       14 UNK         0.1400 
     81 CB         -0.2262  -26.4632  -47.8113 C.3       14 UNK        -0.1800 
     82 C          -2.5920  -27.2266  -48.2666 C.2       14 UNK         0.5000 
     83 O          -2.4398  -28.0340  -49.1832 O.2       14 UNK        -0.5000 
     84 N          -3.6592  -26.4216  -48.1493 N.am      15 UNK        -0.5000 
     85 CA         -4.8180  -26.2925  -49.0407 C.3       15 UNK         0.1400 
     86 CB         -5.5822  -27.6251  -49.1704 C.3       15 UNK        -0.1800 
     87 C          -4.5017  -25.6646  -50.4136 C.2       15 UNK         0.5000 
     88 O          -5.3862  -25.6043  -51.2668 O.2       15 UNK        -0.5000 
     89 N          -3.2787  -25.1564  -50.6031 N.am      16 UNK        -0.5000 
     90 CA         -2.8399  -24.4870  -51.8260 C.3       16 UNK         0.1400 
     91 CB         -1.3063  -24.4533  -51.8642 C.3       16 UNK        -0.1800 
     92 C          -3.4577  -23.0852  -51.9800 C.2       16 UNK         0.5000 
     93 O          -3.7725  -22.6817  -53.1005 O.2       16 UNK        -0.5000 
     94 N          -3.6855  -22.3877  -50.8572 N.am      17 UNK        -0.5000 
     95 CA         -4.4134  -21.1157  -50.8408 C.3       17 UNK         0.1400 
     96 CB         -4.1591  -20.3687  -49.5251 C.3       17 UNK        -0.1800 
     97 C          -5.9223  -21.3134  -51.0754 C.2       17 UNK         0.5000 
     98 O          -6.5482  -20.4710  -51.7173 O.2       17 UNK        -0.5000 
     99 N          -6.4690  -22.4406  -50.5943 N.am      18 UNK        -0.5000 
    100 CA        -7.8592  -22.8506  -50.8128 C.3       18 UNK         0.1400 
    101 CB        -8.2224  -23.9840  -49.8407 C.3       18 UNK        -0.1800 
    102 C         -8.1175  -23.2661  -52.2739 C.2       18 UNK         0.5000 
    103 O         -9.1656  -22.9329  -52.8270 O.2       18 UNK        -0.5000 
    104 N         -7.1330  -23.9398  -52.8857 N.am      19 UNK        -0.5000 
    105 CA        -7.0951  -24.2810  -54.3103 C.3       19 UNK         0.1400 
    106 CB        -6.0281  -25.3651  -54.5293 C.3       19 UNK        -0.1800 
    107 C         -6.8232  -23.0696  -55.2285 C.2       19 UNK         0.5000 
    108 O         -6.9928  -23.1913  -56.4422 O.2       19 UNK        -0.5000 
    109 N         -6.4108  -21.9383  -54.6370 N.am      20 UNK        -0.5000 
    110 CA        -6.0714  -20.6612  -55.2647 C.3       20 UNK         0.1400 
    111 CB        -7.3086  -20.0250  -55.9319 C.3       20 UNK        -0.1800 
    112 C         -4.8608  -20.7825  -56.2089 C.2       20 UNK         0.5000 
    113 O         -4.9490  -20.4257  -57.3856 O.2       20 UNK        -0.5000 
    114 N         -3.7382  -21.2732  -55.6620 N.am      21 UNK        -0.5000 
    115 CA        -2.4605  -21.4923  -56.3537 C.3       21 UNK         0.1400 
    116 CB        -1.4444  -22.0620  -55.3508 C.3       21 UNK        -0.1800 
    117 C         -1.8695  -20.2592  -57.0740 C.2       21 UNK         0.5000 
    118 O         -1.0997  -20.4305  -58.0205 O.2       21 UNK        -0.5000 
    119 N         -2.2497  -19.0506  -56.6389 N.am      22 UNK        -0.5000 
    120 CA        -1.9377  -17.7793  -57.3156 C.3       22 UNK         0.1400 
    121 C         -2.7427  -17.5325  -58.6281 C.2       22 UNK         0.5000 
    122 N         -3.7782  -18.3015  -58.9444 N.am      22 UNK        -0.7600 
    123 O         -2.4130  -16.6226  -59.3841 O.2       22 UNK        -0.5000 
    124 C124       -2.0721  -16.5647  -56.3606 C.3       23 UNK        -0.0398 
    125 S125       -0.8978  -16.6362  -54.9674 S.3       23 UNK        -0.2404 
    126 C126       -2.0121  -17.0135  -53.5817 C.3       23 UNK        -0.0205 
    127 H127        2.7757  -11.4717  -50.7545 H         1 UNK         0.0600 
    128 H128        1.8212  -10.0396  -50.3585 H         1 UNK         0.0600 
    129 H129        1.0418  -11.4487  -51.0865 H         1 UNK         0.0600 
    130 H130        3.2699  -12.6868  -48.9740 H         1 UNK         0.3000 
    131 H131        3.2912  -13.6795  -47.0172 H         1 UNK         0.0600 
    132 H132        1.2077  -14.6666  -46.0577 H         1 UNK         0.0800 
    133 H133        0.2387  -13.7271  -47.1609 H         1 UNK         0.0800 
    134 H134       -0.3895  -14.5626  -49.5032 H         1 UNK         0.0800 
    135 H135       -0.9806  -15.7235  -48.3343 H         1 UNK         0.0800 
    136 H136       -1.5194  -15.3684  -51.4527 H         1 UNK         0.1150 
    137 H137       -0.7396  -19.3144  -52.9284 H         1 UNK         0.1150 
    138 H138        0.7912  -18.1274  -49.1110 H         1 UNK         0.1150 
    139 H139        1.6602  -20.1508  -50.2402 H         1 UNK         0.0800 
    140 H140        1.0960  -20.5711  -51.8352 H         1 UNK         0.0800 
    141 H141       -1.1456  -20.1946  -48.2111 H         1 UNK         0.0800 
    142 H142        0.5633  -20.5120  -48.1947 H         1 UNK         0.0800 
    143 H143       -0.0109  -23.0197  -47.9021 H         1 UNK         0.0600 
    144 H144        0.2135  -20.9903  -45.9345 H         1 UNK         0.3000 
    145 H145        0.5198  -23.2341  -43.1422 H         1 UNK         0.0600 
    146 H146        2.7514  -23.0415  -44.2450 H         1 UNK         0.0600 
    147 H147        2.5930  -21.8948  -42.9226 H         1 UNK         0.0600 
    148 H148        2.4497  -21.3427  -44.5895 H         1 UNK         0.0600 
    149 H149        0.5577  -20.3991  -43.2425 H         1 UNK         0.3000 
    150 H150       -2.9822  -19.8788  -42.8511 H         1 UNK         0.0600 
    151 H151       -0.5439  -19.3687  -41.0647 H         1 UNK         0.0600 
    152 H152       -2.0006  -20.2307  -40.5851 H         1 UNK         0.0600 
    153 H153       -2.0850  -18.5200  -40.9804 H         1 UNK         0.0600 
    154 H154       -0.9078  -17.9913  -43.1394 H         1 UNK         0.3000 
    155 H155       -0.8824  -17.7957  -46.7288 H         1 UNK         0.0600 
    156 H156       -1.1874  -15.4007  -45.9856 H         1 UNK         0.0600 
    157 H157       -1.8220  -15.9705  -44.4486 H         1 UNK         0.0600 
    158 H158       -2.6796  -16.3220  -45.9378 H         1 UNK         0.0600 
    159 H159        0.6719  -16.5871  -44.6193 H         1 UNK         0.3000 
    160 H160        3.3480  -18.9246  -44.6919 H         1 UNK         0.0600 
    161 H161        3.2632  -16.0692  -45.8006 H         1 UNK         0.0600 
    162 H162        3.7544  -17.4850  -46.7219 H         1 UNK         0.0600 
    163 H163        4.6979  -16.9756  -45.3301 H         1 UNK         0.0600 
    164 H164        2.9956  -16.3873  -43.4042 H         1 UNK         0.3000 
    165 H165        1.2799  -17.5600  -40.5203 H         1 UNK         0.0600 
    166 H166        3.6801  -17.9867  -40.0541 H         1 UNK         0.0600 
    167 H167        4.1415  -16.5454  -40.9515 H         1 UNK         0.0600 
    168 H168        3.2153  -16.3990  -39.4593 H         1 UNK         0.0600 
    169 H169        2.2131  -14.9780  -41.3281 H         1 UNK         0.3000 
    170 H170        0.1473  -13.8896  -43.3842 H         1 UNK         0.0600 
    171 H171       -1.7120  -12.6323  -42.2660 H         1 UNK         0.0600 
    172 H172       -1.7475  -13.8409  -40.9820 H         1 UNK         0.0600 
    173 H173       -2.1483  -14.2920  -42.6303 H         1 UNK         0.0600 
    174 H174        1.4883  -12.5188  -42.3137 H         1 UNK         0.3000 
    175 H175        1.7274  -10.8563  -39.8535 H         1 UNK         0.0600 
    176 H176        3.2615  -13.2075  -38.6226 H         1 UNK         0.0600 
    177 H177        2.0835  -12.1889  -37.8049 H         1 UNK         0.0600 
    178 H178        3.6118  -11.5048  -38.3278 H         1 UNK         0.0600 
    179 H179        3.3974  -10.7288  -41.3090 H         1 UNK         0.3000 
    180 H180        5.6972  -11.3803  -42.0027 H         1 UNK         0.0600 
    181 H181        5.5178  -14.0535  -43.4942 H         1 UNK         0.0600 
    182 H182        6.5299  -13.7318  -42.0911 H         1 UNK         0.0600 
    183 H183        6.8388  -12.8900  -43.6004 H         1 UNK         0.0600 
    184 H184        4.5238  -12.1051  -44.5439 H         1 UNK         0.3000 
    185 H185        2.2557   -9.5880  -44.9290 H         1 UNK         0.0600 
    186 H186        4.1470   -7.9681  -45.1368 H         1 UNK         0.0600 
    187 H187        5.0739   -9.1487  -46.0547 H         1 UNK         0.0600 
    188 H188        3.5791   -8.4839  -46.7155 H         1 UNK         0.0600 
    189 H189        3.6735  -10.9830  -46.9471 H         1 UNK         0.3000 
    190 H190       -2.4768  -21.3944  -45.9052 H         1 UNK         0.3000 
    191 H191       -4.7605  -22.6272  -47.1280 H         1 UNK         0.0600 
    192 H192       -4.9284  -20.5745  -45.7507 H         1 UNK         0.0600 
    193 H193       -5.9335  -21.8494  -45.0773 H         1 UNK         0.0600 
    194 H194       -4.3942  -21.4561  -44.3222 H         1 UNK         0.0600 
    195 H195       -2.7118  -23.5615  -44.3192 H         1 UNK         0.3000 
    196 H196       -4.1251  -25.9281  -43.6388 H         1 UNK         0.0600 
    197 H197       -2.0384  -26.5073  -42.4036 H         1 UNK         0.0600 
    198 H198       -2.4930  -24.8325  -42.1275 H         1 UNK         0.0600 
    199 H199       -1.1721  -25.2177  -43.2279 H         1 UNK         0.0600 
    200 H200       -1.4824  -25.3614  -45.9655 H         1 UNK         0.3000 
    201 H201       -1.2375  -28.0966  -46.8515 H         1 UNK         0.0600 
    202 H202        0.1420  -27.0593  -48.6472 H         1 UNK         0.0600 
    203 H203        0.5797  -26.3977  -47.0800 H         1 UNK         0.0600 
    204 H204       -0.4203  -25.4580  -48.1861 H         1 UNK         0.0600 
    205 H205       -3.6752  -25.7952  -47.3546 H         1 UNK         0.3000 
    206 H206       -5.4869  -25.5862  -48.5481 H         1 UNK         0.0600 
    207 H207       -5.8121  -28.0442  -48.1908 H         1 UNK         0.0600 
    208 H208       -6.5298  -27.4825  -49.6913 H         1 UNK         0.0600 
    209 H209       -5.0141  -28.3680  -49.7305 H         1 UNK         0.0600 
    210 H210       -2.6391  -25.1502  -49.8199 H         1 UNK         0.3000 
    211 H211       -3.1756  -25.0765  -52.6814 H         1 UNK         0.0600 
    212 H212       -0.9025  -25.4478  -52.0539 H         1 UNK         0.0600 
    213 H213       -0.9391  -23.7962  -52.6537 H         1 UNK         0.0600 
    214 H214       -0.8881  -24.1085  -50.9197 H         1 UNK         0.0600 
    215 H215       -3.3649  -22.7653  -49.9723 H         1 UNK         0.3000 
    216 H216       -4.0321  -20.4911  -51.6520 H         1 UNK         0.0600 
    217 H217       -4.4807  -20.9457  -48.6605 H         1 UNK         0.0600 
    218 H218       -4.6994  -19.4214  -49.5044 H         1 UNK         0.0600 
    219 H219       -3.1031  -20.1348  -49.4073 H         1 UNK         0.0600 
    220 H220       -5.8747  -23.0900  -50.1035 H         1 UNK         0.3000 
    221 H221       -8.5030  -21.9968  -50.5906 H         1 UNK         0.0600 
    222 H222       -7.6340  -24.8828  -50.0228 H         1 UNK         0.0600 
    223 H223       -8.0643  -23.6828  -48.8050 H         1 UNK         0.0600 
    224 H224       -9.2731  -24.2581  -49.9420 H         1 UNK         0.0600 
    225 H225       -6.3484  -24.2645  -52.3291 H         1 UNK         0.3000 
    226 H226       -8.0663  -24.6939  -54.5904 H         1 UNK         0.0600 
    227 H227       -6.2270  -26.2454  -53.9178 H         1 UNK         0.0600 
    228 H228       -6.0070  -25.6908  -55.5699 H         1 UNK         0.0600 
    229 H229       -5.0315  -25.0005  -54.2795 H         1 UNK         0.0600 
    230 H230       -6.2835  -21.9700  -53.6354 H         1 UNK         0.3000 
    231 H231       -5.7628  -19.9973  -54.4558 H         1 UNK         0.0600 
    232 H232       -7.6640  -20.6113  -56.7796 H         1 UNK         0.0600 
    233 H233       -7.0794  -19.0249  -56.3014 H         1 UNK         0.0600 
    234 H234       -8.1307  -19.9285  -55.2226 H         1 UNK         0.0600 
    235 H235       -3.7797  -21.6114  -54.7036 H         1 UNK         0.3000 
    236 H236       -2.6394  -22.2481  -57.1208 H         1 UNK         0.0600 
    237 H237       -1.2990  -21.3927  -54.5019 H         1 UNK         0.0600 
    238 H238       -1.7734  -23.0270  -54.9655 H         1 UNK         0.0600 
    239 H239       -0.4714  -22.2181  -55.8185 H         1 UNK         0.0600 
    240 H240       -2.8869  -19.0027  -55.8600 H         1 UNK         0.3000 
    241 H241       -0.8921  -17.8279  -57.6260 H         1 UNK         0.0600 
    242 H242       -4.0836  -19.0622  -58.3421 H         1 UNK         0.3800 
    243 H243       -4.2774  -18.1234  -59.8012 H         1 UNK         0.3800 
    244 H244       -1.8684  -15.6345  -56.8943 H         1 UNK         0.0800 
    245 H245       -3.0942  -16.4785  -55.9883 H         1 UNK         0.0800 
    246 H246       -2.6907  -16.1743  -53.4208 H         1 UNK         0.0800 
    247 H247       -2.6337  -17.8747  -53.8304 H         1 UNK         0.0800 
@<TRIPOS>BOND
     1    1    2 1    
     2    1  127 1    
     3    1  128 1    
     4    1  129 1    
     5    2    3 2    
     6    2    4 am   BACKBONE|DICT|INTERRES
     7    4    5 1    
     8    4  130 1    
     9    5    6 1    
    10    5   65 1    
    11    5  131 1    
    12    6    7 1    
    13    6  132 1    
    14    6  133 1    
    15    7    8 1    
    16    8    9 1    
    17    8  134 1    
    18    8  135 1    
    19    9   10 ar   
    20    9   14 ar   
    21   10   11 ar   
    22   10  136 1    
    23   11   12 ar   
    24   11  126 1    
    25   12   13 ar   
    26   12  137 1    
    27   13   14 ar   
    28   13   15 1    
    29   14  138 1    
    30   15   16 1    
    31   15  139 1    
    32   15  140 1    
    33   16   17 1    
    34   17   18 1    
    35   17  141 1    
    36   17  142 1    
    37   18   19 1    
    38   18   67 1    
    39   18  143 1    
    40   19   20 am   BACKBONE|DICT|INTERRES
    41   19  144 1    
    42   20   21 2    
    43   20   22 1    
    44   22   23 1    
    45   22   24 1    
    46   22  145 1    
    47   23  146 1    
    48   23  147 1    
    49   23  148 1    
    50   24   25 am   BACKBONE|DICT|INTERRES
    51   24  149 1    
    52   25   26 2    
    53   25   27 1    
    54   27   28 1    
    55   27   29 1    
    56   27  150 1    
    57   28  151 1    
    58   28  152 1    
    59   28  153 1    
    60   29   30 am   BACKBONE|DICT|INTERRES
    61   29  154 1    
    62   30   31 2    
    63   30   32 1    
    64   32   33 1    
    65   32   34 1    
    66   32  155 1    
    67   33  156 1    
    68   33  157 1    
    69   33  158 1    
    70   34   35 am   BACKBONE|DICT|INTERRES
    71   34  159 1    
    72   35   36 2    
    73   35   37 1    
    74   37   38 1    
    75   37   39 1    
    76   37  160 1    
    77   38  161 1    
    78   38  162 1    
    79   38  163 1    
    80   39   40 am   BACKBONE|DICT|INTERRES
    81   39  164 1    
    82   40   41 2    
    83   40   42 1    
    84   42   43 1    
    85   42   44 1    
    86   42  165 1    
    87   43  166 1    
    88   43  167 1    
    89   43  168 1    
    90   44   45 am   BACKBONE|DICT|INTERRES
    91   44  169 1    
    92   45   46 2    
    93   45   47 1    
    94   47   48 1    
    95   47   49 1    
    96   47  170 1    
    97   48  171 1    
    98   48  172 1    
    99   48  173 1    
   100   49   50 am   BACKBONE|DICT|INTERRES
   101   49  174 1    
   102   50   51 2    
   103   50   52 1    
   104   52   53 1    
   105   52   54 1    
   106   52  175 1    
   107   53  176 1    
   108   53  177 1    
   109   53  178 1    
   110   54   55 am   BACKBONE|DICT|INTERRES
   111   54  179 1    
   112   55   56 2    
   113   55   57 1    
   114   57   58 1    
   115   57   59 1    
   116   57  180 1    
   117   58  181 1    
   118   58  182 1    
   119   58  183 1    
   120   59   60 am   BACKBONE|DICT|INTERRES
   121   59  184 1    
   122   60   61 2    
   123   60   62 1    
   124   62   63 1    
   125   62   64 1    
   126   62  185 1    
   127   63  186 1    
   128   63  187 1    
   129   63  188 1    
   130   64   65 am   BACKBONE|DICT|INTERRES
   131   64  189 1    
   132   65   66 2    
   133   67   68 2    
   134   67   69 am   BACKBONE|DICT|INTERRES
   135   69   70 1    
   136   69  190 1    
   137   70   71 1    
   138   70   72 1    
   139   70  191 1    
   140   71  192 1    
   141   71  193 1    
   142   71  194 1    
   143   72   73 2    
   144   72   74 am   BACKBONE|DICT|INTERRES
   145   74   75 1    
   146   74  195 1    
   147   75   76 1    
   148   75   77 1    
   149   75  196 1    
   150   76  197 1    
   151   76  198 1    
   152   76  199 1    
   153   77   78 2    
   154   77   79 am   BACKBONE|DICT|INTERRES
   155   79   80 1    
   156   79  200 1    
   157   80   81 1    
   158   80   82 1    
   159   80  201 1    
   160   81  202 1    
   161   81  203 1    
   162   81  204 1    
   163   82   83 2    
   164   82   84 am   BACKBONE|DICT|INTERRES
   165   84   85 1    
   166   84  205 1    
   167   85   86 1    
   168   85   87 1    
   169   85  206 1    
   170   86  207 1    
   171   86  208 1    
   172   86  209 1    
   173   87   88 2    
   174   87   89 am   BACKBONE|DICT|INTERRES
   175   89   90 1    
   176   89  210 1    
   177   90   91 1    
   178   90   92 1    
   179   90  211 1    
   180   91  212 1    
   181   91  213 1    
   182   91  214 1    
   183   92   93 2    
   184   92   94 am   BACKBONE|DICT|INTERRES
   185   94   95 1    
   186   94  215 1    
   187   95   96 1    
   188   95   97 1    
   189   95  216 1    
   190   96  217 1    
   191   96  218 1    
   192   96  219 1    
   193   97   98 2    
   194   97   99 am   BACKBONE|DICT|INTERRES
   195   99  100 1    
   196   99  220 1    
   197  100  101 1    
   198  100  102 1    
   199  100  221 1    
   200  101  222 1    
   201  101  223 1    
   202  101  224 1    
   203  102  103 2    
   204  102  104 am   BACKBONE|DICT|INTERRES
   205  104  105 1    
   206  104  225 1    
   207  105  106 1    
   208  105  107 1    
   209  105  226 1    
   210  106  227 1    
   211  106  228 1    
   212  106  229 1    
   213  107  108 2    
   214  107  109 am   BACKBONE|DICT|INTERRES
   215  109  110 1    
   216  109  230 1    
   217  110  111 1    
   218  110  112 1    
   219  110  231 1    
   220  111  232 1    
   221  111  233 1    
   222  111  234 1    
   223  112  113 2    
   224  112  114 am   BACKBONE|DICT|INTERRES
   225  114  115 1    
   226  114  235 1    
   227  115  116 1    
   228  115  117 1    
   229  115  236 1    
   230  116  237 1    
   231  116  238 1    
   232  116  239 1    
   233  117  118 2    
   234  117  119 am   BACKBONE|DICT|INTERRES
   235  119  120 1    
   236  119  240 1    
   237  120  121 1    
   238  120  124 1    
   239  120  241 1    
   240  121  122 am   BACKBONE|DICT|INTERRES
   241  121  123 2    
   242  122  242 1    
   243  122  243 1    
   244  124  125 1    
   245  124  244 1    
   246  124  245 1    
   247  125  126 1    
   248  126  246 1    
   249  126  247 1    
@<TRIPOS>SUBSTRUCTURE
     1 UNK         1 GROUP             0       ****    0 ROOT    
