@<TRIPOS>MOLECULE
3R540
247   249    1
SMALL
USER_CHARGES


@<TRIPOS>ATOM
      1 CA          5.4618  -14.6169  -46.8599 C.3       0 UNK        -0.1800 
      2 C           4.6994  -14.4196  -48.1626 C.2       0 UNK         0.5000 
      3 O           4.8456  -13.3806  -48.8055 O.2       0 UNK        -0.5000 
      4 N           3.8788  -15.4104  -48.5391 N.am      1 UNK        -0.5000 
      5 CA          3.0486  -15.4570  -49.7554 C.3       1 UNK         0.1400 
      6 C6          3.8740  -15.4762  -51.0712 C.3       23 UNK        -0.0398 
      7 S7          5.0599  -16.8644  -51.1398 S.3       23 UNK        -0.2404 
      8 C8          4.2346  -18.0070  -52.2919 C.3       23 UNK        -0.0205 
      9 C9          3.0988  -18.7744  -51.6301 C.ar      23 UNK        -0.0193 
     10 C10         1.7931  -18.2745  -51.6591 C.ar      23 UNK        -0.1150 
     11 C11         0.7431  -18.9956  -51.0840 C.ar      23 UNK        -0.0193 
     12 C12         1.0059  -20.2317  -50.4856 C.ar      23 UNK        -0.1150 
     13 C13         2.3026  -20.7546  -50.4703 C.ar      23 UNK        -0.0193 
     14 C14         3.3466  -20.0140  -51.0319 C.ar      23 UNK        -0.1150 
     15 C15         2.5610  -22.1550  -49.9294 C.3       23 UNK        -0.0205 
     16 S16         3.4104  -22.1768  -48.3163 S.3       23 UNK        -0.2404 
     17 C17         2.1932  -21.4191  -47.1899 C.3       23 UNK        -0.0398 
     18 CA          1.1954  -22.4357  -46.5711 C.3       11 UNK         0.1400 
     19 N           0.7518  -22.0391  -45.2287 N.am      11 UNK        -0.5000 
     20 C          -0.0654  -22.7536  -44.4385 C.2       10 UNK         0.5000 
     21 O          -0.4840  -23.8746  -44.7214 O.2       10 UNK        -0.5000 
     22 CA         -0.5487  -22.0849  -43.1389 C.3       10 UNK         0.1400 
     23 CB          0.4995  -22.2188  -42.0247 C.3       10 UNK        -0.1800 
     24 N          -0.8977  -20.6774  -43.3313 N.am      10 UNK        -0.5000 
     25 C          -1.8915  -20.2432  -44.1210 C.2       9 UNK         0.5000 
     26 O          -2.6713  -20.9911  -44.7111 O.2       9 UNK        -0.5000 
     27 CA         -1.9886  -18.7210  -44.3376 C.3       9 UNK         0.1400 
     28 CB         -2.6967  -18.0417  -43.1575 C.3       9 UNK        -0.1800 
     29 N          -0.6756  -18.1084  -44.5466 N.am      9 UNK        -0.5000 
     30 C           0.1341  -18.3981  -45.5755 C.2       8 UNK         0.5000 
     31 O          -0.1753  -19.1502  -46.4978 O.2       8 UNK        -0.5000 
     32 CA          1.5472  -17.7964  -45.5412 C.3       8 UNK         0.1400 
     33 CB          1.5440  -16.3742  -46.1013 C.3       8 UNK        -0.1800 
     34 N           2.1035  -17.7811  -44.1900 N.am      8 UNK        -0.5000 
     35 C           2.5296  -18.8723  -43.5412 C.2       7 UNK         0.5000 
     36 O           2.5200  -20.0015  -44.0285 O.2       7 UNK        -0.5000 
     37 CA          3.0090  -18.6711  -42.0926 C.3       7 UNK         0.1400 
     38 CB          4.4712  -18.2019  -42.0675 C.3       7 UNK        -0.1800 
     39 N           2.1799  -17.7168  -41.3549 N.am      7 UNK        -0.5000 
     40 C           0.8936  -17.9203  -41.0374 C.2       6 UNK         0.5000 
     41 O           0.2787  -18.9510  -41.3080 O.2       6 UNK        -0.5000 
     42 CA          0.1594  -16.7598  -40.3412 C.3       6 UNK         0.1400 
     43 CB          0.3355  -16.8472  -38.8181 C.3       6 UNK        -0.1800 
     44 N           0.5849  -15.4357  -40.8052 N.am      6 UNK        -0.5000 
     45 C           0.4387  -14.9873  -42.0585 C.2       5 UNK         0.5000 
     46 O          -0.0193  -15.6682  -42.9802 O.2       5 UNK        -0.5000 
     47 CA          0.9274  -13.5571  -42.3385 C.3       5 UNK         0.1400 
     48 CB          2.2654  -13.5864  -43.0939 C.3       5 UNK        -0.1800 
     49 N          -0.0627  -12.8481  -43.1415 N.am      5 UNK        -0.5000 
     50 C          -1.1643  -12.2613  -42.6484 C.2       4 UNK         0.5000 
     51 O          -1.3802  -12.1185  -41.4442 O.2       4 UNK        -0.5000 
     52 CA         -2.2174  -11.7765  -43.6690 C.3       4 UNK         0.1400 
     53 CB         -1.9582  -10.3146  -44.0625 C.3       4 UNK        -0.1800 
     54 N          -2.2256  -12.6018  -44.8761 N.am      4 UNK        -0.5000 
     55 C          -2.5926  -13.8891  -44.9084 C.2       3 UNK         0.5000 
     56 O          -3.2327  -14.4244  -44.0029 O.2       3 UNK        -0.5000 
     57 CA         -2.1402  -14.7342  -46.1205 C.3       3 UNK         0.1400 
     58 CB         -3.3151  -15.4964  -46.7536 C.3       3 UNK        -0.1800 
     59 N          -1.4101  -14.0194  -47.1778 N.am      3 UNK        -0.5000 
     60 C          -0.2113  -13.4349  -47.0690 C.2       2 UNK         0.5000 
     61 O           0.3907  -13.2982  -46.0030 O.2       2 UNK        -0.5000 
     62 CA          0.4535  -12.9623  -48.3642 C.3       2 UNK         0.1400 
     63 CB          0.9784  -11.5214  -48.2488 C.3       2 UNK        -0.1800 
     64 N           1.5633  -13.8726  -48.5994 N.am      2 UNK        -0.5000 
     65 C           1.9229  -14.3920  -49.7780 C.2       1 UNK         0.5000 
     66 O           1.3903  -14.0814  -50.8447 O.2       1 UNK        -0.5000 
     67 C          -0.0034  -22.6724  -47.5107 C.2       11 UNK         0.5000 
     68 O          -0.1019  -23.7377  -48.1187 O.2       11 UNK        -0.5000 
     69 N          -0.9071  -21.6850  -47.5773 N.am      12 UNK        -0.5000 
     70 CA         -2.1328  -21.7092  -48.3724 C.3       12 UNK         0.1400 
     71 CB         -2.8424  -20.3542  -48.2388 C.3       12 UNK        -0.1800 
     72 C          -3.0673  -22.8735  -48.0002 C.2       12 UNK         0.5000 
     73 O          -3.5598  -23.5651  -48.8921 O.2       12 UNK        -0.5000 
     74 N          -3.2508  -23.0972  -46.6918 N.am      13 UNK        -0.5000 
     75 CA         -4.0278  -24.2053  -46.1392 C.3       13 UNK         0.1400 
     76 CB         -4.2059  -24.0009  -44.6273 C.3       13 UNK        -0.1800 
     77 C          -3.4087  -25.5844  -46.4351 C.2       13 UNK         0.5000 
     78 O          -4.1397  -26.5039  -46.8038 O.2       13 UNK        -0.5000 
     79 N          -2.0817  -25.7033  -46.2818 N.am      14 UNK        -0.5000 
     80 CA         -1.3216  -26.9289  -46.5360 C.3       14 UNK         0.1400 
     81 CB          0.1026  -26.7812  -45.9790 C.3       14 UNK        -0.1800 
     82 C          -1.2827  -27.3108  -48.0256 C.2       14 UNK         0.5000 
     83 O          -1.4387  -28.4877  -48.3544 O.2       14 UNK        -0.5000 
     84 N          -1.0896  -26.3120  -48.8975 N.am      15 UNK        -0.5000 
     85 CA         -1.1080  -26.4670  -50.3524 C.3       15 UNK         0.1400 
     86 CB         -0.5268  -25.2015  -50.9971 C.3       15 UNK        -0.1800 
     87 C          -2.5163  -26.7533  -50.9053 C.2       15 UNK         0.5000 
     88 O          -2.6369  -27.4251  -51.9305 O.2       15 UNK        -0.5000 
     89 N          -3.5460  -26.2283  -50.2250 N.am      16 UNK        -0.5000 
     90 CA         -4.9883  -26.3500  -50.4669 C.3       16 UNK         0.1400 
     91 CB         -5.4503  -27.8183  -50.4268 C.3       16 UNK        -0.1800 
     92 C          -5.4744  -25.6378  -51.7419 C.2       16 UNK         0.5000 
     93 O          -6.4414  -24.8805  -51.6791 O.2       16 UNK        -0.5000 
     94 N          -4.7847  -25.8489  -52.8691 N.am      17 UNK        -0.5000 
     95 CA         -5.0329  -25.1703  -54.1432 C.3       17 UNK         0.1400 
     96 CB         -4.2179  -25.8594  -55.2474 C.3       17 UNK        -0.1800 
     97 C          -4.7009  -23.6670  -54.0818 C.2       17 UNK         0.5000 
     98 O          -5.3691  -22.8632  -54.7320 O.2       17 UNK        -0.5000 
     99 N          -3.7003  -23.3142  -53.2632 N.am      18 UNK        -0.5000 
    100 CA        -3.2533  -21.9427  -53.0192 C.3       18 UNK         0.1400 
    101 CB        -1.7666  -21.9628  -52.6295 C.3       18 UNK        -0.1800 
    102 C         -4.1086  -21.1967  -51.9729 C.2       18 UNK         0.5000 
    103 O         -3.7620  -20.0729  -51.6147 O.2       18 UNK        -0.5000 
    104 N         -5.2118  -21.8025  -51.5042 N.am      19 UNK        -0.5000 
    105 CA        -6.2252  -21.1361  -50.6805 C.3       19 UNK         0.1400 
    106 CB        -7.1599  -22.1844  -50.0615 C.3       19 UNK        -0.1800 
    107 C         -7.0265  -20.0823  -51.4720 C.2       19 UNK         0.5000 
    108 O         -7.5460  -19.1408  -50.8719 O.2       19 UNK        -0.5000 
    109 N         -7.0910  -20.2416  -52.8019 N.am      20 UNK        -0.5000 
    110 CA        -7.5308  -19.2087  -53.7347 C.3       20 UNK         0.1400 
    111 CB        -7.8977  -19.8655  -55.0741 C.3       20 UNK        -0.1800 
    112 C         -6.4046  -18.1758  -53.9214 C.2       20 UNK         0.5000 
    113 O         -5.2458  -18.5682  -54.0752 O.2       20 UNK        -0.5000 
    114 N         -6.7682  -16.8868  -53.9164 N.am      21 UNK        -0.5000 
    115 CA        -5.8686  -15.7281  -53.9221 C.3       21 UNK         0.1400 
    116 CB        -5.0592  -15.6437  -55.2376 C.3       21 UNK        -0.1800 
    117 C         -5.0196  -15.6750  -52.6315 C.2       21 UNK         0.5000 
    118 O         -5.5977  -15.7231  -51.5441 O.2       21 UNK        -0.5000 
    119 N         -3.6905  -15.5531  -52.7594 N.am      22 UNK        -0.5000 
    120 CA        -2.7338  -15.3916  -51.6474 C.3       22 UNK         0.1400 
    121 C         -2.8700  -14.0289  -50.8988 C.2       22 UNK         0.5000 
    122 N         -3.3130  -12.9649  -51.5583 N.am      22 UNK        -0.7600 
    123 O         -2.5767  -13.9214  -49.7130 O.2       22 UNK        -0.5000 
    124 C124       -2.6991  -16.6261  -50.6949 C.3       23 UNK        -0.0398 
    125 S125       -1.0086  -17.0398  -50.1277 S.3       23 UNK        -0.2404 
    126 C126       -0.6846  -18.4811  -51.1889 C.3       23 UNK        -0.0205 
    127 H127        6.5348  -14.5490  -47.0394 H         1 UNK         0.0600 
    128 H128        5.2539  -15.5879  -46.4095 H         1 UNK         0.0600 
    129 H129        5.1848  -13.8439  -46.1429 H         1 UNK         0.0600 
    130 H130        3.8413  -16.2453  -47.9729 H         1 UNK         0.3000 
    131 H131        2.5179  -16.4078  -49.6950 H         1 UNK         0.0600 
    132 H132        3.2191  -15.5331  -51.9415 H         1 UNK         0.0800 
    133 H133        4.4315  -14.5458  -51.1851 H         1 UNK         0.0800 
    134 H134        4.9773  -18.7110  -52.6702 H         1 UNK         0.0800 
    135 H135        3.8712  -17.4625  -53.1647 H         1 UNK         0.0800 
    136 H136        1.5867  -17.3297  -52.1417 H         1 UNK         0.1150 
    137 H137        0.1930  -20.8068  -50.0686 H         1 UNK         0.1150 
    138 H138        4.3495  -20.4178  -51.0281 H         1 UNK         0.1150 
    139 H139        1.6325  -22.7220  -49.8693 H         1 UNK         0.0800 
    140 H140        3.1818  -22.6948  -50.6458 H         1 UNK         0.0800 
    141 H141        1.6916  -20.5864  -47.6842 H         1 UNK         0.0800 
    142 H142        2.7869  -20.9636  -46.3984 H         1 UNK         0.0800 
    143 H143        1.7077  -23.3920  -46.4463 H         1 UNK         0.0600 
    144 H144        1.0973  -21.1502  -44.8835 H         1 UNK         0.3000 
    145 H145       -1.4512  -22.6072  -42.8149 H         1 UNK         0.0600 
    146 H146        1.4231  -21.6959  -42.2712 H         1 UNK         0.0600 
    147 H147        0.1274  -21.8128  -41.0839 H         1 UNK         0.0600 
    148 H148        0.7514  -23.2656  -41.8505 H         1 UNK         0.0600 
    149 H149       -0.3399  -19.9965  -42.8242 H         1 UNK         0.3000 
    150 H150       -2.5826  -18.5466  -45.2372 H         1 UNK         0.0600 
    151 H151       -3.7089  -18.4290  -43.0365 H         1 UNK         0.0600 
    152 H152       -2.7750  -16.9660  -43.3110 H         1 UNK         0.0600 
    153 H153       -2.1685  -18.2064  -42.2189 H         1 UNK         0.0600 
    154 H154       -0.3654  -17.4348  -43.8531 H         1 UNK         0.3000 
    155 H155        2.1905  -18.4090  -46.1763 H         1 UNK         0.0600 
    156 H156        0.9183  -15.7253  -45.4924 H         1 UNK         0.0600 
    157 H157        2.5467  -15.9497  -46.1132 H         1 UNK         0.0600 
    158 H158        1.1540  -16.3560  -47.1198 H         1 UNK         0.0600 
    159 H159        2.0852  -16.8994  -43.6995 H         1 UNK         0.3000 
    160 H160        2.9498  -19.6363  -41.5851 H         1 UNK         0.0600 
    161 H161        5.1151  -18.9045  -42.5985 H         1 UNK         0.0600 
    162 H162        4.5913  -17.2257  -42.5390 H         1 UNK         0.0600 
    163 H163        4.8444  -18.1298  -41.0458 H         1 UNK         0.0600 
    164 H164        2.6087  -16.8419  -41.0921 H         1 UNK         0.3000 
    165 H165       -0.9040  -16.8627  -40.5663 H         1 UNK         0.0600 
    166 H166       -0.2551  -16.0858  -38.3082 H         1 UNK         0.0600 
    167 H167        0.0062  -17.8170  -38.4423 H         1 UNK         0.0600 
    168 H168        1.3778  -16.7177  -38.5241 H         1 UNK         0.0600 
    169 H169        0.9770  -14.8205  -40.1068 H         1 UNK         0.3000 
    170 H170        1.0749  -13.0285  -41.3943 H         1 UNK         0.0600 
    171 H171        3.0347  -14.0923  -42.5093 H         1 UNK         0.0600 
    172 H172        2.1813  -14.1078  -44.0479 H         1 UNK         0.0600 
    173 H173        2.6229  -12.5771  -43.2986 H         1 UNK         0.0600 
    174 H174        0.0226  -12.9677  -44.1475 H         1 UNK         0.3000 
    175 H175       -3.2003  -11.8402  -43.1975 H         1 UNK         0.0600 
    176 H176       -0.9906  -10.1949  -44.5519 H         1 UNK         0.0600 
    177 H177       -2.7268   -9.9468  -44.7425 H         1 UNK         0.0600 
    178 H178       -1.9648   -9.6676  -43.1843 H         1 UNK         0.0600 
    179 H179       -1.6905  -12.2569  -45.6592 H         1 UNK         0.3000 
    180 H180       -1.4566  -15.4800  -45.7122 H         1 UNK         0.0600 
    181 H181       -4.0114  -14.8193  -47.2494 H         1 UNK         0.0600 
    182 H182       -3.8746  -16.0608  -46.0066 H         1 UNK         0.0600 
    183 H183       -2.9578  -16.2142  -47.4916 H         1 UNK         0.0600 
    184 H184       -1.8421  -14.0481  -48.1022 H         1 UNK         0.3000 
    185 H185       -0.2632  -13.0105  -49.1841 H         1 UNK         0.0600 
    186 H186        1.4462  -11.2003  -49.1796 H         1 UNK         0.0600 
    187 H187        0.1653  -10.8269  -48.0348 H         1 UNK         0.0600 
    188 H188        1.7178  -11.4207  -47.4531 H         1 UNK         0.0600 
    189 H189        2.0428  -14.1837  -47.7663 H         1 UNK         0.3000 
    190 H190       -0.7277  -20.8278  -47.0579 H         1 UNK         0.3000 
    191 H191       -1.8459  -21.8398  -49.4153 H         1 UNK         0.0600 
    192 H192       -3.1602  -20.1606  -47.2147 H         1 UNK         0.0600 
    193 H193       -3.7275  -20.3127  -48.8696 H         1 UNK         0.0600 
    194 H194       -2.1907  -19.5355  -48.5440 H         1 UNK         0.0600 
    195 H195       -2.8369  -22.4529  -46.0239 H         1 UNK         0.3000 
    196 H196       -5.0163  -24.1802  -46.6027 H         1 UNK         0.0600 
    197 H197       -4.8013  -24.8039  -44.1911 H         1 UNK         0.0600 
    198 H198       -4.7186  -23.0625  -44.4147 H         1 UNK         0.0600 
    199 H199       -3.2473  -23.9818  -44.1080 H         1 UNK         0.0600 
    200 H200       -1.5520  -24.9099  -45.9299 H         1 UNK         0.3000 
    201 H201       -1.8105  -27.7438  -45.9981 H         1 UNK         0.0600 
    202 H202        0.0879  -26.6110  -44.9024 H         1 UNK         0.0600 
    203 H203        0.6313  -25.9471  -46.4421 H         1 UNK         0.0600 
    204 H204        0.6890  -27.6833  -46.1573 H         1 UNK         0.0600 
    205 H205       -0.9056  -25.3763  -48.5408 H         1 UNK         0.3000 
    206 H206       -0.4694  -27.3118  -50.6186 H         1 UNK         0.0600 
    207 H207        0.5152  -25.0576  -50.7110 H         1 UNK         0.0600 
    208 H208       -0.5635  -25.2545  -52.0860 H         1 UNK         0.0600 
    209 H209       -1.0808  -24.3175  -50.6849 H         1 UNK         0.0600 
    210 H210       -3.3143  -25.6152  -49.4516 H         1 UNK         0.3000 
    211 H211       -5.4616  -25.8388  -49.6268 H         1 UNK         0.0600 
    212 H212       -5.0348  -28.4028  -51.2479 H         1 UNK         0.0600 
    213 H213       -6.5365  -27.8846  -50.4979 H         1 UNK         0.0600 
    214 H214       -5.1554  -28.2955  -49.4920 H         1 UNK         0.0600 
    215 H215       -3.9975  -26.4912  -52.8224 H         1 UNK         0.3000 
    216 H216       -6.0935  -25.2692  -54.3837 H         1 UNK         0.0600 
    217 H217       -4.3922  -25.3866  -56.2148 H         1 UNK         0.0600 
    218 H218       -4.4953  -26.9092  -55.3444 H         1 UNK         0.0600 
    219 H219       -3.1468  -25.8131  -55.0460 H         1 UNK         0.0600 
    220 H220       -3.2301  -24.0418  -52.7460 H         1 UNK         0.3000 
    221 H221       -3.3399  -21.3809  -53.9518 H         1 UNK         0.0600 
    222 H222       -1.6185  -22.3689  -51.6319 H         1 UNK         0.0600 
    223 H223       -1.1775  -22.5569  -53.3283 H         1 UNK         0.0600 
    224 H224       -1.3500  -20.9560  -52.6380 H         1 UNK         0.0600 
    225 H225       -5.4255  -22.7422  -51.8096 H         1 UNK         0.3000 
    226 H226       -5.7216  -20.6163  -49.8654 H         1 UNK         0.0600 
    227 H227       -6.5985  -22.9294  -49.4966 H         1 UNK         0.0600 
    228 H228       -7.8660  -21.7178  -49.3738 H         1 UNK         0.0600 
    229 H229       -7.7413  -22.7042  -50.8235 H         1 UNK         0.0600 
    230 H230       -6.5972  -21.0229  -53.2097 H         1 UNK         0.3000 
    231 H231       -8.4186  -18.7154  -53.3331 H         1 UNK         0.0600 
    232 H232       -8.2374  -19.1198  -55.7939 H         1 UNK         0.0600 
    233 H233       -8.7029  -20.5899  -54.9504 H         1 UNK         0.0600 
    234 H234       -7.0453  -20.3845  -55.5150 H         1 UNK         0.0600 
    235 H235       -7.7430  -16.6682  -53.7648 H         1 UNK         0.3000 
    236 H236       -6.5133  -14.8487  -53.8870 H         1 UNK         0.0600 
    237 H237       -4.5068  -14.7054  -55.2992 H         1 UNK         0.0600 
    238 H238       -5.7213  -15.6787  -56.1028 H         1 UNK         0.0600 
    239 H239       -4.3420  -16.4583  -55.3403 H         1 UNK         0.0600 
    240 H240       -3.2966  -15.5294  -53.6888 H         1 UNK         0.3000 
    241 H241       -1.7628  -15.3315  -52.1401 H         1 UNK         0.0600 
    242 H242       -3.4045  -12.0878  -51.0711 H         1 UNK         0.3800 
    243 H243       -3.5597  -13.0238  -52.5329 H         1 UNK         0.3800 
    244 H244       -3.3454  -16.4776  -49.8291 H         1 UNK         0.0800 
    245 H245       -3.1121  -17.5004  -51.1993 H         1 UNK         0.0800 
    246 H246       -1.3870  -19.2691  -50.9184 H         1 UNK         0.0800 
    247 H247       -0.8949  -18.2224  -52.2278 H         1 UNK         0.0800 
@<TRIPOS>BOND
     1    1    2 1    
     2    1  127 1    
     3    1  128 1    
     4    1  129 1    
     5    2    3 2    
     6    2    4 am   BACKBONE|DICT|INTERRES
     7    4    5 1    
     8    4  130 1    
     9    5    6 1    
    10    5   65 1    
    11    5  131 1    
    12    6    7 1    
    13    6  132 1    
    14    6  133 1    
    15    7    8 1    
    16    8    9 1    
    17    8  134 1    
    18    8  135 1    
    19    9   10 ar   
    20    9   14 ar   
    21   10   11 ar   
    22   10  136 1    
    23   11   12 ar   
    24   11  126 1    
    25   12   13 ar   
    26   12  137 1    
    27   13   14 ar   
    28   13   15 1    
    29   14  138 1    
    30   15   16 1    
    31   15  139 1    
    32   15  140 1    
    33   16   17 1    
    34   17   18 1    
    35   17  141 1    
    36   17  142 1    
    37   18   19 1    
    38   18   67 1    
    39   18  143 1    
    40   19   20 am   BACKBONE|DICT|INTERRES
    41   19  144 1    
    42   20   21 2    
    43   20   22 1    
    44   22   23 1    
    45   22   24 1    
    46   22  145 1    
    47   23  146 1    
    48   23  147 1    
    49   23  148 1    
    50   24   25 am   BACKBONE|DICT|INTERRES
    51   24  149 1    
    52   25   26 2    
    53   25   27 1    
    54   27   28 1    
    55   27   29 1    
    56   27  150 1    
    57   28  151 1    
    58   28  152 1    
    59   28  153 1    
    60   29   30 am   BACKBONE|DICT|INTERRES
    61   29  154 1    
    62   30   31 2    
    63   30   32 1    
    64   32   33 1    
    65   32   34 1    
    66   32  155 1    
    67   33  156 1    
    68   33  157 1    
    69   33  158 1    
    70   34   35 am   BACKBONE|DICT|INTERRES
    71   34  159 1    
    72   35   36 2    
    73   35   37 1    
    74   37   38 1    
    75   37   39 1    
    76   37  160 1    
    77   38  161 1    
    78   38  162 1    
    79   38  163 1    
    80   39   40 am   BACKBONE|DICT|INTERRES
    81   39  164 1    
    82   40   41 2    
    83   40   42 1    
    84   42   43 1    
    85   42   44 1    
    86   42  165 1    
    87   43  166 1    
    88   43  167 1    
    89   43  168 1    
    90   44   45 am   BACKBONE|DICT|INTERRES
    91   44  169 1    
    92   45   46 2    
    93   45   47 1    
    94   47   48 1    
    95   47   49 1    
    96   47  170 1    
    97   48  171 1    
    98   48  172 1    
    99   48  173 1    
   100   49   50 am   BACKBONE|DICT|INTERRES
   101   49  174 1    
   102   50   51 2    
   103   50   52 1    
   104   52   53 1    
   105   52   54 1    
   106   52  175 1    
   107   53  176 1    
   108   53  177 1    
   109   53  178 1    
   110   54   55 am   BACKBONE|DICT|INTERRES
   111   54  179 1    
   112   55   56 2    
   113   55   57 1    
   114   57   58 1    
   115   57   59 1    
   116   57  180 1    
   117   58  181 1    
   118   58  182 1    
   119   58  183 1    
   120   59   60 am   BACKBONE|DICT|INTERRES
   121   59  184 1    
   122   60   61 2    
   123   60   62 1    
   124   62   63 1    
   125   62   64 1    
   126   62  185 1    
   127   63  186 1    
   128   63  187 1    
   129   63  188 1    
   130   64   65 am   BACKBONE|DICT|INTERRES
   131   64  189 1    
   132   65   66 2    
   133   67   68 2    
   134   67   69 am   BACKBONE|DICT|INTERRES
   135   69   70 1    
   136   69  190 1    
   137   70   71 1    
   138   70   72 1    
   139   70  191 1    
   140   71  192 1    
   141   71  193 1    
   142   71  194 1    
   143   72   73 2    
   144   72   74 am   BACKBONE|DICT|INTERRES
   145   74   75 1    
   146   74  195 1    
   147   75   76 1    
   148   75   77 1    
   149   75  196 1    
   150   76  197 1    
   151   76  198 1    
   152   76  199 1    
   153   77   78 2    
   154   77   79 am   BACKBONE|DICT|INTERRES
   155   79   80 1    
   156   79  200 1    
   157   80   81 1    
   158   80   82 1    
   159   80  201 1    
   160   81  202 1    
   161   81  203 1    
   162   81  204 1    
   163   82   83 2    
   164   82   84 am   BACKBONE|DICT|INTERRES
   165   84   85 1    
   166   84  205 1    
   167   85   86 1    
   168   85   87 1    
   169   85  206 1    
   170   86  207 1    
   171   86  208 1    
   172   86  209 1    
   173   87   88 2    
   174   87   89 am   BACKBONE|DICT|INTERRES
   175   89   90 1    
   176   89  210 1    
   177   90   91 1    
   178   90   92 1    
   179   90  211 1    
   180   91  212 1    
   181   91  213 1    
   182   91  214 1    
   183   92   93 2    
   184   92   94 am   BACKBONE|DICT|INTERRES
   185   94   95 1    
   186   94  215 1    
   187   95   96 1    
   188   95   97 1    
   189   95  216 1    
   190   96  217 1    
   191   96  218 1    
   192   96  219 1    
   193   97   98 2    
   194   97   99 am   BACKBONE|DICT|INTERRES
   195   99  100 1    
   196   99  220 1    
   197  100  101 1    
   198  100  102 1    
   199  100  221 1    
   200  101  222 1    
   201  101  223 1    
   202  101  224 1    
   203  102  103 2    
   204  102  104 am   BACKBONE|DICT|INTERRES
   205  104  105 1    
   206  104  225 1    
   207  105  106 1    
   208  105  107 1    
   209  105  226 1    
   210  106  227 1    
   211  106  228 1    
   212  106  229 1    
   213  107  108 2    
   214  107  109 am   BACKBONE|DICT|INTERRES
   215  109  110 1    
   216  109  230 1    
   217  110  111 1    
   218  110  112 1    
   219  110  231 1    
   220  111  232 1    
   221  111  233 1    
   222  111  234 1    
   223  112  113 2    
   224  112  114 am   BACKBONE|DICT|INTERRES
   225  114  115 1    
   226  114  235 1    
   227  115  116 1    
   228  115  117 1    
   229  115  236 1    
   230  116  237 1    
   231  116  238 1    
   232  116  239 1    
   233  117  118 2    
   234  117  119 am   BACKBONE|DICT|INTERRES
   235  119  120 1    
   236  119  240 1    
   237  120  121 1    
   238  120  124 1    
   239  120  241 1    
   240  121  122 am   BACKBONE|DICT|INTERRES
   241  121  123 2    
   242  122  242 1    
   243  122  243 1    
   244  124  125 1    
   245  124  244 1    
   246  124  245 1    
   247  125  126 1    
   248  126  246 1    
   249  126  247 1    
@<TRIPOS>SUBSTRUCTURE
     1 UNK         1 GROUP             0       ****    0 ROOT    
