@<TRIPOS>MOLECULE
3R540
247   249    1
SMALL
USER_CHARGES


@<TRIPOS>ATOM
      1 CA          7.3667  -11.0517  -50.4350 C.3       0 UNK        -0.1800 
      2 C           6.3044  -11.4891  -49.4361 C.2       0 UNK         0.5000 
      3 O           6.4670  -11.2729  -48.2347 O.2       0 UNK        -0.5000 
      4 N           5.2248  -12.1097  -49.9263 N.am      1 UNK        -0.5000 
      5 CA          4.0783  -12.5648  -49.1338 C.3       1 UNK         0.1400 
      6 C6          3.1385  -13.4826  -49.9534 C.3       23 UNK        -0.0398 
      7 S7          3.9727  -15.0070  -50.5052 S.3       23 UNK        -0.2404 
      8 C8          2.7371  -15.6849  -51.6554 C.3       23 UNK        -0.0205 
      9 C9          1.7205  -16.5665  -50.9464 C.ar      23 UNK        -0.0193 
     10 C10         0.5487  -16.0190  -50.4172 C.ar      23 UNK        -0.1150 
     11 C11        -0.4144  -16.8376  -49.8156 C.ar      23 UNK        -0.0193 
     12 C12        -0.1785  -18.2137  -49.7271 C.ar      23 UNK        -0.1150 
     13 C13         0.9898  -18.7745  -50.2508 C.ar      23 UNK        -0.0193 
     14 C14         1.9363  -17.9438  -50.8554 C.ar      23 UNK        -0.1150 
     15 C15         1.2214  -20.2784  -50.2056 C.3       23 UNK        -0.0205 
     16 S16         2.1480  -20.7855  -48.7234 S.3       23 UNK        -0.2404 
     17 C17         0.7988  -21.0122  -47.5188 C.3       23 UNK        -0.0398 
     18 CA          0.4277  -22.5007  -47.3430 C.3       11 UNK         0.1400 
     19 N           1.5180  -23.2918  -46.7710 N.am      11 UNK        -0.5000 
     20 C           1.6452  -24.6148  -46.9385 C.2       10 UNK         0.5000 
     21 O           0.8716  -25.2892  -47.6173 O.2       10 UNK        -0.5000 
     22 CA          2.8017  -25.3116  -46.1952 C.3       10 UNK         0.1400 
     23 CB          4.0518  -25.3713  -47.0851 C.3       10 UNK        -0.1800 
     24 N           3.1482  -24.6766  -44.9216 N.am      10 UNK        -0.5000 
     25 C           2.3212  -24.5502  -43.8752 C.2       9 UNK         0.5000 
     26 O           1.1664  -24.9792  -43.8729 O.2       9 UNK        -0.5000 
     27 CA          2.8404  -23.7790  -42.6416 C.3       9 UNK         0.1400 
     28 CB          4.3515  -23.4587  -42.6903 C.3       9 UNK        -0.1800 
     29 N           2.0763  -22.5493  -42.3923 N.am      9 UNK        -0.5000 
     30 C           1.8561  -21.5502  -43.2586 C.2       8 UNK         0.5000 
     31 O           2.2455  -21.5570  -44.4295 O.2       8 UNK        -0.5000 
     32 CA          1.0799  -20.3381  -42.7208 C.3       8 UNK         0.1400 
     33 CB          2.0306  -19.3702  -41.9995 C.3       8 UNK        -0.1800 
     34 N           0.4590  -19.6316  -43.8359 N.am      8 UNK        -0.5000 
     35 C          -0.8287  -19.2979  -43.9572 C.2       7 UNK         0.5000 
     36 O          -1.6763  -19.5295  -43.0941 O.2       7 UNK        -0.5000 
     37 CA         -1.2211  -18.5633  -45.2603 C.3       7 UNK         0.1400 
     38 CB         -2.7408  -18.3600  -45.3882 C.3       7 UNK        -0.1800 
     39 N          -0.5521  -17.2654  -45.3881 N.am      7 UNK        -0.5000 
     40 C           0.7500  -17.0794  -45.6608 C.2       6 UNK         0.5000 
     41 O           1.5196  -18.0065  -45.9139 O.2       6 UNK        -0.5000 
     42 CA          1.3089  -15.6411  -45.6301 C.3       6 UNK         0.1400 
     43 CB          1.8155  -15.2210  -47.0152 C.3       6 UNK        -0.1800 
     44 N           0.3492  -14.6449  -45.1523 N.am      6 UNK        -0.5000 
     45 C           0.0029  -14.4745  -43.8671 C.2       5 UNK         0.5000 
     46 O           0.5208  -15.0960  -42.9390 O.2       5 UNK        -0.5000 
     47 CA         -1.1286  -13.4710  -43.5587 C.3       5 UNK         0.1400 
     48 CB         -0.5670  -12.2005  -42.9033 C.3       5 UNK        -0.1800 
     49 N          -1.9275  -13.1079  -44.7336 N.am      5 UNK        -0.5000 
     50 C          -2.7464  -13.9532  -45.3787 C.2       4 UNK         0.5000 
     51 O          -2.9275  -15.1159  -45.0195 O.2       4 UNK        -0.5000 
     52 CA         -3.4514  -13.4469  -46.6539 C.3       4 UNK         0.1400 
     53 CB         -4.9090  -13.0725  -46.3468 C.3       4 UNK        -0.1800 
     54 N          -2.7980  -12.3103  -47.3082 N.am      4 UNK        -0.5000 
     55 C          -1.5524  -12.3059  -47.8014 C.2       3 UNK         0.5000 
     56 O          -0.7864  -13.2676  -47.7154 O.2       3 UNK        -0.5000 
     57 CA         -1.0555  -11.0065  -48.4732 C.3       3 UNK         0.1400 
     58 CB         -2.0003   -9.7958  -48.2993 C.3       3 UNK        -0.1800 
     59 N           0.2990  -10.6664  -48.0304 N.am      3 UNK        -0.5000 
     60 C           0.7172  -10.4930  -46.7689 C.2       2 UNK         0.5000 
     61 O          -0.0414  -10.4897  -45.7977 O.2       2 UNK        -0.5000 
     62 CA          2.2409  -10.3322  -46.5665 C.3       2 UNK         0.1400 
     63 CB          2.6450  -10.3636  -45.0810 C.3       2 UNK        -0.1800 
     64 N           3.0083  -11.3612  -47.2766 N.am      2 UNK        -0.5000 
     65 C           3.2923  -11.3580  -48.5848 C.2       1 UNK         0.5000 
     66 O           2.9223  -10.4711  -49.3581 O.2       1 UNK        -0.5000 
     67 C          -0.8707  -22.6634  -46.5292 C.2       11 UNK         0.5000 
     68 O          -1.9475  -22.5931  -47.1159 O.2       11 UNK        -0.5000 
     69 N          -0.7716  -22.9284  -45.2172 N.am      12 UNK        -0.5000 
     70 CA         -1.9241  -23.2854  -44.3837 C.3       12 UNK         0.1400 
     71 CB         -1.5802  -23.1733  -42.8919 C.3       12 UNK        -0.1800 
     72 C          -2.4410  -24.6937  -44.7196 C.2       12 UNK         0.5000 
     73 O          -3.6529  -24.8890  -44.8233 O.2       12 UNK        -0.5000 
     74 N          -1.5056  -25.6297  -44.9409 N.am      13 UNK        -0.5000 
     75 CA         -1.7712  -26.9989  -45.3874 C.3       13 UNK         0.1400 
     76 CB         -0.4631  -27.8029  -45.3743 C.3       13 UNK        -0.1800 
     77 C          -2.4458  -27.0705  -46.7722 C.2       13 UNK         0.5000 
     78 O          -3.2230  -27.9936  -47.0171 O.2       13 UNK        -0.5000 
     79 N          -2.2022  -26.0674  -47.6284 N.am      14 UNK        -0.5000 
     80 CA         -2.8568  -25.8530  -48.9225 C.3       14 UNK         0.1400 
     81 CB         -1.9597  -24.9531  -49.7929 C.3       14 UNK        -0.1800 
     82 C          -4.2923  -25.2931  -48.7795 C.2       14 UNK         0.5000 
     83 O          -4.6570  -24.3433  -49.4769 O.2       14 UNK        -0.5000 
     84 N          -5.0807  -25.8983  -47.8797 N.am      15 UNK        -0.5000 
     85 CA         -6.4817  -25.6081  -47.5627 C.3       15 UNK         0.1400 
     86 CB         -7.3857  -26.0304  -48.7404 C.3       15 UNK        -0.1800 
     87 C          -6.7096  -24.1465  -47.1271 C.2       15 UNK         0.5000 
     88 O          -7.5896  -23.4770  -47.6671 O.2       15 UNK        -0.5000 
     89 N          -5.8815  -23.6577  -46.1901 N.am      16 UNK        -0.5000 
     90 CA         -5.8388  -22.2658  -45.7153 C.3       16 UNK         0.1400 
     91 CB         -7.1048  -21.9193  -44.9046 C.3       16 UNK        -0.1800 
     92 C          -5.5589  -21.2716  -46.8642 C.2       16 UNK         0.5000 
     93 O          -6.1957  -20.2218  -46.9601 O.2       16 UNK        -0.5000 
     94 N          -4.6244  -21.6717  -47.7350 N.am      17 UNK        -0.5000 
     95 CA         -4.1764  -21.0366  -48.9727 C.3       17 UNK         0.1400 
     96 CB         -3.5820  -19.6417  -48.7098 C.3       17 UNK        -0.1800 
     97 C          -5.2082  -21.0245  -50.1154 C.2       17 UNK         0.5000 
     98 O          -4.9221  -20.4242  -51.1512 O.2       17 UNK        -0.5000 
     99 N          -6.3541  -21.7050  -49.9629 N.am      18 UNK        -0.5000 
    100 CA        -7.3816  -21.8050  -51.0016 C.3       18 UNK         0.1400 
    101 CB        -8.6918  -22.3365  -50.4045 C.3       18 UNK        -0.1800 
    102 C         -6.9428  -22.6731  -52.1938 C.2       18 UNK         0.5000 
    103 O         -7.2982  -22.3523  -53.3279 O.2       18 UNK        -0.5000 
    104 N         -6.1543  -23.7281  -51.9352 N.am      19 UNK        -0.5000 
    105 CA        -5.5978  -24.5959  -52.9783 C.3       19 UNK         0.1400 
    106 CB        -5.2125  -25.9557  -52.3768 C.3       19 UNK        -0.1800 
    107 C         -4.3926  -23.9453  -53.6826 C.2       19 UNK         0.5000 
    108 O         -4.1611  -24.2084  -54.8628 O.2       19 UNK        -0.5000 
    109 N         -3.6679  -23.0847  -52.9539 N.am      20 UNK        -0.5000 
    110 CA        -2.5787  -22.2561  -53.4755 C.3       20 UNK         0.1400 
    111 CB        -1.6642  -21.8546  -52.3052 C.3       20 UNK        -0.1800 
    112 C         -3.0842  -20.9955  -54.2078 C.2       20 UNK         0.5000 
    113 O         -2.2940  -20.3337  -54.8825 O.2       20 UNK        -0.5000 
    114 N         -4.3662  -20.6501  -54.0058 N.am      21 UNK        -0.5000 
    115 CA        -5.0653  -19.4349  -54.4455 C.3       21 UNK         0.1400 
    116 CB        -5.2422  -19.4446  -55.9772 C.3       21 UNK        -0.1800 
    117 C         -4.4151  -18.1290  -53.9307 C.2       21 UNK         0.5000 
    118 O         -4.5885  -17.0733  -54.5421 O.2       21 UNK        -0.5000 
    119 N         -3.6536  -18.2357  -52.8321 N.am      22 UNK        -0.5000 
    120 CA        -2.7264  -17.2214  -52.3061 C.3       22 UNK         0.1400 
    121 C         -1.6465  -16.7513  -53.3384 C.2       22 UNK         0.5000 
    122 N         -1.2133  -17.6074  -54.2590 N.am      22 UNK        -0.7600 
    123 O         -1.1947  -15.6102  -53.3257 O.2       22 UNK        -0.5000 
    124 C124       -3.4833  -16.0809  -51.5674 C.3       23 UNK        -0.0398 
    125 S125       -2.5200  -15.0575  -50.3893 S.3       23 UNK        -0.2404 
    126 C126       -1.7095  -16.2477  -49.2610 C.3       23 UNK        -0.0205 
    127 H127        7.5007   -9.9708  -50.3907 H         1 UNK         0.0600 
    128 H128        7.0971  -11.3193  -51.4571 H         1 UNK         0.0600 
    129 H129        8.3202  -11.5247  -50.2002 H         1 UNK         0.0600 
    130 H130        5.1470  -12.2530  -50.9228 H         1 UNK         0.3000 
    131 H131        4.4641  -13.1404  -48.2894 H         1 UNK         0.0600 
    132 H132        2.7596  -12.9519  -50.8289 H         1 UNK         0.0800 
    133 H133        2.2629  -13.7656  -49.3688 H         1 UNK         0.0800 
    134 H134        3.2572  -16.2671  -52.4175 H         1 UNK         0.0800 
    135 H135        2.2316  -14.8796  -52.1906 H         1 UNK         0.0800 
    136 H136        0.3745  -14.9551  -50.4924 H         1 UNK         0.1150 
    137 H137       -0.9123  -18.8535  -49.2647 H         1 UNK         0.1150 
    138 H138        2.8387  -18.3728  -51.2678 H         1 UNK         0.1150 
    139 H139        0.2729  -20.8148  -50.2560 H         1 UNK         0.0800 
    140 H140        1.7844  -20.5860  -51.0880 H         1 UNK         0.0800 
    141 H141        1.1128  -20.5774  -46.5709 H         1 UNK         0.0800 
    142 H142       -0.0667  -20.4384  -47.8475 H         1 UNK         0.0800 
    143 H143        0.2113  -22.8938  -48.3392 H         1 UNK         0.0600 
    144 H144        2.1628  -22.7984  -46.1635 H         1 UNK         0.3000 
    145 H145        2.4861  -26.3344  -45.9805 H         1 UNK         0.0600 
    146 H146        4.8520  -25.9351  -46.6054 H         1 UNK         0.0600 
    147 H147        3.8324  -25.8635  -48.0336 H         1 UNK         0.0600 
    148 H148        4.4312  -24.3742  -47.3128 H         1 UNK         0.0600 
    149 H149        4.0704  -24.2713  -44.8550 H         1 UNK         0.3000 
    150 H150        2.6688  -24.4325  -41.7851 H         1 UNK         0.0600 
    151 H151        4.9453  -24.3656  -42.8125 H         1 UNK         0.0600 
    152 H152        4.6768  -22.9899  -41.7615 H         1 UNK         0.0600 
    153 H153        4.6042  -22.7782  -43.5044 H         1 UNK         0.0600 
    154 H154        1.6950  -22.4665  -41.4603 H         1 UNK         0.3000 
    155 H155        0.3262  -20.6862  -42.0131 H         1 UNK         0.0600 
    156 H156        1.4920  -18.5019  -41.6189 H         1 UNK         0.0600 
    157 H157        2.8169  -19.0092  -42.6641 H         1 UNK         0.0600 
    158 H158        2.5134  -19.8524  -41.1487 H         1 UNK         0.0600 
    159 H159        1.0878  -19.3885  -44.5969 H         1 UNK         0.3000 
    160 H160       -0.9104  -19.1903  -46.0949 H         1 UNK         0.0600 
    161 H161       -3.1417  -17.7807  -44.5558 H         1 UNK         0.0600 
    162 H162       -3.2630  -19.3177  -45.4036 H         1 UNK         0.0600 
    163 H163       -2.9950  -17.8349  -46.3090 H         1 UNK         0.0600 
    164 H164       -1.1205  -16.4548  -45.1766 H         1 UNK         0.3000 
    165 H165        2.1645  -15.6474  -44.9516 H         1 UNK         0.0600 
    166 H166        1.0074  -15.2073  -47.7449 H         1 UNK         0.0600 
    167 H167        2.2589  -14.2271  -46.9834 H         1 UNK         0.0600 
    168 H168        2.5773  -15.9083  -47.3861 H         1 UNK         0.0600 
    169 H169       -0.1247  -14.1009  -45.8658 H         1 UNK         0.3000 
    170 H170       -1.7965  -13.9499  -42.8396 H         1 UNK         0.0600 
    171 H171       -0.0810  -12.4358  -41.9557 H         1 UNK         0.0600 
    172 H172        0.1760  -11.7153  -43.5346 H         1 UNK         0.0600 
    173 H173       -1.3560  -11.4783  -42.6930 H         1 UNK         0.0600 
    174 H174       -1.7859  -12.1797  -45.1102 H         1 UNK         0.3000 
    175 H175       -3.4557  -14.2746  -47.3659 H         1 UNK         0.0600 
    176 H176       -4.9706  -12.2256  -45.6622 H         1 UNK         0.0600 
    177 H177       -5.4500  -12.8111  -47.2566 H         1 UNK         0.0600 
    178 H178       -5.4386  -13.9072  -45.8852 H         1 UNK         0.0600 
    179 H179       -3.3488  -11.4690  -47.3971 H         1 UNK         0.3000 
    180 H180       -0.9856  -11.2255  -49.5395 H         1 UNK         0.0600 
    181 H181       -2.9737   -9.9831  -48.7541 H         1 UNK         0.0600 
    182 H182       -2.1616   -9.5476  -47.2496 H         1 UNK         0.0600 
    183 H183       -1.5898   -8.9110  -48.7859 H         1 UNK         0.0600 
    184 H184        1.0112  -10.6513  -48.7522 H         1 UNK         0.3000 
    185 H185        2.5129   -9.3519  -46.9634 H         1 UNK         0.0600 
    186 H186        2.1302   -9.5855  -44.5159 H         1 UNK         0.0600 
    187 H187        2.4037  -11.3218  -44.6191 H         1 UNK         0.0600 
    188 H188        3.7151  -10.1936  -44.9605 H         1 UNK         0.0600 
    189 H189        3.3336  -12.1309  -46.7103 H         1 UNK         0.3000 
    190 H190        0.1460  -23.0406  -44.8094 H         1 UNK         0.3000 
    191 H191       -2.7262  -22.5749  -44.5898 H         1 UNK         0.0600 
    192 H192       -2.4333  -23.4609  -42.2760 H         1 UNK         0.0600 
    193 H193       -1.3286  -22.1504  -42.6238 H         1 UNK         0.0600 
    194 H194       -0.7462  -23.8136  -42.6084 H         1 UNK         0.0600 
    195 H195       -0.5341  -25.3889  -44.7680 H         1 UNK         0.3000 
    196 H196       -2.4552  -27.4509  -44.6664 H         1 UNK         0.0600 
    197 H197       -0.6470  -28.8489  -45.6226 H         1 UNK         0.0600 
    198 H198        0.0068  -27.7790  -44.3908 H         1 UNK         0.0600 
    199 H199        0.2540  -27.4174  -46.0981 H         1 UNK         0.0600 
    200 H200       -1.5329  -25.3641  -47.3485 H         1 UNK         0.3000 
    201 H201       -2.9429  -26.8175  -49.4265 H         1 UNK         0.0600 
    202 H202       -0.9510  -25.3587  -49.8729 H         1 UNK         0.0600 
    203 H203       -1.8834  -23.9448  -49.3874 H         1 UNK         0.0600 
    204 H204       -2.3529  -24.8674  -50.8060 H         1 UNK         0.0600 
    205 H205       -4.6686  -26.6737  -47.3712 H         1 UNK         0.3000 
    206 H206       -6.7423  -26.2283  -46.7041 H         1 UNK         0.0600 
    207 H207       -7.2326  -27.0782  -48.9982 H         1 UNK         0.0600 
    208 H208       -8.4399  -25.9096  -48.4885 H         1 UNK         0.0600 
    209 H209       -7.1928  -25.4359  -49.6336 H         1 UNK         0.0600 
    210 H210       -5.1668  -24.2700  -45.8027 H         1 UNK         0.3000 
    211 H211       -4.9894  -22.1956  -45.0363 H         1 UNK         0.0600 
    212 H212       -7.9992  -21.9119  -45.5282 H         1 UNK         0.0600 
    213 H213       -7.0172  -20.9322  -44.4493 H         1 UNK         0.0600 
    214 H214       -7.2637  -22.6351  -44.0982 H         1 UNK         0.0600 
    215 H215       -4.1486  -22.5428  -47.5366 H         1 UNK         0.3000 
    216 H216       -3.3633  -21.6667  -49.3353 H         1 UNK         0.0600 
    217 H217       -4.3282  -18.9415  -48.3347 H         1 UNK         0.0600 
    218 H218       -3.1728  -19.2167  -49.6260 H         1 UNK         0.0600 
    219 H219       -2.7716  -19.6981  -47.9844 H         1 UNK         0.0600 
    220 H220       -6.5252  -22.2048  -49.0982 H         1 UNK         0.3000 
    221 H221       -7.5729  -20.7975  -51.3776 H         1 UNK         0.0600 
    222 H222       -8.5990  -23.3757  -50.0888 H         1 UNK         0.0600 
    223 H223       -9.0025  -21.7477  -49.5412 H         1 UNK         0.0600 
    224 H224       -9.4980  -22.2915  -51.1376 H         1 UNK         0.0600 
    225 H225       -5.8555  -23.9075  -50.9802 H         1 UNK         0.3000 
    226 H226       -6.3688  -24.7731  -53.7314 H         1 UNK         0.0600 
    227 H227       -6.0460  -26.4007  -51.8331 H         1 UNK         0.0600 
    228 H228       -4.9240  -26.6564  -53.1612 H         1 UNK         0.0600 
    229 H229       -4.3693  -25.8729  -51.6934 H         1 UNK         0.0600 
    230 H230       -3.9326  -22.9379  -51.9911 H         1 UNK         0.3000 
    231 H231       -1.9917  -22.8409  -54.1867 H         1 UNK         0.0600 
    232 H232       -1.2564  -22.7314  -51.8024 H         1 UNK         0.0600 
    233 H233       -0.8180  -21.2624  -52.6563 H         1 UNK         0.0600 
    234 H234       -2.1943  -21.2568  -51.5632 H         1 UNK         0.0600 
    235 H235       -4.9014  -21.2363  -53.3807 H         1 UNK         0.3000 
    236 H236       -6.0576  -19.4772  -53.9941 H         1 UNK         0.0600 
    237 H237       -5.7084  -20.3710  -56.3131 H         1 UNK         0.0600 
    238 H238       -5.8821  -18.6243  -56.3043 H         1 UNK         0.0600 
    239 H239       -4.2878  -19.3419  -56.4945 H         1 UNK         0.0600 
    240 H240       -3.6599  -19.1289  -52.3554 H         1 UNK         0.3000 
    241 H241       -2.1646  -17.7737  -51.5596 H         1 UNK         0.0600 
    242 H242       -1.6002  -18.5419  -54.3410 H         1 UNK         0.3800 
    243 H243       -0.5208  -17.2997  -54.9222 H         1 UNK         0.3800 
    244 H244       -4.3106  -16.5076  -50.9985 H         1 UNK         0.0800 
    245 H245       -3.9440  -15.4130  -52.2965 H         1 UNK         0.0800 
    246 H246       -2.4226  -17.0285  -48.9990 H         1 UNK         0.0800 
    247 H247       -1.4709  -15.7360  -48.3287 H         1 UNK         0.0800 
@<TRIPOS>BOND
     1    1    2 1    
     2    1  127 1    
     3    1  128 1    
     4    1  129 1    
     5    2    3 2    
     6    2    4 am   BACKBONE|DICT|INTERRES
     7    4    5 1    
     8    4  130 1    
     9    5    6 1    
    10    5   65 1    
    11    5  131 1    
    12    6    7 1    
    13    6  132 1    
    14    6  133 1    
    15    7    8 1    
    16    8    9 1    
    17    8  134 1    
    18    8  135 1    
    19    9   10 ar   
    20    9   14 ar   
    21   10   11 ar   
    22   10  136 1    
    23   11   12 ar   
    24   11  126 1    
    25   12   13 ar   
    26   12  137 1    
    27   13   14 ar   
    28   13   15 1    
    29   14  138 1    
    30   15   16 1    
    31   15  139 1    
    32   15  140 1    
    33   16   17 1    
    34   17   18 1    
    35   17  141 1    
    36   17  142 1    
    37   18   19 1    
    38   18   67 1    
    39   18  143 1    
    40   19   20 am   BACKBONE|DICT|INTERRES
    41   19  144 1    
    42   20   21 2    
    43   20   22 1    
    44   22   23 1    
    45   22   24 1    
    46   22  145 1    
    47   23  146 1    
    48   23  147 1    
    49   23  148 1    
    50   24   25 am   BACKBONE|DICT|INTERRES
    51   24  149 1    
    52   25   26 2    
    53   25   27 1    
    54   27   28 1    
    55   27   29 1    
    56   27  150 1    
    57   28  151 1    
    58   28  152 1    
    59   28  153 1    
    60   29   30 am   BACKBONE|DICT|INTERRES
    61   29  154 1    
    62   30   31 2    
    63   30   32 1    
    64   32   33 1    
    65   32   34 1    
    66   32  155 1    
    67   33  156 1    
    68   33  157 1    
    69   33  158 1    
    70   34   35 am   BACKBONE|DICT|INTERRES
    71   34  159 1    
    72   35   36 2    
    73   35   37 1    
    74   37   38 1    
    75   37   39 1    
    76   37  160 1    
    77   38  161 1    
    78   38  162 1    
    79   38  163 1    
    80   39   40 am   BACKBONE|DICT|INTERRES
    81   39  164 1    
    82   40   41 2    
    83   40   42 1    
    84   42   43 1    
    85   42   44 1    
    86   42  165 1    
    87   43  166 1    
    88   43  167 1    
    89   43  168 1    
    90   44   45 am   BACKBONE|DICT|INTERRES
    91   44  169 1    
    92   45   46 2    
    93   45   47 1    
    94   47   48 1    
    95   47   49 1    
    96   47  170 1    
    97   48  171 1    
    98   48  172 1    
    99   48  173 1    
   100   49   50 am   BACKBONE|DICT|INTERRES
   101   49  174 1    
   102   50   51 2    
   103   50   52 1    
   104   52   53 1    
   105   52   54 1    
   106   52  175 1    
   107   53  176 1    
   108   53  177 1    
   109   53  178 1    
   110   54   55 am   BACKBONE|DICT|INTERRES
   111   54  179 1    
   112   55   56 2    
   113   55   57 1    
   114   57   58 1    
   115   57   59 1    
   116   57  180 1    
   117   58  181 1    
   118   58  182 1    
   119   58  183 1    
   120   59   60 am   BACKBONE|DICT|INTERRES
   121   59  184 1    
   122   60   61 2    
   123   60   62 1    
   124   62   63 1    
   125   62   64 1    
   126   62  185 1    
   127   63  186 1    
   128   63  187 1    
   129   63  188 1    
   130   64   65 am   BACKBONE|DICT|INTERRES
   131   64  189 1    
   132   65   66 2    
   133   67   68 2    
   134   67   69 am   BACKBONE|DICT|INTERRES
   135   69   70 1    
   136   69  190 1    
   137   70   71 1    
   138   70   72 1    
   139   70  191 1    
   140   71  192 1    
   141   71  193 1    
   142   71  194 1    
   143   72   73 2    
   144   72   74 am   BACKBONE|DICT|INTERRES
   145   74   75 1    
   146   74  195 1    
   147   75   76 1    
   148   75   77 1    
   149   75  196 1    
   150   76  197 1    
   151   76  198 1    
   152   76  199 1    
   153   77   78 2    
   154   77   79 am   BACKBONE|DICT|INTERRES
   155   79   80 1    
   156   79  200 1    
   157   80   81 1    
   158   80   82 1    
   159   80  201 1    
   160   81  202 1    
   161   81  203 1    
   162   81  204 1    
   163   82   83 2    
   164   82   84 am   BACKBONE|DICT|INTERRES
   165   84   85 1    
   166   84  205 1    
   167   85   86 1    
   168   85   87 1    
   169   85  206 1    
   170   86  207 1    
   171   86  208 1    
   172   86  209 1    
   173   87   88 2    
   174   87   89 am   BACKBONE|DICT|INTERRES
   175   89   90 1    
   176   89  210 1    
   177   90   91 1    
   178   90   92 1    
   179   90  211 1    
   180   91  212 1    
   181   91  213 1    
   182   91  214 1    
   183   92   93 2    
   184   92   94 am   BACKBONE|DICT|INTERRES
   185   94   95 1    
   186   94  215 1    
   187   95   96 1    
   188   95   97 1    
   189   95  216 1    
   190   96  217 1    
   191   96  218 1    
   192   96  219 1    
   193   97   98 2    
   194   97   99 am   BACKBONE|DICT|INTERRES
   195   99  100 1    
   196   99  220 1    
   197  100  101 1    
   198  100  102 1    
   199  100  221 1    
   200  101  222 1    
   201  101  223 1    
   202  101  224 1    
   203  102  103 2    
   204  102  104 am   BACKBONE|DICT|INTERRES
   205  104  105 1    
   206  104  225 1    
   207  105  106 1    
   208  105  107 1    
   209  105  226 1    
   210  106  227 1    
   211  106  228 1    
   212  106  229 1    
   213  107  108 2    
   214  107  109 am   BACKBONE|DICT|INTERRES
   215  109  110 1    
   216  109  230 1    
   217  110  111 1    
   218  110  112 1    
   219  110  231 1    
   220  111  232 1    
   221  111  233 1    
   222  111  234 1    
   223  112  113 2    
   224  112  114 am   BACKBONE|DICT|INTERRES
   225  114  115 1    
   226  114  235 1    
   227  115  116 1    
   228  115  117 1    
   229  115  236 1    
   230  116  237 1    
   231  116  238 1    
   232  116  239 1    
   233  117  118 2    
   234  117  119 am   BACKBONE|DICT|INTERRES
   235  119  120 1    
   236  119  240 1    
   237  120  121 1    
   238  120  124 1    
   239  120  241 1    
   240  121  122 am   BACKBONE|DICT|INTERRES
   241  121  123 2    
   242  122  242 1    
   243  122  243 1    
   244  124  125 1    
   245  124  244 1    
   246  124  245 1    
   247  125  126 1    
   248  126  246 1    
   249  126  247 1    
@<TRIPOS>SUBSTRUCTURE
     1 UNK         1 GROUP             0       ****    0 ROOT    
