@<TRIPOS>MOLECULE
3R540
247   249    1
SMALL
USER_CHARGES


@<TRIPOS>ATOM
      1 CA         -3.5978  -16.3647  -44.5293 C.3       0 UNK        -0.1800 
      2 C          -2.6411  -15.3511  -45.1400 C.2       0 UNK         0.5000 
      3 O          -1.5668  -15.1308  -44.5867 O.2       0 UNK        -0.5000 
      4 N          -3.0344  -14.7507  -46.2725 N.am      1 UNK        -0.5000 
      5 CA         -2.3182  -13.7135  -47.0335 C.3       1 UNK         0.1400 
      6 C6         -0.8843  -14.1250  -47.4726 C.3       23 UNK        -0.0398 
      7 S7         -0.8766  -15.6015  -48.5446 S.3       23 UNK        -0.2404 
      8 C8          0.5927  -15.2633  -49.5613 C.3       23 UNK        -0.0205 
      9 C9          0.9155  -16.4401  -50.4668 C.ar      23 UNK        -0.0193 
     10 C10         0.4031  -16.4948  -51.7662 C.ar      23 UNK        -0.1150 
     11 C11         0.6880  -17.5846  -52.5933 C.ar      23 UNK        -0.0193 
     12 C12         1.5004  -18.6175  -52.1165 C.ar      23 UNK        -0.1150 
     13 C13         2.0125  -18.5787  -50.8154 C.ar      23 UNK        -0.0193 
     14 C14         1.7197  -17.4827  -49.9982 C.ar      23 UNK        -0.1150 
     15 C15         2.8566  -19.7273  -50.2702 C.3       23 UNK        -0.0205 
     16 S16         2.0861  -21.3682  -50.4958 S.3       23 UNK        -0.2404 
     17 C17         0.3947  -21.0952  -49.8690 C.3       23 UNK        -0.0398 
     18 CA         -0.0304  -22.1073  -48.7849 C.3       11 UNK         0.1400 
     19 N           0.8170  -22.0051  -47.5966 N.am      11 UNK        -0.5000 
     20 C           0.7335  -22.7759  -46.5060 C.2       10 UNK         0.5000 
     21 O          -0.0198  -23.7447  -46.4174 O.2       10 UNK        -0.5000 
     22 CA          1.5871  -22.3577  -45.2906 C.3       10 UNK         0.1400 
     23 CB          2.8524  -23.2227  -45.2017 C.3       10 UNK        -0.1800 
     24 N           1.9759  -20.9407  -45.2615 N.am      10 UNK        -0.5000 
     25 C           1.1439  -19.8914  -45.3211 C.2       9 UNK         0.5000 
     26 O          -0.0724  -19.9954  -45.4868 O.2       9 UNK        -0.5000 
     27 CA          1.7890  -18.5035  -45.1671 C.3       9 UNK         0.1400 
     28 CB          0.8250  -17.3661  -45.5441 C.3       9 UNK        -0.1800 
     29 N           2.2351  -18.3064  -43.7920 N.am      9 UNK        -0.5000 
     30 C           3.3850  -18.7567  -43.2743 C.2       8 UNK         0.5000 
     31 O           4.2268  -19.3803  -43.9224 O.2       8 UNK        -0.5000 
     32 CA          3.6093  -18.4944  -41.7774 C.3       8 UNK         0.1400 
     33 CB          3.8838  -17.0041  -41.5155 C.3       8 UNK        -0.1800 
     34 N           2.4347  -18.9122  -41.0151 N.am      8 UNK        -0.5000 
     35 C           2.3109  -20.0854  -40.3792 C.2       7 UNK         0.5000 
     36 O           3.2167  -20.9147  -40.2866 O.2       7 UNK        -0.5000 
     37 CA          0.9394  -20.3932  -39.7421 C.3       7 UNK         0.1400 
     38 CB          0.9140  -19.9387  -38.2748 C.3       7 UNK        -0.1800 
     39 N          -0.1751  -19.7654  -40.4536 N.am      7 UNK        -0.5000 
     40 C          -0.5669  -20.0911  -41.6931 C.2       6 UNK         0.5000 
     41 O          -0.1060  -21.0440  -42.3194 O.2       6 UNK        -0.5000 
     42 CA         -1.6294  -19.1901  -42.3569 C.3       6 UNK         0.1400 
     43 CB         -2.9988  -19.8868  -42.3697 C.3       6 UNK        -0.1800 
     44 N          -1.7752  -17.8560  -41.7591 N.am      6 UNK        -0.5000 
     45 C          -0.8155  -16.9226  -41.7080 C.2       5 UNK         0.5000 
     46 O           0.3510  -17.1183  -42.0636 O.2       5 UNK        -0.5000 
     47 CA         -1.2081  -15.5628  -41.1177 C.3       5 UNK         0.1400 
     48 CB         -1.2056  -15.6075  -39.5808 C.3       5 UNK        -0.1800 
     49 N          -0.2358  -14.5808  -41.5780 N.am      5 UNK        -0.5000 
     50 C          -0.5025  -13.3171  -41.9144 C.2       4 UNK         0.5000 
     51 O          -1.5971  -12.7746  -41.7347 O.2       4 UNK        -0.5000 
     52 CA          0.6603  -12.5284  -42.5416 C.3       4 UNK         0.1400 
     53 CB          1.2784  -13.2532  -43.7551 C.3       4 UNK        -0.1800 
     54 N           0.1873  -11.2119  -42.9546 N.am      4 UNK        -0.5000 
     55 C           0.9340  -10.1075  -43.0565 C.2       3 UNK         0.5000 
     56 O           2.1323  -10.0696  -42.7694 O.2       3 UNK        -0.5000 
     57 CA          0.2152   -8.8372  -43.5678 C.3       3 UNK         0.1400 
     58 CB          1.1926   -7.7645  -44.0934 C.3       3 UNK        -0.1800 
     59 N          -0.8297   -9.1141  -44.5644 N.am      3 UNK        -0.5000 
     60 C          -0.6739   -9.7270  -45.7472 C.2       2 UNK         0.5000 
     61 O           0.4035  -10.1373  -46.1852 O.2       2 UNK        -0.5000 
     62 CA         -1.9470   -9.9065  -46.5935 C.3       2 UNK         0.1400 
     63 CB         -1.9518   -8.9345  -47.7836 C.3       2 UNK        -0.1800 
     64 N          -2.0560  -11.2779  -47.0906 N.am      2 UNK        -0.5000 
     65 C          -2.3240  -12.3401  -46.3192 C.2       1 UNK         0.5000 
     66 O          -2.5893  -12.2418  -45.1186 O.2       1 UNK        -0.5000 
     67 C          -1.5336  -21.9177  -48.4769 C.2       11 UNK         0.5000 
     68 O          -2.3688  -22.5267  -49.1480 O.2       11 UNK        -0.5000 
     69 N          -1.8531  -21.0779  -47.4804 N.am      12 UNK        -0.5000 
     70 CA         -3.2172  -20.8416  -47.0121 C.3       12 UNK         0.1400 
     71 CB         -3.2814  -19.5037  -46.2631 C.3       12 UNK        -0.1800 
     72 C          -3.7172  -21.9929  -46.1236 C.2       12 UNK         0.5000 
     73 O          -4.8930  -22.3475  -46.1994 O.2       12 UNK        -0.5000 
     74 N          -2.8114  -22.5800  -45.3264 N.am      13 UNK        -0.5000 
     75 CA         -3.0819  -23.7505  -44.4874 C.3       13 UNK         0.1400 
     76 CB         -1.9341  -23.9528  -43.4874 C.3       13 UNK        -0.1800 
     77 C          -3.3232  -25.0287  -45.3127 C.2       13 UNK         0.5000 
     78 O          -4.1159  -25.8761  -44.8995 O.2       13 UNK        -0.5000 
     79 N          -2.6848  -25.1247  -46.4877 N.am      14 UNK        -0.5000 
     80 CA         -2.8537  -26.1782  -47.4935 C.3       14 UNK         0.1400 
     81 CB         -1.6367  -26.1492  -48.4357 C.3       14 UNK        -0.1800 
     82 C          -4.1945  -26.0643  -48.2578 C.2       14 UNK         0.5000 
     83 O          -4.2086  -26.0130  -49.4902 O.2       14 UNK        -0.5000 
     84 N          -5.3012  -25.9799  -47.5032 N.am      15 UNK        -0.5000 
     85 CA         -6.7022  -25.8567  -47.9346 C.3       15 UNK         0.1400 
     86 CB         -7.1594  -27.1669  -48.6083 C.3       15 UNK        -0.1800 
     87 C          -6.9957  -24.6229  -48.8192 C.2       15 UNK         0.5000 
     88 O          -8.0124  -24.5988  -49.5139 O.2       15 UNK        -0.5000 
     89 N          -6.0768  -23.6459  -48.8114 N.am      16 UNK        -0.5000 
     90 CA         -5.9723  -22.4889  -49.7053 C.3       16 UNK         0.1400 
     91 CB         -7.1398  -21.5083  -49.4815 C.3       16 UNK        -0.1800 
     92 C          -5.7816  -22.8500  -51.1960 C.2       16 UNK         0.5000 
     93 O          -5.8614  -21.9614  -52.0440 O.2       16 UNK        -0.5000 
     94 N          -5.5009  -24.1243  -51.5057 N.am      17 UNK        -0.5000 
     95 CA         -5.3222  -24.6246  -52.8680 C.3       17 UNK         0.1400 
     96 CB         -5.3872  -26.1591  -52.8626 C.3       17 UNK        -0.1800 
     97 C          -4.0037  -24.1281  -53.4761 C.2       17 UNK         0.5000 
     98 O          -3.9864  -23.6604  -54.6150 O.2       17 UNK        -0.5000 
     99 N          -2.9328  -24.1805  -52.6738 N.am      18 UNK        -0.5000 
    100 CA        -1.6224  -23.6391  -53.0241 C.3       18 UNK         0.1400 
    101 CB        -0.5797  -24.1453  -52.0205 C.3       18 UNK        -0.1800 
    102 C         -1.6268  -22.1021  -53.1007 C.2       18 UNK         0.5000 
    103 O         -0.9315  -21.5444  -53.9476 O.2       18 UNK        -0.5000 
    104 N         -2.4310  -21.4480  -52.2480 N.am      19 UNK        -0.5000 
    105 CA        -2.6310  -19.9966  -52.2559 C.3       19 UNK         0.1400 
    106 CB        -3.3502  -19.5553  -50.9722 C.3       19 UNK        -0.1800 
    107 C         -3.3886  -19.5113  -53.5062 C.2       19 UNK         0.5000 
    108 O         -3.0754  -18.4413  -54.0267 O.2       19 UNK        -0.5000 
    109 N         -4.3552  -20.3097  -53.9783 N.am      20 UNK        -0.5000 
    110 CA        -5.0879  -20.0658  -55.2189 C.3       20 UNK         0.1400 
    111 CB        -6.3438  -20.9503  -55.2562 C.3       20 UNK        -0.1800 
    112 C         -4.2158  -20.2956  -56.4670 C.2       20 UNK         0.5000 
    113 O         -4.2673  -19.4891  -57.3965 O.2       20 UNK        -0.5000 
    114 N         -3.4392  -21.3886  -56.4690 N.am      21 UNK        -0.5000 
    115 CA        -2.5638  -21.7778  -57.5747 C.3       21 UNK         0.1400 
    116 CB        -2.1404  -23.2449  -57.3971 C.3       21 UNK        -0.1800 
    117 C         -1.3323  -20.8644  -57.7159 C.2       21 UNK         0.5000 
    118 O         -1.0792  -20.3451  -58.8035 O.2       21 UNK        -0.5000 
    119 N         -0.5898  -20.6960  -56.6146 N.am      22 UNK        -0.5000 
    120 CA         0.6579  -19.9222  -56.5057 C.3       22 UNK         0.1400 
    121 C          1.8566  -20.4475  -57.3568 C.2       22 UNK         0.5000 
    122 N          1.8504  -21.7000  -57.7974 N.am      22 UNK        -0.7600 
    123 O          2.8208  -19.7276  -57.6020 O.2       22 UNK        -0.5000 
    124 C124        0.4186  -18.3871  -56.6293 C.3       23 UNK        -0.0398 
    125 S125        1.2800  -17.4636  -55.3107 S.3       23 UNK        -0.2404 
    126 C126        0.0664  -17.6870  -53.9758 C.3       23 UNK        -0.0205 
    127 H127       -3.9762  -15.9955  -43.5763 H         1 UNK         0.0600 
    128 H128       -3.0749  -17.3024  -44.3481 H         1 UNK         0.0600 
    129 H129       -4.4472  -16.5692  -45.1813 H         1 UNK         0.0600 
    130 H130       -3.9428  -14.9857  -46.6452 H         1 UNK         0.3000 
    131 H131       -2.9082  -13.5751  -47.9411 H         1 UNK         0.0600 
    132 H132       -0.2424  -14.3178  -46.6132 H         1 UNK         0.0800 
    133 H133       -0.4083  -13.3093  -48.0190 H         1 UNK         0.0800 
    134 H134        1.4436  -15.0522  -48.9115 H         1 UNK         0.0800 
    135 H135        0.4259  -14.3645  -50.1571 H         1 UNK         0.0800 
    136 H136       -0.2335  -15.6981  -52.1249 H         1 UNK         0.1150 
    137 H137        1.7102  -19.4671  -52.7515 H         1 UNK         0.1150 
    138 H138        2.1042  -17.4438  -48.9886 H         1 UNK         0.1150 
    139 H139        3.8253  -19.7210  -50.7713 H         1 UNK         0.0800 
    140 H140        3.0591  -19.5856  -49.2076 H         1 UNK         0.0800 
    141 H141       -0.2651  -21.1522  -50.7315 H         1 UNK         0.0800 
    142 H142        0.2911  -20.0803  -49.4827 H         1 UNK         0.0800 
    143 H143        0.0989  -23.1177  -49.1735 H         1 UNK         0.0600 
    144 H144        1.4768  -21.2426  -47.5838 H         1 UNK         0.3000 
    145 H145        0.9839  -22.5426  -44.4000 H         1 UNK         0.0600 
    146 H146        3.4107  -23.0119  -44.2893 H         1 UNK         0.0600 
    147 H147        2.6011  -24.2842  -45.1893 H         1 UNK         0.0600 
    148 H148        3.5160  -23.0512  -46.0501 H         1 UNK         0.0600 
    149 H149        2.9530  -20.7472  -45.0768 H         1 UNK         0.3000 
    150 H150        2.6466  -18.4517  -45.8411 H         1 UNK         0.0600 
    151 H151        0.4791  -17.4732  -46.5725 H         1 UNK         0.0600 
    152 H152        1.3056  -16.3913  -45.4612 H         1 UNK         0.0600 
    153 H153       -0.0564  -17.3570  -44.9023 H         1 UNK         0.0600 
    154 H154        1.5753  -17.8330  -43.1787 H         1 UNK         0.3000 
    155 H155        4.4892  -19.0589  -41.4617 H         1 UNK         0.0600 
    156 H156        3.0404  -16.3756  -41.8034 H         1 UNK         0.0600 
    157 H157        4.7541  -16.6638  -42.0780 H         1 UNK         0.0600 
    158 H158        4.0881  -16.8236  -40.4601 H         1 UNK         0.0600 
    159 H159        1.6204  -18.3130  -41.0906 H         1 UNK         0.3000 
    160 H160        0.7954  -21.4754  -39.7696 H         1 UNK         0.0600 
    161 H161        1.0343  -18.8582  -38.1856 H         1 UNK         0.0600 
    162 H162        1.7195  -20.4067  -37.7073 H         1 UNK         0.0600 
    163 H163       -0.0241  -20.2139  -37.7924 H         1 UNK         0.0600 
    164 H164       -0.6182  -18.9784  -40.0041 H         1 UNK         0.3000 
    165 H165       -1.3152  -19.0420  -43.3904 H         1 UNK         0.0600 
    166 H166       -3.7390  -19.2991  -42.9127 H         1 UNK         0.0600 
    167 H167       -2.9385  -20.8583  -42.8614 H         1 UNK         0.0600 
    168 H168       -3.3746  -20.0521  -41.3594 H         1 UNK         0.0600 
    169 H169       -2.6949  -17.6257  -41.4118 H         1 UNK         0.3000 
    170 H170       -2.2042  -15.3046  -41.4835 H         1 UNK         0.0600 
    171 H171       -1.9295  -16.3321  -39.2062 H         1 UNK         0.0600 
    172 H172       -0.2265  -15.8852  -39.1881 H         1 UNK         0.0600 
    173 H173       -1.4711  -14.6377  -39.1597 H         1 UNK         0.0600 
    174 H174        0.6603  -14.9829  -41.8199 H         1 UNK         0.3000 
    175 H175        1.4211  -12.4119  -41.7672 H         1 UNK         0.0600 
    176 H176        2.1094  -12.6855  -44.1736 H         1 UNK         0.0600 
    177 H177        1.6658  -14.2369  -43.4884 H         1 UNK         0.0600 
    178 H178        0.5417  -13.3918  -44.5462 H         1 UNK         0.0600 
    179 H179       -0.8036  -11.1691  -43.1589 H         1 UNK         0.3000 
    180 H180       -0.2956   -8.4156  -42.7010 H         1 UNK         0.0600 
    181 H181        0.6591   -6.8751  -44.4288 H         1 UNK         0.0600 
    182 H182        1.7878   -8.1337  -44.9291 H         1 UNK         0.0600 
    183 H183        1.8858   -7.4492  -43.3127 H         1 UNK         0.0600 
    184 H184       -1.7617   -8.8280  -44.2975 H         1 UNK         0.3000 
    185 H185       -2.8227   -9.6935  -45.9762 H         1 UNK         0.0600 
    186 H186       -2.8679   -9.0286  -48.3670 H         1 UNK         0.0600 
    187 H187       -1.8893   -7.9005  -47.4419 H         1 UNK         0.0600 
    188 H188       -1.1077   -9.1105  -48.4519 H         1 UNK         0.0600 
    189 H189       -1.8363  -11.4145  -48.0664 H         1 UNK         0.3000 
    190 H190       -1.1139  -20.6333  -46.9410 H         1 UNK         0.3000 
    191 H191       -3.8776  -20.7661  -47.8768 H         1 UNK         0.0600 
    192 H192       -4.3035  -19.2763  -45.9580 H         1 UNK         0.0600 
    193 H193       -2.9364  -18.6812  -46.8903 H         1 UNK         0.0600 
    194 H194       -2.6674  -19.5179  -45.3637 H         1 UNK         0.0600 
    195 H195       -1.8609  -22.2393  -45.3408 H         1 UNK         0.3000 
    196 H196       -3.9921  -23.5515  -43.9177 H         1 UNK         0.0600 
    197 H197       -0.9866  -24.1501  -43.9878 H         1 UNK         0.0600 
    198 H198       -1.8033  -23.0767  -42.8535 H         1 UNK         0.0600 
    199 H199       -2.1369  -24.7988  -42.8296 H         1 UNK         0.0600 
    200 H200       -2.0035  -24.4075  -46.7074 H         1 UNK         0.3000 
    201 H201       -2.8579  -27.1433  -46.9833 H         1 UNK         0.0600 
    202 H202       -1.5760  -25.2072  -48.9808 H         1 UNK         0.0600 
    203 H203       -1.6878  -26.9532  -49.1709 H         1 UNK         0.0600 
    204 H204       -0.7058  -26.2742  -47.8822 H         1 UNK         0.0600 
    205 H205       -5.1564  -26.0008  -46.4969 H         1 UNK         0.3000 
    206 H206       -7.2906  -25.7241  -47.0258 H         1 UNK         0.0600 
    207 H207       -6.9599  -28.0284  -47.9711 H         1 UNK         0.0600 
    208 H208       -8.2317  -27.1555  -48.8067 H         1 UNK         0.0600 
    209 H209       -6.6523  -27.3291  -49.5601 H         1 UNK         0.0600 
    210 H210       -5.3028  -23.7577  -48.1707 H         1 UNK         0.3000 
    211 H211       -5.0559  -21.9775  -49.4159 H         1 UNK         0.0600 
    212 H212       -6.9844  -20.5812  -50.0344 H         1 UNK         0.0600 
    213 H213       -7.2338  -21.2441  -48.4281 H         1 UNK         0.0600 
    214 H214       -8.0908  -21.9279  -49.8102 H         1 UNK         0.0600 
    215 H215       -5.3706  -24.7919  -50.7537 H         1 UNK         0.3000 
    216 H216       -6.1412  -24.2492  -53.4853 H         1 UNK         0.0600 
    217 H217       -4.6006  -26.5961  -52.2460 H         1 UNK         0.0600 
    218 H218       -5.2749  -26.5578  -53.8716 H         1 UNK         0.0600 
    219 H219       -6.3451  -26.5100  -52.4780 H         1 UNK         0.0600 
    220 H220       -3.0405  -24.5689  -51.7470 H         1 UNK         0.3000 
    221 H221       -1.3482  -24.0140  -54.0123 H         1 UNK         0.0600 
    222 H222       -0.4413  -25.2229  -52.1094 H         1 UNK         0.0600 
    223 H223       -0.8861  -23.9358  -50.9985 H         1 UNK         0.0600 
    224 H224        0.3917  -23.6762  -52.1837 H         1 UNK         0.0600 
    225 H225       -2.9563  -21.9818  -51.5707 H         1 UNK         0.3000 
    226 H226       -1.6476  -19.5238  -52.2593 H         1 UNK         0.0600 
    227 H227       -4.3285  -20.0241  -50.8717 H         1 UNK         0.0600 
    228 H228       -2.7644  -19.7975  -50.0872 H         1 UNK         0.0600 
    229 H229       -3.5038  -18.4754  -50.9661 H         1 UNK         0.0600 
    230 H230       -4.6188  -21.1322  -53.4471 H         1 UNK         0.3000 
    231 H231       -5.4123  -19.0230  -55.2252 H         1 UNK         0.0600 
    232 H232       -6.0937  -22.0110  -55.2222 H         1 UNK         0.0600 
    233 H233       -6.9173  -20.7763  -56.1674 H         1 UNK         0.0600 
    234 H234       -7.0001  -20.7363  -54.4124 H         1 UNK         0.0600 
    235 H235       -3.5003  -22.0323  -55.6865 H         1 UNK         0.3000 
    236 H236       -3.1370  -21.7073  -58.5016 H         1 UNK         0.0600 
    237 H237       -3.0079  -23.9052  -57.3912 H         1 UNK         0.0600 
    238 H238       -1.4924  -23.5675  -58.2130 H         1 UNK         0.0600 
    239 H239       -1.5993  -23.4006  -56.4633 H         1 UNK         0.0600 
    240 H240       -0.8800  -21.1434  -55.7481 H         1 UNK         0.3000 
    241 H241        0.9768  -20.1311  -55.4842 H         1 UNK         0.0600 
    242 H242        2.6299  -22.0386  -58.3396 H         1 UNK         0.3800 
    243 H243        1.0764  -22.3115  -57.5952 H         1 UNK         0.3800 
    244 H244       -0.6447  -18.1507  -56.5607 H         1 UNK         0.0800 
    245 H245        0.7330  -18.0076  -57.6029 H         1 UNK         0.0800 
    246 H246       -0.7385  -16.9607  -54.0985 H         1 UNK         0.0800 
    247 H247       -0.3922  -18.6715  -54.0691 H         1 UNK         0.0800 
@<TRIPOS>BOND
     1    1    2 1    
     2    1  127 1    
     3    1  128 1    
     4    1  129 1    
     5    2    3 2    
     6    2    4 am   BACKBONE|DICT|INTERRES
     7    4    5 1    
     8    4  130 1    
     9    5    6 1    
    10    5   65 1    
    11    5  131 1    
    12    6    7 1    
    13    6  132 1    
    14    6  133 1    
    15    7    8 1    
    16    8    9 1    
    17    8  134 1    
    18    8  135 1    
    19    9   10 ar   
    20    9   14 ar   
    21   10   11 ar   
    22   10  136 1    
    23   11   12 ar   
    24   11  126 1    
    25   12   13 ar   
    26   12  137 1    
    27   13   14 ar   
    28   13   15 1    
    29   14  138 1    
    30   15   16 1    
    31   15  139 1    
    32   15  140 1    
    33   16   17 1    
    34   17   18 1    
    35   17  141 1    
    36   17  142 1    
    37   18   19 1    
    38   18   67 1    
    39   18  143 1    
    40   19   20 am   BACKBONE|DICT|INTERRES
    41   19  144 1    
    42   20   21 2    
    43   20   22 1    
    44   22   23 1    
    45   22   24 1    
    46   22  145 1    
    47   23  146 1    
    48   23  147 1    
    49   23  148 1    
    50   24   25 am   BACKBONE|DICT|INTERRES
    51   24  149 1    
    52   25   26 2    
    53   25   27 1    
    54   27   28 1    
    55   27   29 1    
    56   27  150 1    
    57   28  151 1    
    58   28  152 1    
    59   28  153 1    
    60   29   30 am   BACKBONE|DICT|INTERRES
    61   29  154 1    
    62   30   31 2    
    63   30   32 1    
    64   32   33 1    
    65   32   34 1    
    66   32  155 1    
    67   33  156 1    
    68   33  157 1    
    69   33  158 1    
    70   34   35 am   BACKBONE|DICT|INTERRES
    71   34  159 1    
    72   35   36 2    
    73   35   37 1    
    74   37   38 1    
    75   37   39 1    
    76   37  160 1    
    77   38  161 1    
    78   38  162 1    
    79   38  163 1    
    80   39   40 am   BACKBONE|DICT|INTERRES
    81   39  164 1    
    82   40   41 2    
    83   40   42 1    
    84   42   43 1    
    85   42   44 1    
    86   42  165 1    
    87   43  166 1    
    88   43  167 1    
    89   43  168 1    
    90   44   45 am   BACKBONE|DICT|INTERRES
    91   44  169 1    
    92   45   46 2    
    93   45   47 1    
    94   47   48 1    
    95   47   49 1    
    96   47  170 1    
    97   48  171 1    
    98   48  172 1    
    99   48  173 1    
   100   49   50 am   BACKBONE|DICT|INTERRES
   101   49  174 1    
   102   50   51 2    
   103   50   52 1    
   104   52   53 1    
   105   52   54 1    
   106   52  175 1    
   107   53  176 1    
   108   53  177 1    
   109   53  178 1    
   110   54   55 am   BACKBONE|DICT|INTERRES
   111   54  179 1    
   112   55   56 2    
   113   55   57 1    
   114   57   58 1    
   115   57   59 1    
   116   57  180 1    
   117   58  181 1    
   118   58  182 1    
   119   58  183 1    
   120   59   60 am   BACKBONE|DICT|INTERRES
   121   59  184 1    
   122   60   61 2    
   123   60   62 1    
   124   62   63 1    
   125   62   64 1    
   126   62  185 1    
   127   63  186 1    
   128   63  187 1    
   129   63  188 1    
   130   64   65 am   BACKBONE|DICT|INTERRES
   131   64  189 1    
   132   65   66 2    
   133   67   68 2    
   134   67   69 am   BACKBONE|DICT|INTERRES
   135   69   70 1    
   136   69  190 1    
   137   70   71 1    
   138   70   72 1    
   139   70  191 1    
   140   71  192 1    
   141   71  193 1    
   142   71  194 1    
   143   72   73 2    
   144   72   74 am   BACKBONE|DICT|INTERRES
   145   74   75 1    
   146   74  195 1    
   147   75   76 1    
   148   75   77 1    
   149   75  196 1    
   150   76  197 1    
   151   76  198 1    
   152   76  199 1    
   153   77   78 2    
   154   77   79 am   BACKBONE|DICT|INTERRES
   155   79   80 1    
   156   79  200 1    
   157   80   81 1    
   158   80   82 1    
   159   80  201 1    
   160   81  202 1    
   161   81  203 1    
   162   81  204 1    
   163   82   83 2    
   164   82   84 am   BACKBONE|DICT|INTERRES
   165   84   85 1    
   166   84  205 1    
   167   85   86 1    
   168   85   87 1    
   169   85  206 1    
   170   86  207 1    
   171   86  208 1    
   172   86  209 1    
   173   87   88 2    
   174   87   89 am   BACKBONE|DICT|INTERRES
   175   89   90 1    
   176   89  210 1    
   177   90   91 1    
   178   90   92 1    
   179   90  211 1    
   180   91  212 1    
   181   91  213 1    
   182   91  214 1    
   183   92   93 2    
   184   92   94 am   BACKBONE|DICT|INTERRES
   185   94   95 1    
   186   94  215 1    
   187   95   96 1    
   188   95   97 1    
   189   95  216 1    
   190   96  217 1    
   191   96  218 1    
   192   96  219 1    
   193   97   98 2    
   194   97   99 am   BACKBONE|DICT|INTERRES
   195   99  100 1    
   196   99  220 1    
   197  100  101 1    
   198  100  102 1    
   199  100  221 1    
   200  101  222 1    
   201  101  223 1    
   202  101  224 1    
   203  102  103 2    
   204  102  104 am   BACKBONE|DICT|INTERRES
   205  104  105 1    
   206  104  225 1    
   207  105  106 1    
   208  105  107 1    
   209  105  226 1    
   210  106  227 1    
   211  106  228 1    
   212  106  229 1    
   213  107  108 2    
   214  107  109 am   BACKBONE|DICT|INTERRES
   215  109  110 1    
   216  109  230 1    
   217  110  111 1    
   218  110  112 1    
   219  110  231 1    
   220  111  232 1    
   221  111  233 1    
   222  111  234 1    
   223  112  113 2    
   224  112  114 am   BACKBONE|DICT|INTERRES
   225  114  115 1    
   226  114  235 1    
   227  115  116 1    
   228  115  117 1    
   229  115  236 1    
   230  116  237 1    
   231  116  238 1    
   232  116  239 1    
   233  117  118 2    
   234  117  119 am   BACKBONE|DICT|INTERRES
   235  119  120 1    
   236  119  240 1    
   237  120  121 1    
   238  120  124 1    
   239  120  241 1    
   240  121  122 am   BACKBONE|DICT|INTERRES
   241  121  123 2    
   242  122  242 1    
   243  122  243 1    
   244  124  125 1    
   245  124  244 1    
   246  124  245 1    
   247  125  126 1    
   248  126  246 1    
   249  126  247 1    
@<TRIPOS>SUBSTRUCTURE
     1 UNK         1 GROUP             0       ****    0 ROOT    
