@<TRIPOS>MOLECULE
3R540
247   249    1
SMALL
USER_CHARGES


@<TRIPOS>ATOM
      1 CA          3.3719  -16.5635  -51.4440 C.3       0 UNK        -0.1800 
      2 C           3.4019  -16.2471  -49.9569 C.2       0 UNK         0.5000 
      3 O           4.4687  -16.2547  -49.3430 O.2       0 UNK        -0.5000 
      4 N           2.2294  -15.9618  -49.3800 N.am      1 UNK        -0.5000 
      5 CA          2.0490  -15.6278  -47.9634 C.3       1 UNK         0.1400 
      6 C6          0.5883  -15.8645  -47.5104 C.3       23 UNK        -0.0398 
      7 S7         -0.6522  -14.9061  -48.4560 S.3       23 UNK        -0.2404 
      8 C8         -1.8119  -16.1974  -49.0035 C.3       23 UNK        -0.0205 
      9 C9         -1.1858  -17.1820  -49.9813 C.ar      23 UNK        -0.0193 
     10 C10        -0.7998  -16.7572  -51.2563 C.ar      23 UNK        -0.1150 
     11 C11        -0.2419  -17.6574  -52.1694 C.ar      23 UNK        -0.0193 
     12 C12        -0.0835  -18.9958  -51.7966 C.ar      23 UNK        -0.1150 
     13 C13        -0.4909  -19.4409  -50.5366 C.ar      23 UNK        -0.0193 
     14 C14        -1.0256  -18.5252  -49.6258 C.ar      23 UNK        -0.1150 
     15 C15        -0.3822  -20.9185  -50.1880 C.3       23 UNK        -0.0205 
     16 S16         1.2512  -21.3324  -49.5042 S.3       23 UNK        -0.2404 
     17 C17         0.9743  -21.0633  -47.7218 C.3       23 UNK        -0.0398 
     18 CA          0.9916  -22.3736  -46.8962 C.3       11 UNK         0.1400 
     19 N           1.0903  -22.1018  -45.4618 N.am      11 UNK        -0.5000 
     20 C           1.3040  -23.0217  -44.5118 C.2       10 UNK         0.5000 
     21 O           1.4785  -24.2170  -44.7442 O.2       10 UNK        -0.5000 
     22 CA          1.2795  -22.5301  -43.0528 C.3       10 UNK         0.1400 
     23 CB          2.6151  -21.8728  -42.6754 C.3       10 UNK        -0.1800 
     24 N           0.1788  -21.6026  -42.7846 N.am      10 UNK        -0.5000 
     25 C          -1.1200  -21.9248  -42.8765 C.2       9 UNK         0.5000 
     26 O          -1.5273  -23.0485  -43.1695 O.2       9 UNK        -0.5000 
     27 CA         -2.1367  -20.7912  -42.6534 C.3       9 UNK         0.1400 
     28 CB         -2.3005  -20.4855  -41.1571 C.3       9 UNK        -0.1800 
     29 N          -1.7836  -19.5666  -43.3707 N.am      9 UNK        -0.5000 
     30 C          -1.6633  -19.4740  -44.7025 C.2       8 UNK         0.5000 
     31 O          -1.8631  -20.4060  -45.4810 O.2       8 UNK        -0.5000 
     32 CA         -1.1671  -18.1301  -45.2565 C.3       8 UNK         0.1400 
     33 CB         -2.2785  -17.0704  -45.2306 C.3       8 UNK        -0.1800 
     34 N           0.0088  -17.6359  -44.5406 N.am      8 UNK        -0.5000 
     35 C           1.1836  -18.2783  -44.4665 C.2       7 UNK         0.5000 
     36 O           1.4248  -19.3296  -45.0541 O.2       7 UNK        -0.5000 
     37 CA          2.2553  -17.6732  -43.5476 C.3       7 UNK         0.1400 
     38 CB          3.0317  -16.5684  -44.2726 C.3       7 UNK        -0.1800 
     39 N           1.6765  -17.1460  -42.3140 N.am      7 UNK        -0.5000 
     40 C           1.1604  -17.9094  -41.3405 C.2       6 UNK         0.5000 
     41 O           1.1499  -19.1404  -41.3663 O.2       6 UNK        -0.5000 
     42 CA          0.5061  -17.1644  -40.1639 C.3       6 UNK         0.1400 
     43 CB          1.5667  -16.7058  -39.1520 C.3       6 UNK        -0.1800 
     44 N          -0.2784  -16.0100  -40.6062 N.am      6 UNK        -0.5000 
     45 C          -1.4027  -16.0999  -41.3300 C.2       5 UNK         0.5000 
     46 O          -1.9083  -17.1677  -41.6760 O.2       5 UNK        -0.5000 
     47 CA         -2.0492  -14.7749  -41.7728 C.3       5 UNK         0.1400 
     48 CB         -2.9786  -14.2358  -40.6752 C.3       5 UNK        -0.1800 
     49 N          -1.0816  -13.7373  -42.1435 N.am      5 UNK        -0.5000 
     50 C          -0.2198  -13.8285  -43.1647 C.2       4 UNK         0.5000 
     51 O          -0.0820  -14.8401  -43.8554 O.2       4 UNK        -0.5000 
     52 CA          0.6383  -12.5880  -43.4601 C.3       4 UNK         0.1400 
     53 CB          2.1177  -12.8464  -43.1387 C.3       4 UNK        -0.1800 
     54 N           0.4978  -12.2125  -44.8660 N.am      4 UNK        -0.5000 
     55 C          -0.5261  -11.4900  -45.3449 C.2       3 UNK         0.5000 
     56 O          -1.4029  -11.0157  -44.6201 O.2       3 UNK        -0.5000 
     57 CA         -0.6257  -11.2735  -46.8725 C.3       3 UNK         0.1400 
     58 CB         -1.0530   -9.8359  -47.2358 C.3       3 UNK        -0.1800 
     59 N           0.5606  -11.6796  -47.6331 N.am      3 UNK        -0.5000 
     60 C           1.7893  -11.1391  -47.6197 C.2       2 UNK         0.5000 
     61 O           2.0961  -10.1427  -46.9637 O.2       2 UNK        -0.5000 
     62 CA          2.8535  -11.8648  -48.4787 C.3       2 UNK         0.1400 
     63 CB          4.2941  -11.6066  -47.9902 C.3       2 UNK        -0.1800 
     64 N           2.6002  -13.3082  -48.6087 N.am      2 UNK        -0.5000 
     65 C           2.5013  -14.1955  -47.6049 C.2       1 UNK         0.5000 
     66 O           2.6840  -13.9042  -46.4235 O.2       1 UNK        -0.5000 
     67 C          -0.2035  -23.2969  -47.2152 C.2       11 UNK         0.5000 
     68 O          -0.0155  -24.3107  -47.8865 O.2       11 UNK        -0.5000 
     69 N          -1.3888  -22.9683  -46.6792 N.am      12 UNK        -0.5000 
     70 CA         -2.6127  -23.7604  -46.8214 C.3       12 UNK         0.1400 
     71 CB         -3.7881  -22.9977  -46.1926 C.3       12 UNK        -0.1800 
     72 C          -2.5008  -25.1699  -46.2107 C.2       12 UNK         0.5000 
     73 O          -3.0145  -26.1253  -46.7922 O.2       12 UNK        -0.5000 
     74 N          -1.8194  -25.2799  -45.0613 N.am      13 UNK        -0.5000 
     75 CA         -1.5204  -26.5502  -44.4006 C.3       13 UNK         0.1400 
     76 CB         -0.9922  -26.2831  -42.9831 C.3       13 UNK        -0.1800 
     77 C          -0.5280  -27.4186  -45.1964 C.2       13 UNK         0.5000 
     78 O          -0.6598  -28.6433  -45.1864 O.2       13 UNK        -0.5000 
     79 N           0.4389  -26.7788  -45.8698 N.am      14 UNK        -0.5000 
     80 CA          1.4309  -27.4371  -46.7170 C.3       14 UNK         0.1400 
     81 CB          2.5808  -26.4695  -47.0386 C.3       14 UNK        -0.1800 
     82 C           0.8177  -28.0234  -48.0010 C.2       14 UNK         0.5000 
     83 O           1.0957  -29.1818  -48.3164 O.2       14 UNK        -0.5000 
     84 N          -0.0113  -27.2416  -48.7071 N.am      15 UNK        -0.5000 
     85 CA         -0.6927  -27.6687  -49.9285 C.3       15 UNK         0.1400 
     86 CB          0.3015  -27.7169  -51.1065 C.3       15 UNK        -0.1800 
     87 C          -1.8607  -26.7330  -50.2688 C.2       15 UNK         0.5000 
     88 O          -1.7696  -25.5274  -50.0357 O.2       15 UNK        -0.5000 
     89 N          -2.9008  -27.3078  -50.8904 N.am      16 UNK        -0.5000 
     90 CA         -4.0727  -26.6390  -51.4646 C.3       16 UNK         0.1400 
     91 CB         -3.6690  -25.8859  -52.7537 C.3       16 UNK        -0.1800 
     92 C          -4.8332  -25.7726  -50.4364 C.2       16 UNK         0.5000 
     93 O          -5.3658  -26.3163  -49.4676 O.2       16 UNK        -0.5000 
     94 N          -4.8864  -24.4592  -50.6720 N.am      17 UNK        -0.5000 
     95 CA         -5.4990  -23.4479  -49.8235 C.3       17 UNK         0.1400 
     96 CB         -7.0017  -23.3426  -50.1385 C.3       17 UNK        -0.1800 
     97 C          -4.7787  -22.1162  -50.0778 C.2       17 UNK         0.5000 
     98 O          -4.0766  -21.9786  -51.0842 O.2       17 UNK        -0.5000 
     99 N          -4.9637  -21.1598  -49.1633 N.am      18 UNK        -0.5000 
    100 CA        -4.4027  -19.8161  -49.2670 C.3       18 UNK         0.1400 
    101 CB        -4.3888  -19.1715  -47.8735 C.3       18 UNK        -0.1800 
    102 C         -5.1928  -18.9360  -50.2493 C.2       18 UNK         0.5000 
    103 O         -6.4163  -19.0669  -50.3356 O.2       18 UNK        -0.5000 
    104 N         -4.4760  -18.0185  -50.9144 N.am      19 UNK        -0.5000 
    105 CA        -4.9864  -17.0061  -51.8431 C.3       19 UNK         0.1400 
    106 CB        -5.7787  -15.9243  -51.0747 C.3       19 UNK        -0.1800 
    107 C         -5.7469  -17.6360  -53.0304 C.2       19 UNK         0.5000 
    108 O         -5.1888  -18.5138  -53.6922 O.2       19 UNK        -0.5000 
    109 N         -6.9780  -17.1722  -53.2971 N.am      20 UNK        -0.5000 
    110 CA        -7.8551  -17.5790  -54.4002 C.3       20 UNK         0.1400 
    111 CB        -8.3638  -19.0228  -54.1845 C.3       20 UNK        -0.1800 
    112 C         -7.1655  -17.3422  -55.7591 C.2       20 UNK         0.5000 
    113 O         -6.8709  -16.1906  -56.0858 O.2       20 UNK        -0.5000 
    114 N         -6.8580  -18.4197  -56.4940 N.am      21 UNK        -0.5000 
    115 CA        -6.0926  -18.4016  -57.7446 C.3       21 UNK         0.1400 
    116 CB        -6.0764  -19.8185  -58.3383 C.3       21 UNK        -0.1800 
    117 C         -4.6534  -17.8629  -57.5907 C.2       21 UNK         0.5000 
    118 O         -4.0855  -17.3768  -58.5695 O.2       21 UNK        -0.5000 
    119 N         -4.1020  -17.9349  -56.3716 N.am      22 UNK        -0.5000 
    120 CA        -2.8235  -17.3215  -55.9850 C.3       22 UNK         0.1400 
    121 C         -2.9132  -15.7874  -55.7148 C.2       22 UNK         0.5000 
    122 N         -4.0911  -15.1720  -55.6908 N.am      22 UNK        -0.7600 
    123 O         -1.8915  -15.1322  -55.5354 O.2       22 UNK        -0.5000 
    124 C124       -2.1862  -18.0850  -54.7913 C.3       23 UNK        -0.0398 
    125 S125       -0.3727  -18.2331  -54.9187 S.3       23 UNK        -0.2404 
    126 C126        0.1978  -17.1723  -53.5480 C.3       23 UNK        -0.0205 
    127 H127        2.6092  -15.9728  -51.9511 H         1 UNK         0.0600 
    128 H128        3.1553  -17.6205  -51.6005 H         1 UNK         0.0600 
    129 H129        4.3336  -16.3369  -51.9049 H         1 UNK         0.0600 
    130 H130        1.3812  -15.9911  -49.9291 H         1 UNK         0.3000 
    131 H131        2.6800  -16.3029  -47.3819 H         1 UNK         0.0600 
    132 H132        0.3692  -16.9272  -47.5977 H         1 UNK         0.0800 
    133 H133        0.4704  -15.6247  -46.4525 H         1 UNK         0.0800 
    134 H134       -2.2016  -16.7125  -48.1265 H         1 UNK         0.0800 
    135 H135       -2.6676  -15.7185  -49.4812 H         1 UNK         0.0800 
    136 H136       -0.9317  -15.7203  -51.5336 H         1 UNK         0.1150 
    137 H137        0.3432  -19.6998  -52.4971 H         1 UNK         0.1150 
    138 H138       -1.3373  -18.8649  -48.6487 H         1 UNK         0.1150 
    139 H139       -1.1720  -21.2142  -49.4955 H         1 UNK         0.0800 
    140 H140       -0.5425  -21.5156  -51.0872 H         1 UNK         0.0800 
    141 H141        1.7822  -20.4122  -47.3870 H         1 UNK         0.0800 
    142 H142        0.0539  -20.5046  -47.5499 H         1 UNK         0.0800 
    143 H143        1.8983  -22.9195  -47.1664 H         1 UNK         0.0600 
    144 H144        1.0079  -21.1259  -45.1860 H         1 UNK         0.3000 
    145 H145        1.1398  -23.4034  -42.4124 H         1 UNK         0.0600 
    146 H146        2.6321  -21.5921  -41.6221 H         1 UNK         0.0600 
    147 H147        3.4481  -22.5563  -42.8439 H         1 UNK         0.0600 
    148 H148        2.8028  -20.9744  -43.2635 H         1 UNK         0.0600 
    149 H149        0.4338  -20.6614  -42.5028 H         1 UNK         0.3000 
    150 H150       -3.1003  -21.1319  -43.0377 H         1 UNK         0.0600 
    151 H151       -2.5762  -21.3832  -40.6024 H         1 UNK         0.0600 
    152 H152       -3.0840  -19.7461  -40.9907 H         1 UNK         0.0600 
    153 H153       -1.3794  -20.0981  -40.7208 H         1 UNK         0.0600 
    154 H154       -1.6292  -18.7368  -42.8050 H         1 UNK         0.3000 
    155 H155       -0.8816  -18.2986  -46.2948 H         1 UNK         0.0600 
    156 H156       -1.9422  -16.1308  -45.6690 H         1 UNK         0.0600 
    157 H157       -2.6136  -16.8607  -44.2161 H         1 UNK         0.0600 
    158 H158       -3.1496  -17.4022  -45.7948 H         1 UNK         0.0600 
    159 H159       -0.0858  -16.7383  -44.0731 H         1 UNK         0.3000 
    160 H160        2.9599  -18.4641  -43.2823 H         1 UNK         0.0600 
    161 H161        2.3651  -15.7806  -44.6192 H         1 UNK         0.0600 
    162 H162        3.5511  -16.9662  -45.1449 H         1 UNK         0.0600 
    163 H163        3.7825  -16.1160  -43.6247 H         1 UNK         0.0600 
    164 H164        1.5977  -16.1431  -42.2394 H         1 UNK         0.3000 
    165 H165       -0.1670  -17.8622  -39.6610 H         1 UNK         0.0600 
    166 H166        2.2574  -15.9833  -39.5885 H         1 UNK         0.0600 
    167 H167        1.1046  -16.2439  -38.2793 H         1 UNK         0.0600 
    168 H168        2.1571  -17.5513  -38.7964 H         1 UNK         0.0600 
    169 H169        0.0696  -15.0943  -40.3636 H         1 UNK         0.3000 
    170 H170       -2.6572  -14.9865  -42.6545 H         1 UNK         0.0600 
    171 H171       -3.7234  -14.9815  -40.3934 H         1 UNK         0.0600 
    172 H172       -2.4260  -13.9668  -39.7742 H         1 UNK         0.0600 
    173 H173       -3.5190  -13.3520  -41.0148 H         1 UNK         0.0600 
    174 H174       -1.1345  -12.8716  -41.6261 H         1 UNK         0.3000 
    175 H175        0.3033  -11.7609  -42.8304 H         1 UNK         0.0600 
    176 H176        2.7171  -11.9523  -43.3105 H         1 UNK         0.0600 
    177 H177        2.2479  -13.1306  -42.0939 H         1 UNK         0.0600 
    178 H178        2.5340  -13.6447  -43.7508 H         1 UNK         0.0600 
    179 H179        1.1655  -12.6210  -45.5092 H         1 UNK         0.3000 
    180 H180       -1.4232  -11.9392  -47.2058 H         1 UNK         0.0600 
    181 H181       -1.1315   -9.7081  -48.3154 H         1 UNK         0.0600 
    182 H182       -2.0294   -9.5984  -46.8121 H         1 UNK         0.0600 
    183 H183       -0.3479   -9.0946  -46.8593 H         1 UNK         0.0600 
    184 H184        0.4337  -12.5096  -48.1963 H         1 UNK         0.3000 
    185 H185        2.7662  -11.4469  -49.4825 H         1 UNK         0.0600 
    186 H186        5.0204  -12.1312  -48.6109 H         1 UNK         0.0600 
    187 H187        4.5381  -10.5446  -48.0345 H         1 UNK         0.0600 
    188 H188        4.4374  -11.9313  -46.9592 H         1 UNK         0.0600 
    189 H189        2.4203  -13.6424  -49.5449 H         1 UNK         0.3000 
    190 H190       -1.4672  -22.1110  -46.1362 H         1 UNK         0.3000 
    191 H191       -2.8087  -23.8765  -47.8895 H         1 UNK         0.0600 
    192 H192       -4.7209  -23.5515  -46.3046 H         1 UNK         0.0600 
    193 H193       -3.9245  -22.0262  -46.6641 H         1 UNK         0.0600 
    194 H194       -3.6313  -22.8286  -45.1265 H         1 UNK         0.0600 
    195 H195       -1.4870  -24.4375  -44.6018 H         1 UNK         0.3000 
    196 H196       -2.4531  -27.1112  -44.3122 H         1 UNK         0.0600 
    197 H197       -0.7737  -27.2173  -42.4645 H         1 UNK         0.0600 
    198 H198       -1.7263  -25.7434  -42.3846 H         1 UNK         0.0600 
    199 H199       -0.0752  -25.6936  -42.9993 H         1 UNK         0.0600 
    200 H200        0.5082  -25.7707  -45.7873 H         1 UNK         0.3000 
    201 H201        1.8533  -28.2669  -46.1462 H         1 UNK         0.0600 
    202 H202        3.0601  -26.1111  -46.1275 H         1 UNK         0.0600 
    203 H203        2.2391  -25.6006  -47.5999 H         1 UNK         0.0600 
    204 H204        3.3477  -26.9630  -47.6366 H         1 UNK         0.0600 
    205 H205       -0.1981  -26.2863  -48.4080 H         1 UNK         0.3000 
    206 H206       -1.0992  -28.6688  -49.7631 H         1 UNK         0.0600 
    207 H207        1.0887  -28.4522  -50.9414 H         1 UNK         0.0600 
    208 H208       -0.2019  -27.9910  -52.0345 H         1 UNK         0.0600 
    209 H209        0.7765  -26.7479  -51.2651 H         1 UNK         0.0600 
    210 H210       -2.8845  -28.3107  -51.0108 H         1 UNK         0.3000 
    211 H211       -4.7649  -27.4303  -51.7558 H         1 UNK         0.0600 
    212 H212       -2.9471  -25.0917  -52.5586 H         1 UNK         0.0600 
    213 H213       -4.5373  -25.4381  -53.2388 H         1 UNK         0.0600 
    214 H214       -3.2182  -26.5670  -53.4755 H         1 UNK         0.0600 
    215 H215       -4.3633  -24.0725  -51.4485 H         1 UNK         0.3000 
    216 H216       -5.3588  -23.7211  -48.7758 H         1 UNK         0.0600 
    217 H217       -7.4831  -22.5881  -49.5153 H         1 UNK         0.0600 
    218 H218       -7.5121  -24.2880  -49.9536 H         1 UNK         0.0600 
    219 H219       -7.1738  -23.0671  -51.1798 H         1 UNK         0.0600 
    220 H220       -5.6016  -21.3212  -48.3982 H         1 UNK         0.3000 
    221 H221       -3.3761  -19.9006  -49.6234 H         1 UNK         0.0600 
    222 H222       -5.3823  -19.1604  -47.4238 H         1 UNK         0.0600 
    223 H223       -3.7202  -19.7045  -47.2003 H         1 UNK         0.0600 
    224 H224       -4.0455  -18.1389  -47.9232 H         1 UNK         0.0600 
    225 H225       -3.4719  -18.0287  -50.8054 H         1 UNK         0.3000 
    226 H226       -4.1104  -16.5202  -52.2750 H         1 UNK         0.0600 
    227 H227       -5.1761  -15.4992  -50.2720 H         1 UNK         0.0600 
    228 H228       -6.0597  -15.0986  -51.7296 H         1 UNK         0.0600 
    229 H229       -6.6890  -16.3225  -50.6248 H         1 UNK         0.0600 
    230 H230       -7.3382  -16.4345  -52.7088 H         1 UNK         0.3000 
    231 H231       -8.7207  -16.9155  -54.3760 H         1 UNK         0.0600 
    232 H232       -9.0608  -19.3165  -54.9704 H         1 UNK         0.0600 
    233 H233       -8.8977  -19.1056  -53.2376 H         1 UNK         0.0600 
    234 H234       -7.5538  -19.7527  -54.1647 H         1 UNK         0.0600 
    235 H235       -7.1074  -19.3292  -56.1332 H         1 UNK         0.3000 
    236 H236       -6.6131  -17.7430  -58.4428 H         1 UNK         0.0600 
    237 H237       -5.5878  -20.5284  -57.6697 H         1 UNK         0.0600 
    238 H238       -7.0873  -20.1780  -58.5312 H         1 UNK         0.0600 
    239 H239       -5.5394  -19.8386  -59.2876 H         1 UNK         0.0600 
    240 H240       -4.6453  -18.3265  -55.6085 H         1 UNK         0.3000 
    241 H241       -2.1577  -17.4283  -56.8434 H         1 UNK         0.0600 
    242 H242       -4.9580  -15.6664  -55.8711 H         1 UNK         0.3800 
    243 H243       -4.1167  -14.1781  -55.5276 H         1 UNK         0.3800 
    244 H244       -2.5624  -19.1085  -54.7539 H         1 UNK         0.0800 
    245 H245       -2.4726  -17.6450  -53.8353 H         1 UNK         0.0800 
    246 H246        1.2868  -17.1411  -53.5746 H         1 UNK         0.0800 
    247 H247       -0.1436  -16.1519  -53.7268 H         1 UNK         0.0800 
@<TRIPOS>BOND
     1    1    2 1    
     2    1  127 1    
     3    1  128 1    
     4    1  129 1    
     5    2    3 2    
     6    2    4 am   BACKBONE|DICT|INTERRES
     7    4    5 1    
     8    4  130 1    
     9    5    6 1    
    10    5   65 1    
    11    5  131 1    
    12    6    7 1    
    13    6  132 1    
    14    6  133 1    
    15    7    8 1    
    16    8    9 1    
    17    8  134 1    
    18    8  135 1    
    19    9   10 ar   
    20    9   14 ar   
    21   10   11 ar   
    22   10  136 1    
    23   11   12 ar   
    24   11  126 1    
    25   12   13 ar   
    26   12  137 1    
    27   13   14 ar   
    28   13   15 1    
    29   14  138 1    
    30   15   16 1    
    31   15  139 1    
    32   15  140 1    
    33   16   17 1    
    34   17   18 1    
    35   17  141 1    
    36   17  142 1    
    37   18   19 1    
    38   18   67 1    
    39   18  143 1    
    40   19   20 am   BACKBONE|DICT|INTERRES
    41   19  144 1    
    42   20   21 2    
    43   20   22 1    
    44   22   23 1    
    45   22   24 1    
    46   22  145 1    
    47   23  146 1    
    48   23  147 1    
    49   23  148 1    
    50   24   25 am   BACKBONE|DICT|INTERRES
    51   24  149 1    
    52   25   26 2    
    53   25   27 1    
    54   27   28 1    
    55   27   29 1    
    56   27  150 1    
    57   28  151 1    
    58   28  152 1    
    59   28  153 1    
    60   29   30 am   BACKBONE|DICT|INTERRES
    61   29  154 1    
    62   30   31 2    
    63   30   32 1    
    64   32   33 1    
    65   32   34 1    
    66   32  155 1    
    67   33  156 1    
    68   33  157 1    
    69   33  158 1    
    70   34   35 am   BACKBONE|DICT|INTERRES
    71   34  159 1    
    72   35   36 2    
    73   35   37 1    
    74   37   38 1    
    75   37   39 1    
    76   37  160 1    
    77   38  161 1    
    78   38  162 1    
    79   38  163 1    
    80   39   40 am   BACKBONE|DICT|INTERRES
    81   39  164 1    
    82   40   41 2    
    83   40   42 1    
    84   42   43 1    
    85   42   44 1    
    86   42  165 1    
    87   43  166 1    
    88   43  167 1    
    89   43  168 1    
    90   44   45 am   BACKBONE|DICT|INTERRES
    91   44  169 1    
    92   45   46 2    
    93   45   47 1    
    94   47   48 1    
    95   47   49 1    
    96   47  170 1    
    97   48  171 1    
    98   48  172 1    
    99   48  173 1    
   100   49   50 am   BACKBONE|DICT|INTERRES
   101   49  174 1    
   102   50   51 2    
   103   50   52 1    
   104   52   53 1    
   105   52   54 1    
   106   52  175 1    
   107   53  176 1    
   108   53  177 1    
   109   53  178 1    
   110   54   55 am   BACKBONE|DICT|INTERRES
   111   54  179 1    
   112   55   56 2    
   113   55   57 1    
   114   57   58 1    
   115   57   59 1    
   116   57  180 1    
   117   58  181 1    
   118   58  182 1    
   119   58  183 1    
   120   59   60 am   BACKBONE|DICT|INTERRES
   121   59  184 1    
   122   60   61 2    
   123   60   62 1    
   124   62   63 1    
   125   62   64 1    
   126   62  185 1    
   127   63  186 1    
   128   63  187 1    
   129   63  188 1    
   130   64   65 am   BACKBONE|DICT|INTERRES
   131   64  189 1    
   132   65   66 2    
   133   67   68 2    
   134   67   69 am   BACKBONE|DICT|INTERRES
   135   69   70 1    
   136   69  190 1    
   137   70   71 1    
   138   70   72 1    
   139   70  191 1    
   140   71  192 1    
   141   71  193 1    
   142   71  194 1    
   143   72   73 2    
   144   72   74 am   BACKBONE|DICT|INTERRES
   145   74   75 1    
   146   74  195 1    
   147   75   76 1    
   148   75   77 1    
   149   75  196 1    
   150   76  197 1    
   151   76  198 1    
   152   76  199 1    
   153   77   78 2    
   154   77   79 am   BACKBONE|DICT|INTERRES
   155   79   80 1    
   156   79  200 1    
   157   80   81 1    
   158   80   82 1    
   159   80  201 1    
   160   81  202 1    
   161   81  203 1    
   162   81  204 1    
   163   82   83 2    
   164   82   84 am   BACKBONE|DICT|INTERRES
   165   84   85 1    
   166   84  205 1    
   167   85   86 1    
   168   85   87 1    
   169   85  206 1    
   170   86  207 1    
   171   86  208 1    
   172   86  209 1    
   173   87   88 2    
   174   87   89 am   BACKBONE|DICT|INTERRES
   175   89   90 1    
   176   89  210 1    
   177   90   91 1    
   178   90   92 1    
   179   90  211 1    
   180   91  212 1    
   181   91  213 1    
   182   91  214 1    
   183   92   93 2    
   184   92   94 am   BACKBONE|DICT|INTERRES
   185   94   95 1    
   186   94  215 1    
   187   95   96 1    
   188   95   97 1    
   189   95  216 1    
   190   96  217 1    
   191   96  218 1    
   192   96  219 1    
   193   97   98 2    
   194   97   99 am   BACKBONE|DICT|INTERRES
   195   99  100 1    
   196   99  220 1    
   197  100  101 1    
   198  100  102 1    
   199  100  221 1    
   200  101  222 1    
   201  101  223 1    
   202  101  224 1    
   203  102  103 2    
   204  102  104 am   BACKBONE|DICT|INTERRES
   205  104  105 1    
   206  104  225 1    
   207  105  106 1    
   208  105  107 1    
   209  105  226 1    
   210  106  227 1    
   211  106  228 1    
   212  106  229 1    
   213  107  108 2    
   214  107  109 am   BACKBONE|DICT|INTERRES
   215  109  110 1    
   216  109  230 1    
   217  110  111 1    
   218  110  112 1    
   219  110  231 1    
   220  111  232 1    
   221  111  233 1    
   222  111  234 1    
   223  112  113 2    
   224  112  114 am   BACKBONE|DICT|INTERRES
   225  114  115 1    
   226  114  235 1    
   227  115  116 1    
   228  115  117 1    
   229  115  236 1    
   230  116  237 1    
   231  116  238 1    
   232  116  239 1    
   233  117  118 2    
   234  117  119 am   BACKBONE|DICT|INTERRES
   235  119  120 1    
   236  119  240 1    
   237  120  121 1    
   238  120  124 1    
   239  120  241 1    
   240  121  122 am   BACKBONE|DICT|INTERRES
   241  121  123 2    
   242  122  242 1    
   243  122  243 1    
   244  124  125 1    
   245  124  244 1    
   246  124  245 1    
   247  125  126 1    
   248  126  246 1    
   249  126  247 1    
@<TRIPOS>SUBSTRUCTURE
     1 UNK         1 GROUP             0       ****    0 ROOT    
