@<TRIPOS>MOLECULE
3R540
247   249    1
SMALL
USER_CHARGES


@<TRIPOS>ATOM
      1 CA         -3.4743  -18.9893  -47.3638 C.3       0 UNK        -0.1800 
      2 C          -3.4498  -17.7061  -48.1759 C.2       0 UNK         0.5000 
      3 O          -4.5062  -17.1733  -48.5161 O.2       0 UNK        -0.5000 
      4 N          -2.2457  -17.2155  -48.4872 N.am      1 UNK        -0.5000 
      5 CA         -2.0132  -15.9648  -49.2085 C.3       1 UNK         0.1400 
      6 C6         -0.5650  -15.8653  -49.7459 C.3       23 UNK        -0.0398 
      7 S7          0.7410  -16.1312  -48.4885 S.3       23 UNK        -0.2404 
      8 C8          2.2153  -16.5046  -49.4956 C.3       23 UNK        -0.0205 
      9 C9          2.0365  -17.7686  -50.3223 C.ar      23 UNK        -0.0193 
     10 C10         1.5959  -17.6713  -51.6440 C.ar      23 UNK        -0.1150 
     11 C11         1.3017  -18.8178  -52.3836 C.ar      23 UNK        -0.0193 
     12 C12         1.5446  -20.0737  -51.8224 C.ar      23 UNK        -0.1150 
     13 C13         2.0403  -20.1860  -50.5194 C.ar      23 UNK        -0.0193 
     14 C14         2.2706  -19.0302  -49.7654 C.ar      23 UNK        -0.1150 
     15 C15         2.3125  -21.5633  -49.9378 C.3       23 UNK        -0.0205 
     16 S16         0.7673  -22.4004  -49.4733 S.3       23 UNK        -0.2404 
     17 C17         0.4586  -21.7679  -47.7933 C.3       23 UNK        -0.0398 
     18 CA          0.1089  -22.9209  -46.8192 C.3       11 UNK         0.1400 
     19 N           0.6125  -22.6760  -45.4646 N.am      11 UNK        -0.5000 
     20 C           0.6623  -23.6022  -44.4967 C.2       10 UNK         0.5000 
     21 O           0.3026  -24.7691  -44.6516 O.2       10 UNK        -0.5000 
     22 CA          1.1525  -23.1393  -43.1122 C.3       10 UNK         0.1400 
     23 CB          2.6857  -23.0628  -43.0702 C.3       10 UNK        -0.1800 
     24 N           0.5823  -21.8506  -42.7187 N.am      10 UNK        -0.5000 
     25 C          -0.7241  -21.6357  -42.5082 C.2       9 UNK         0.5000 
     26 O          -1.5769  -22.5218  -42.5576 O.2       9 UNK        -0.5000 
     27 CA         -1.1599  -20.1792  -42.2628 C.3       9 UNK         0.1400 
     28 CB         -0.9259  -19.7709  -40.8012 C.3       9 UNK        -0.1800 
     29 N          -0.4873  -19.2314  -43.1521 N.am      9 UNK        -0.5000 
     30 C          -0.5780  -19.2435  -44.4897 C.2       8 UNK         0.5000 
     31 O          -1.2653  -20.0393  -45.1257 O.2       8 UNK        -0.5000 
     32 CA          0.2924  -18.2297  -45.2455 C.3       8 UNK         0.1400 
     33 CB         -0.3529  -16.8359  -45.2052 C.3       8 UNK        -0.1800 
     34 N           1.6474  -18.1795  -44.6950 N.am      8 UNK        -0.5000 
     35 C           2.5344  -19.1823  -44.7834 C.2       7 UNK         0.5000 
     36 O           2.3137  -20.2370  -45.3763 O.2       7 UNK        -0.5000 
     37 CA          3.8757  -18.9963  -44.0507 C.3       7 UNK         0.1400 
     38 CB          4.8592  -18.2035  -44.9245 C.3       7 UNK        -0.1800 
     39 N           3.7233  -18.3249  -42.7599 N.am      7 UNK        -0.5000 
     40 C           3.0683  -18.8346  -41.7059 C.2       6 UNK         0.5000 
     41 O           2.5867  -19.9668  -41.6835 O.2       6 UNK        -0.5000 
     42 CA          2.8610  -17.8917  -40.5019 C.3       6 UNK         0.1400 
     43 CB          4.0396  -17.9971  -39.5232 C.3       6 UNK        -0.1800 
     44 N           2.6795  -16.4899  -40.8993 N.am      6 UNK        -0.5000 
     45 C           1.6881  -16.0544  -41.6889 C.2       5 UNK         0.5000 
     46 O           0.7843  -16.7889  -42.0946 O.2       5 UNK        -0.5000 
     47 CA          1.7781  -14.5895  -42.1613 C.3       5 UNK         0.1400 
     48 CB          3.0554  -14.3606  -42.9897 C.3       5 UNK        -0.1800 
     49 N           0.6377  -14.2114  -42.9935 N.am      5 UNK        -0.5000 
     50 C          -0.5860  -13.8994  -42.5503 C.2       4 UNK         0.5000 
     51 O          -0.8850  -13.8581  -41.3552 O.2       4 UNK        -0.5000 
     52 CA         -1.6490  -13.5827  -43.6300 C.3       4 UNK         0.1400 
     53 CB         -2.7442  -12.6236  -43.1200 C.3       4 UNK        -0.1800 
     54 N          -1.0998  -13.0963  -44.9050 N.am      4 UNK        -0.5000 
     55 C          -0.3532  -11.9946  -45.1005 C.2       3 UNK         0.5000 
     56 O           0.0297  -11.2505  -44.1972 O.2       3 UNK        -0.5000 
     57 CA          0.0323  -11.6607  -46.5566 C.3       3 UNK         0.1400 
     58 CB          1.3782  -12.3123  -46.9116 C.3       3 UNK        -0.1800 
     59 N          -0.9706  -12.0843  -47.5340 N.am      3 UNK        -0.5000 
     60 C          -2.2319  -11.6340  -47.5973 C.2       2 UNK         0.5000 
     61 O          -2.6568  -10.7056  -46.9085 O.2       2 UNK        -0.5000 
     62 CA         -3.1923  -12.3415  -48.5781 C.3       2 UNK         0.1400 
     63 CB         -3.5109  -11.4226  -49.7686 C.3       2 UNK        -0.1800 
     64 N          -2.7318  -13.6341  -49.0992 N.am      2 UNK        -0.5000 
     65 C          -2.4133  -14.7220  -48.3845 C.2       1 UNK         0.5000 
     66 O          -2.3912  -14.7503  -47.1503 O.2       1 UNK        -0.5000 
     67 C          -1.4010  -23.2508  -46.8357 C.2       11 UNK         0.5000 
     68 O          -1.8242  -24.1236  -47.5965 O.2       11 UNK        -0.5000 
     69 N          -2.1773  -22.5803  -45.9714 N.am      12 UNK        -0.5000 
     70 CA         -3.5956  -22.8471  -45.7327 C.3       12 UNK         0.1400 
     71 CB         -4.2011  -21.7399  -44.8574 C.3       12 UNK        -0.1800 
     72 C          -3.8318  -24.2214  -45.0859 C.2       12 UNK         0.5000 
     73 O          -4.7187  -24.9488  -45.5306 O.2       12 UNK        -0.5000 
     74 N          -3.0186  -24.5682  -44.0771 N.am      13 UNK        -0.5000 
     75 CA         -3.0491  -25.8619  -43.3882 C.3       13 UNK         0.1400 
     76 CB         -2.1192  -25.8184  -42.1664 C.3       13 UNK        -0.1800 
     77 C          -2.6859  -27.0398  -44.3121 C.2       13 UNK         0.5000 
     78 O          -3.3009  -28.1024  -44.2161 O.2       13 UNK        -0.5000 
     79 N          -1.7250  -26.8143  -45.2179 N.am      14 UNK        -0.5000 
     80 CA         -1.3470  -27.7401  -46.2872 C.3       14 UNK         0.1400 
     81 CB          0.0200  -27.3125  -46.8452 C.3       14 UNK        -0.1800 
     82 C          -2.3837  -27.8157  -47.4282 C.2       14 UNK         0.5000 
     83 O          -2.3317  -28.7570  -48.2207 O.2       14 UNK        -0.5000 
     84 N          -3.2777  -26.8169  -47.5061 N.am      15 UNK        -0.5000 
     85 CA         -4.2680  -26.5671  -48.5600 C.3       15 UNK         0.1400 
     86 CB         -5.3537  -27.6627  -48.5645 C.3       15 UNK        -0.1800 
     87 C          -3.6150  -26.3498  -49.9423 C.2       15 UNK         0.5000 
     88 O          -4.1704  -26.7551  -50.9651 O.2       15 UNK        -0.5000 
     89 N          -2.4291  -25.7295  -49.9377 N.am      16 UNK        -0.5000 
     90 CA         -1.5544  -25.5862  -51.0994 C.3       16 UNK         0.1400 
     91 CB         -0.1165  -25.9010  -50.6555 C.3       16 UNK        -0.1800 
     92 C          -1.6364  -24.1934  -51.7485 C.2       16 UNK         0.5000 
     93 O          -1.1643  -24.0366  -52.8754 O.2       16 UNK        -0.5000 
     94 N          -2.2134  -23.2092  -51.0420 N.am      17 UNK        -0.5000 
     95 CA         -2.2992  -21.8161  -51.4907 C.3       17 UNK         0.1400 
     96 CB         -2.7463  -20.9242  -50.3217 C.3       17 UNK        -0.1800 
     97 C          -3.2319  -21.6327  -52.7003 C.2       17 UNK         0.5000 
     98 O          -2.8897  -20.9005  -53.6265 O.2       17 UNK        -0.5000 
     99 N          -4.3928  -22.3042  -52.6635 N.am      18 UNK        -0.5000 
    100 CA        -5.4700  -22.3462  -53.6661 C.3       18 UNK         0.1400 
    101 CB        -4.9586  -22.9091  -55.0063 C.3       18 UNK        -0.1800 
    102 C         -6.2416  -21.0241  -53.8817 C.2       18 UNK         0.5000 
    103 O         -7.4318  -21.0756  -54.1952 O.2       18 UNK        -0.5000 
    104 N         -5.5851  -19.8755  -53.6996 N.am      19 UNK        -0.5000 
    105 CA        -6.1439  -18.5321  -53.7981 C.3       19 UNK         0.1400 
    106 CB        -6.0831  -18.0553  -55.2608 C.3       19 UNK        -0.1800 
    107 C         -5.3571  -17.5917  -52.8732 C.2       19 UNK         0.5000 
    108 O         -4.2626  -17.9415  -52.4277 O.2       19 UNK        -0.5000 
    109 N         -5.9245  -16.4082  -52.6071 N.am      20 UNK        -0.5000 
    110 CA        -5.3003  -15.3746  -51.7775 C.3       20 UNK         0.1400 
    111 CB        -6.3740  -14.3836  -51.3043 C.3       20 UNK        -0.1800 
    112 C         -4.1608  -14.6323  -52.5021 C.2       20 UNK         0.5000 
    113 O         -3.2039  -14.2114  -51.8505 O.2       20 UNK        -0.5000 
    114 N         -4.2888  -14.4734  -53.8262 N.am      21 UNK        -0.5000 
    115 CA        -3.2774  -13.8500  -54.6781 C.3       21 UNK         0.1400 
    116 CB        -3.9531  -13.2292  -55.9130 C.3       21 UNK        -0.1800 
    117 C         -2.1938  -14.8674  -55.0729 C.2       21 UNK         0.5000 
    118 O         -1.0246  -14.6573  -54.7482 O.2       21 UNK        -0.5000 
    119 N         -2.6299  -15.9452  -55.7451 N.am      22 UNK        -0.5000 
    120 CA        -1.8408  -17.0803  -56.2629 C.3       22 UNK         0.1400 
    121 C         -0.5375  -16.7123  -57.0435 C.2       22 UNK         0.5000 
    122 N          0.4446  -17.6000  -57.1376 N.am      22 UNK        -0.7600 
    123 O         -0.4381  -15.6470  -57.6490 O.2       22 UNK        -0.5000 
    124 C124       -1.7247  -18.2566  -55.2477 C.3       23 UNK        -0.0398 
    125 S125       -0.9483  -17.8659  -53.6439 S.3       23 UNK        -0.2404 
    126 C126        0.6716  -18.6910  -53.7619 C.3       23 UNK        -0.0205 
    127 H127       -3.6369  -18.7491  -46.3136 H         1 UNK         0.0600 
    128 H128       -4.2797  -19.6419  -47.7009 H         1 UNK         0.0600 
    129 H129       -2.5368  -19.5383  -47.4503 H         1 UNK         0.0600 
    130 H130       -1.4115  -17.6778  -48.1585 H         1 UNK         0.3000 
    131 H131       -2.6693  -15.9964  -50.0783 H         1 UNK         0.0600 
    132 H132       -0.3914  -14.9112  -50.2466 H         1 UNK         0.0800 
    133 H133       -0.4703  -16.6206  -50.5223 H         1 UNK         0.0800 
    134 H134        3.0749  -16.6185  -48.8336 H         1 UNK         0.0800 
    135 H135        2.4369  -15.6527  -50.1403 H         1 UNK         0.0800 
    136 H136        1.4055  -16.6987  -52.0765 H         1 UNK         0.1150 
    137 H137        1.3289  -20.9688  -52.3891 H         1 UNK         0.1150 
    138 H138        2.6183  -19.1109  -48.7448 H         1 UNK         0.1150 
    139 H139        2.8225  -22.1699  -50.6875 H         1 UNK         0.0800 
    140 H140        2.9909  -21.5070  -49.0852 H         1 UNK         0.0800 
    141 H141        1.3635  -21.2609  -47.4643 H         1 UNK         0.0800 
    142 H142       -0.3133  -20.9971  -47.8173 H         1 UNK         0.0800 
    143 H143        0.6261  -23.8212  -47.1590 H         1 UNK         0.0600 
    144 H144        0.9647  -21.7442  -45.2710 H         1 UNK         0.3000 
    145 H145        0.8311  -23.8834  -42.3806 H         1 UNK         0.0600 
    146 H146        3.0394  -22.8064  -42.0714 H         1 UNK         0.0600 
    147 H147        3.1317  -24.0215  -43.3377 H         1 UNK         0.0600 
    148 H148        3.0726  -22.3154  -43.7629 H         1 UNK         0.0600 
    149 H149        1.2321  -21.0796  -42.5985 H         1 UNK         0.3000 
    150 H150       -2.2308  -20.1152  -42.4657 H         1 UNK         0.0600 
    151 H151       -1.4734  -20.4258  -40.1223 H         1 UNK         0.0600 
    152 H152       -1.2656  -18.7515  -40.6168 H         1 UNK         0.0600 
    153 H153        0.1281  -19.8262  -40.5300 H         1 UNK         0.0600 
    154 H154        0.0773  -18.5088  -42.7148 H         1 UNK         0.3000 
    155 H155        0.3640  -18.5450  -46.2888 H         1 UNK         0.0600 
    156 H156        0.3115  -16.0697  -45.6023 H         1 UNK         0.0600 
    157 H157       -0.6329  -16.5431  -44.1951 H         1 UNK         0.0600 
    158 H158       -1.2655  -16.8205  -45.8003 H         1 UNK         0.0600 
    159 H159        1.8732  -17.3786  -44.1256 H         1 UNK         0.3000 
    160 H160        4.2979  -19.9871  -43.8702 H         1 UNK         0.0600 
    161 H161        4.5022  -17.1915  -45.1196 H         1 UNK         0.0600 
    162 H162        5.0041  -18.6919  -45.8892 H         1 UNK         0.0600 
    163 H163        5.8374  -18.1292  -44.4491 H         1 UNK         0.0600 
    164 H164        4.0982  -17.3914  -42.6850 H         1 UNK         0.3000 
    165 H165        1.9554  -18.2120  -39.9831 H         1 UNK         0.0600 
    166 H166        4.9732  -17.6633  -39.9777 H         1 UNK         0.0600 
    167 H167        3.8660  -17.3959  -38.6305 H         1 UNK         0.0600 
    168 H168        4.1835  -19.0279  -39.1962 H         1 UNK         0.0600 
    169 H169        3.3891  -15.8393  -40.5943 H         1 UNK         0.3000 
    170 H170        1.8050  -13.9461  -41.2797 H         1 UNK         0.0600 
    171 H171        3.9546  -14.5409  -42.3999 H         1 UNK         0.0600 
    172 H172        3.0953  -15.0158  -43.8611 H         1 UNK         0.0600 
    173 H173        3.1119  -13.3315  -43.3458 H         1 UNK         0.0600 
    174 H174        0.7820  -14.2301  -43.9909 H         1 UNK         0.3000 
    175 H175       -2.1319  -14.5336  -43.8588 H         1 UNK         0.0600 
    176 H176       -3.4900  -12.4326  -43.8918 H         1 UNK         0.0600 
    177 H177       -3.2686  -13.0452  -42.2618 H         1 UNK         0.0600 
    178 H178       -2.3286  -11.6640  -42.8110 H         1 UNK         0.0600 
    179 H179       -1.3789  -13.6308  -45.7225 H         1 UNK         0.3000 
    180 H180        0.1403  -10.5768  -46.6328 H         1 UNK         0.0600 
    181 H181        1.7040  -12.0267  -47.9120 H         1 UNK         0.0600 
    182 H182        2.1587  -12.0016  -46.2156 H         1 UNK         0.0600 
    183 H183        1.3211  -13.4011  -46.8755 H         1 UNK         0.0600 
    184 H184       -0.7147  -12.8484  -48.1408 H         1 UNK         0.3000 
    185 H185       -4.1192  -12.5271  -48.0321 H         1 UNK         0.0600 
    186 H186       -4.2708  -11.8596  -50.4159 H         1 UNK         0.0600 
    187 H187       -3.8916  -10.4575  -49.4316 H         1 UNK         0.0600 
    188 H188       -2.6245  -11.2332  -50.3753 H         1 UNK         0.0600 
    189 H189       -2.7423  -13.7211  -50.1138 H         1 UNK         0.3000 
    190 H190       -1.7642  -21.8182  -45.4391 H         1 UNK         0.3000 
    191 H191       -4.1051  -22.8357  -46.6985 H         1 UNK         0.0600 
    192 H192       -5.2690  -21.9021  -44.7071 H         1 UNK         0.0600 
    193 H193       -4.0849  -20.7623  -45.3176 H         1 UNK         0.0600 
    194 H194       -3.7351  -21.6981  -43.8734 H         1 UNK         0.0600 
    195 H195       -2.3485  -23.8865  -43.7323 H         1 UNK         0.3000 
    196 H196       -4.0685  -26.0240  -43.0323 H         1 UNK         0.0600 
    197 H197       -2.1455  -26.7629  -41.6216 H         1 UNK         0.0600 
    198 H198       -2.4185  -25.0336  -41.4715 H         1 UNK         0.0600 
    199 H199       -1.0841  -25.6333  -42.4535 H         1 UNK         0.0600 
    200 H200       -1.2098  -25.9399  -45.1708 H         1 UNK         0.3000 
    201 H201       -1.2480  -28.7409  -45.8620 H         1 UNK         0.0600 
    202 H202        0.7804  -27.3046  -46.0641 H         1 UNK         0.0600 
    203 H203       -0.0200  -26.3143  -47.2827 H         1 UNK         0.0600 
    204 H204        0.3592  -27.9979  -47.6229 H         1 UNK         0.0600 
    205 H205       -3.2278  -26.0981  -46.7961 H         1 UNK         0.3000 
    206 H206       -4.7522  -25.6240  -48.3036 H         1 UNK         0.0600 
    207 H207       -5.7931  -27.7832  -47.5742 H         1 UNK         0.0600 
    208 H208       -6.1634  -27.4079  -49.2491 H         1 UNK         0.0600 
    209 H209       -4.9549  -28.6287  -48.8751 H         1 UNK         0.0600 
    210 H210       -2.0785  -25.3682  -49.0541 H         1 UNK         0.3000 
    211 H211       -1.8301  -26.3120  -51.8674 H         1 UNK         0.0600 
    212 H212        0.2005  -25.2609  -49.8324 H         1 UNK         0.0600 
    213 H213        0.5910  -25.7630  -51.4741 H         1 UNK         0.0600 
    214 H214       -0.0294  -26.9350  -50.3212 H         1 UNK         0.0600 
    215 H215       -2.5515  -23.4203  -50.1146 H         1 UNK         0.3000 
    216 H216       -1.2993  -21.4964  -51.7930 H         1 UNK         0.0600 
    217 H217       -2.7945  -19.8778  -50.6282 H         1 UNK         0.0600 
    218 H218       -2.0450  -20.9847  -49.4908 H         1 UNK         0.0600 
    219 H219       -3.7323  -21.2042  -49.9494 H         1 UNK         0.0600 
    220 H220       -4.5636  -22.8641  -51.8405 H         1 UNK         0.3000 
    221 H221       -6.1973  -23.0590  -53.2743 H         1 UNK         0.0600 
    222 H222       -4.2483  -22.2360  -55.4871 H         1 UNK         0.0600 
    223 H223       -4.4676  -23.8724  -54.8678 H         1 UNK         0.0600 
    224 H224       -5.7832  -23.0613  -55.7037 H         1 UNK         0.0600 
    225 H225       -4.6017  -19.9104  -53.4435 H         1 UNK         0.3000 
    226 H226       -7.1820  -18.5451  -53.4595 H         1 UNK         0.0600 
    227 H227       -6.4972  -17.0525  -55.3690 H         1 UNK         0.0600 
    228 H228       -5.0586  -18.0324  -55.6329 H         1 UNK         0.0600 
    229 H229       -6.6586  -18.7124  -55.9131 H         1 UNK         0.0600 
    230 H230       -6.8330  -16.1947  -52.9932 H         1 UNK         0.3000 
    231 H231       -4.8775  -15.8533  -50.8927 H         1 UNK         0.0600 
    232 H232       -5.9446  -13.6315  -50.6416 H         1 UNK         0.0600 
    233 H233       -7.1603  -14.8921  -50.7461 H         1 UNK         0.0600 
    234 H234       -6.8387  -13.8598  -52.1405 H         1 UNK         0.0600 
    235 H235       -5.1086  -14.8466  -54.2795 H         1 UNK         0.3000 
    236 H236       -2.7925  -13.0401  -54.1280 H         1 UNK         0.0600 
    237 H237       -4.5148  -13.9646  -56.4896 H         1 UNK         0.0600 
    238 H238       -4.6436  -12.4370  -55.6229 H         1 UNK         0.0600 
    239 H239       -3.2123  -12.7851  -56.5793 H         1 UNK         0.0600 
    240 H240       -3.6122  -15.9810  -55.9669 H         1 UNK         0.3000 
    241 H241       -2.4732  -17.4670  -57.0628 H         1 UNK         0.0600 
    242 H242        1.2645  -17.3596  -57.6730 H         1 UNK         0.3800 
    243 H243        0.3888  -18.5046  -56.7003 H         1 UNK         0.3800 
    244 H244       -1.2440  -19.1259  -55.6963 H         1 UNK         0.0800 
    245 H245       -2.7324  -18.5992  -55.0114 H         1 UNK         0.0800 
    246 H246        1.3304  -18.1159  -54.4135 H         1 UNK         0.0800 
    247 H247        0.5482  -19.6759  -54.2146 H         1 UNK         0.0800 
@<TRIPOS>BOND
     1    1    2 1    
     2    1  127 1    
     3    1  128 1    
     4    1  129 1    
     5    2    3 2    
     6    2    4 am   BACKBONE|DICT|INTERRES
     7    4    5 1    
     8    4  130 1    
     9    5    6 1    
    10    5   65 1    
    11    5  131 1    
    12    6    7 1    
    13    6  132 1    
    14    6  133 1    
    15    7    8 1    
    16    8    9 1    
    17    8  134 1    
    18    8  135 1    
    19    9   10 ar   
    20    9   14 ar   
    21   10   11 ar   
    22   10  136 1    
    23   11   12 ar   
    24   11  126 1    
    25   12   13 ar   
    26   12  137 1    
    27   13   14 ar   
    28   13   15 1    
    29   14  138 1    
    30   15   16 1    
    31   15  139 1    
    32   15  140 1    
    33   16   17 1    
    34   17   18 1    
    35   17  141 1    
    36   17  142 1    
    37   18   19 1    
    38   18   67 1    
    39   18  143 1    
    40   19   20 am   BACKBONE|DICT|INTERRES
    41   19  144 1    
    42   20   21 2    
    43   20   22 1    
    44   22   23 1    
    45   22   24 1    
    46   22  145 1    
    47   23  146 1    
    48   23  147 1    
    49   23  148 1    
    50   24   25 am   BACKBONE|DICT|INTERRES
    51   24  149 1    
    52   25   26 2    
    53   25   27 1    
    54   27   28 1    
    55   27   29 1    
    56   27  150 1    
    57   28  151 1    
    58   28  152 1    
    59   28  153 1    
    60   29   30 am   BACKBONE|DICT|INTERRES
    61   29  154 1    
    62   30   31 2    
    63   30   32 1    
    64   32   33 1    
    65   32   34 1    
    66   32  155 1    
    67   33  156 1    
    68   33  157 1    
    69   33  158 1    
    70   34   35 am   BACKBONE|DICT|INTERRES
    71   34  159 1    
    72   35   36 2    
    73   35   37 1    
    74   37   38 1    
    75   37   39 1    
    76   37  160 1    
    77   38  161 1    
    78   38  162 1    
    79   38  163 1    
    80   39   40 am   BACKBONE|DICT|INTERRES
    81   39  164 1    
    82   40   41 2    
    83   40   42 1    
    84   42   43 1    
    85   42   44 1    
    86   42  165 1    
    87   43  166 1    
    88   43  167 1    
    89   43  168 1    
    90   44   45 am   BACKBONE|DICT|INTERRES
    91   44  169 1    
    92   45   46 2    
    93   45   47 1    
    94   47   48 1    
    95   47   49 1    
    96   47  170 1    
    97   48  171 1    
    98   48  172 1    
    99   48  173 1    
   100   49   50 am   BACKBONE|DICT|INTERRES
   101   49  174 1    
   102   50   51 2    
   103   50   52 1    
   104   52   53 1    
   105   52   54 1    
   106   52  175 1    
   107   53  176 1    
   108   53  177 1    
   109   53  178 1    
   110   54   55 am   BACKBONE|DICT|INTERRES
   111   54  179 1    
   112   55   56 2    
   113   55   57 1    
   114   57   58 1    
   115   57   59 1    
   116   57  180 1    
   117   58  181 1    
   118   58  182 1    
   119   58  183 1    
   120   59   60 am   BACKBONE|DICT|INTERRES
   121   59  184 1    
   122   60   61 2    
   123   60   62 1    
   124   62   63 1    
   125   62   64 1    
   126   62  185 1    
   127   63  186 1    
   128   63  187 1    
   129   63  188 1    
   130   64   65 am   BACKBONE|DICT|INTERRES
   131   64  189 1    
   132   65   66 2    
   133   67   68 2    
   134   67   69 am   BACKBONE|DICT|INTERRES
   135   69   70 1    
   136   69  190 1    
   137   70   71 1    
   138   70   72 1    
   139   70  191 1    
   140   71  192 1    
   141   71  193 1    
   142   71  194 1    
   143   72   73 2    
   144   72   74 am   BACKBONE|DICT|INTERRES
   145   74   75 1    
   146   74  195 1    
   147   75   76 1    
   148   75   77 1    
   149   75  196 1    
   150   76  197 1    
   151   76  198 1    
   152   76  199 1    
   153   77   78 2    
   154   77   79 am   BACKBONE|DICT|INTERRES
   155   79   80 1    
   156   79  200 1    
   157   80   81 1    
   158   80   82 1    
   159   80  201 1    
   160   81  202 1    
   161   81  203 1    
   162   81  204 1    
   163   82   83 2    
   164   82   84 am   BACKBONE|DICT|INTERRES
   165   84   85 1    
   166   84  205 1    
   167   85   86 1    
   168   85   87 1    
   169   85  206 1    
   170   86  207 1    
   171   86  208 1    
   172   86  209 1    
   173   87   88 2    
   174   87   89 am   BACKBONE|DICT|INTERRES
   175   89   90 1    
   176   89  210 1    
   177   90   91 1    
   178   90   92 1    
   179   90  211 1    
   180   91  212 1    
   181   91  213 1    
   182   91  214 1    
   183   92   93 2    
   184   92   94 am   BACKBONE|DICT|INTERRES
   185   94   95 1    
   186   94  215 1    
   187   95   96 1    
   188   95   97 1    
   189   95  216 1    
   190   96  217 1    
   191   96  218 1    
   192   96  219 1    
   193   97   98 2    
   194   97   99 am   BACKBONE|DICT|INTERRES
   195   99  100 1    
   196   99  220 1    
   197  100  101 1    
   198  100  102 1    
   199  100  221 1    
   200  101  222 1    
   201  101  223 1    
   202  101  224 1    
   203  102  103 2    
   204  102  104 am   BACKBONE|DICT|INTERRES
   205  104  105 1    
   206  104  225 1    
   207  105  106 1    
   208  105  107 1    
   209  105  226 1    
   210  106  227 1    
   211  106  228 1    
   212  106  229 1    
   213  107  108 2    
   214  107  109 am   BACKBONE|DICT|INTERRES
   215  109  110 1    
   216  109  230 1    
   217  110  111 1    
   218  110  112 1    
   219  110  231 1    
   220  111  232 1    
   221  111  233 1    
   222  111  234 1    
   223  112  113 2    
   224  112  114 am   BACKBONE|DICT|INTERRES
   225  114  115 1    
   226  114  235 1    
   227  115  116 1    
   228  115  117 1    
   229  115  236 1    
   230  116  237 1    
   231  116  238 1    
   232  116  239 1    
   233  117  118 2    
   234  117  119 am   BACKBONE|DICT|INTERRES
   235  119  120 1    
   236  119  240 1    
   237  120  121 1    
   238  120  124 1    
   239  120  241 1    
   240  121  122 am   BACKBONE|DICT|INTERRES
   241  121  123 2    
   242  122  242 1    
   243  122  243 1    
   244  124  125 1    
   245  124  244 1    
   246  124  245 1    
   247  125  126 1    
   248  126  246 1    
   249  126  247 1    
@<TRIPOS>SUBSTRUCTURE
     1 UNK         1 GROUP             0       ****    0 ROOT    
