@<TRIPOS>MOLECULE
3R540
247   249    1
SMALL
USER_CHARGES


@<TRIPOS>ATOM
      1 CA          0.6489  -15.8754  -46.8879 C.3       0 UNK        -0.1800 
      2 C           0.6071  -14.4655  -47.4526 C.2       0 UNK         0.5000 
      3 O          -0.0201  -13.5871  -46.8618 O.2       0 UNK        -0.5000 
      4 N           1.2920  -14.2363  -48.5803 N.am      1 UNK        -0.5000 
      5 CA          1.3159  -12.9634  -49.3214 C.3       1 UNK         0.1400 
      6 C6          1.9867  -13.1003  -50.7118 C.3       23 UNK        -0.0398 
      7 S7          1.3144  -14.4927  -51.6852 S.3       23 UNK        -0.2404 
      8 C8          2.7367  -15.6283  -51.6835 C.3       23 UNK        -0.0205 
      9 C9          2.2983  -17.0715  -51.8685 C.ar      23 UNK        -0.0193 
     10 C10         1.9849  -17.5549  -53.1407 C.ar      23 UNK        -0.1150 
     11 C11         1.6148  -18.8898  -53.3203 C.ar      23 UNK        -0.0193 
     12 C12         1.5595  -19.7424  -52.2113 C.ar      23 UNK        -0.1150 
     13 C13         1.8660  -19.2743  -50.9282 C.ar      23 UNK        -0.0193 
     14 C14         2.2377  -17.9334  -50.7694 C.ar      23 UNK        -0.1150 
     15 C15         1.8775  -20.2557  -49.7544 C.3       23 UNK        -0.0205 
     16 S16         1.4773  -19.5263  -48.1263 S.3       23 UNK        -0.2404 
     17 C17        -0.2660  -20.0108  -47.8793 C.3       23 UNK        -0.0398 
     18 CA         -0.3943  -21.3974  -47.2012 C.3       11 UNK         0.1400 
     19 N           0.2764  -21.4684  -45.8953 N.am      11 UNK        -0.5000 
     20 C           0.5616  -22.6110  -45.2540 C.2       10 UNK         0.5000 
     21 O           0.2265  -23.7218  -45.6642 O.2       10 UNK        -0.5000 
     22 CA          1.3007  -22.5002  -43.9108 C.3       10 UNK         0.1400 
     23 CB          2.7557  -22.0470  -44.1060 C.3       10 UNK        -0.1800 
     24 N           0.6099  -21.6073  -42.9834 N.am      10 UNK        -0.5000 
     25 C          -0.5829  -21.8755  -42.4327 C.2       9 UNK         0.5000 
     26 O          -1.1889  -22.9346  -42.5988 O.2       9 UNK        -0.5000 
     27 CA         -1.2222  -20.7703  -41.5716 C.3       9 UNK         0.1400 
     28 CB         -0.7212  -20.8593  -40.1225 C.3       9 UNK        -0.1800 
     29 N          -0.9840  -19.4223  -42.0906 N.am      9 UNK        -0.5000 
     30 C          -1.4227  -18.9743  -43.2760 C.2       8 UNK         0.5000 
     31 O          -2.1025  -19.6431  -44.0522 O.2       8 UNK        -0.5000 
     32 CA         -0.9721  -17.5654  -43.6976 C.3       8 UNK         0.1400 
     33 CB         -1.7899  -16.4807  -42.9818 C.3       8 UNK        -0.1800 
     34 N           0.4532  -17.3434  -43.4631 N.am      8 UNK        -0.5000 
     35 C           1.4363  -18.0563  -44.0306 C.2       7 UNK         0.5000 
     36 O           1.2452  -18.9679  -44.8332 O.2       7 UNK        -0.5000 
     37 CA          2.8691  -17.7232  -43.5883 C.3       7 UNK         0.1400 
     38 CB          3.3826  -16.4550  -44.2887 C.3       7 UNK        -0.1800 
     39 N           2.9562  -17.5635  -42.1371 N.am      7 UNK        -0.5000 
     40 C           2.8137  -18.5678  -41.2601 C.2       6 UNK         0.5000 
     41 O           2.6372  -19.7419  -41.5850 O.2       6 UNK        -0.5000 
     42 CA          2.8347  -18.1878  -39.7687 C.3       6 UNK         0.1400 
     43 CB          4.2787  -18.0671  -39.2592 C.3       6 UNK        -0.1800 
     44 N           2.1169  -16.9417  -39.4955 N.am      6 UNK        -0.5000 
     45 C           0.7923  -16.7880  -39.6311 C.2       5 UNK         0.5000 
     46 O           0.0311  -17.6864  -39.9877 O.2       5 UNK        -0.5000 
     47 CA          0.2306  -15.3794  -39.3676 C.3       5 UNK         0.1400 
     48 CB         -0.0173  -15.1678  -37.8666 C.3       5 UNK        -0.1800 
     49 N           1.0846  -14.3026  -39.8784 N.am      5 UNK        -0.5000 
     50 C           1.4014  -14.1346  -41.1684 C.2       4 UNK         0.5000 
     51 O           1.0725  -14.9173  -42.0629 O.2       4 UNK        -0.5000 
     52 CA          2.2586  -12.9087  -41.5190 C.3       4 UNK         0.1400 
     53 CB          3.7363  -13.3062  -41.6568 C.3       4 UNK        -0.1800 
     54 N           1.8032  -12.3244  -42.7772 N.am      4 UNK        -0.5000 
     55 C           0.7063  -11.5678  -42.9160 C.2       3 UNK         0.5000 
     56 O           0.0203  -11.1932  -41.9631 O.2       3 UNK        -0.5000 
     57 CA          0.2872  -11.1904  -44.3542 C.3       3 UNK         0.1400 
     58 CB         -0.2971   -9.7654  -44.4503 C.3       3 UNK        -0.1800 
     59 N           1.3330  -11.4078  -45.3624 N.am      3 UNK        -0.5000 
     60 C           2.4993  -10.7544  -45.4970 C.2       2 UNK         0.5000 
     61 O           2.8538   -9.8298  -44.7655 O.2       2 UNK        -0.5000 
     62 CA          3.4551  -11.2298  -46.6127 C.3       2 UNK         0.1400 
     63 CB          4.6836  -11.9232  -46.0005 C.3       2 UNK        -0.1800 
     64 N           2.8313  -12.1519  -47.5632 N.am      2 UNK        -0.5000 
     65 C           1.9637  -11.8075  -48.5256 C.2       1 UNK         0.5000 
     66 O           1.6531  -10.6432  -48.7791 O.2       1 UNK        -0.5000 
     67 C          -1.8631  -21.8716  -47.1493 C.2       11 UNK         0.5000 
     68 O          -2.3690  -22.3624  -48.1596 O.2       11 UNK        -0.5000 
     69 N          -2.5130  -21.7894  -45.9787 N.am      12 UNK        -0.5000 
     70 CA         -3.8321  -22.3739  -45.7225 C.3       12 UNK         0.1400 
     71 CB         -4.3230  -21.9833  -44.3212 C.3       12 UNK        -0.1800 
     72 C          -3.8711  -23.9034  -45.9044 C.2       12 UNK         0.5000 
     73 O          -4.8867  -24.4292  -46.3599 O.2       12 UNK        -0.5000 
     74 N          -2.7636  -24.5791  -45.5737 N.am      13 UNK        -0.5000 
     75 CA         -2.5933  -26.0175  -45.7499 C.3       13 UNK         0.1400 
     76 CB         -1.7667  -26.5747  -44.5795 C.3       13 UNK        -0.1800 
     77 C          -1.9222  -26.3360  -47.0956 C.2       13 UNK         0.5000 
     78 O          -2.4420  -27.1506  -47.8583 O.2       13 UNK        -0.5000 
     79 N          -0.7743  -25.6974  -47.3585 N.am      14 UNK        -0.5000 
     80 CA          0.1191  -26.0110  -48.4750 C.3       14 UNK         0.1400 
     81 CB          1.4916  -25.3724  -48.2095 C.3       14 UNK        -0.1800 
     82 C          -0.4091  -25.5739  -49.8514 C.2       14 UNK         0.5000 
     83 O          -0.0758  -26.2126  -50.8503 O.2       14 UNK        -0.5000 
     84 N          -1.2021  -24.4972  -49.8839 N.am      15 UNK        -0.5000 
     85 CA         -1.7302  -23.8834  -51.1027 C.3       15 UNK         0.1400 
     86 CB         -1.0392  -22.5261  -51.3043 C.3       15 UNK        -0.1800 
     87 C          -3.2618  -23.7452  -51.0585 C.2       15 UNK         0.5000 
     88 O          -3.8224  -22.9812  -51.8458 O.2       15 UNK        -0.5000 
     89 N          -3.9120  -24.4593  -50.1249 N.am      16 UNK        -0.5000 
     90 CA         -5.3617  -24.5110  -49.8944 C.3       16 UNK         0.1400 
     91 CB         -6.0466  -25.2963  -51.0323 C.3       16 UNK        -0.1800 
     92 C          -6.0076  -23.1257  -49.6652 C.2       16 UNK         0.5000 
     93 O          -7.1474  -22.9055  -50.0764 O.2       16 UNK        -0.5000 
     94 N          -5.2478  -22.2011  -49.0568 N.am      17 UNK        -0.5000 
     95 CA         -5.5936  -20.7935  -48.8186 C.3       17 UNK         0.1400 
     96 CB         -6.7966  -20.6719  -47.8569 C.3       17 UNK        -0.1800 
     97 C          -5.7942  -19.9826  -50.1184 C.2       17 UNK         0.5000 
     98 O          -6.5081  -18.9787  -50.1061 O.2       17 UNK        -0.5000 
     99 N          -5.1576  -20.4310  -51.2117 N.am      18 UNK        -0.5000 
    100 CA        -5.2190  -19.8749  -52.5651 C.3       18 UNK         0.1400 
    101 CB        -4.6313  -18.4486  -52.6094 C.3       18 UNK        -0.1800 
    102 C         -6.6194  -19.9733  -53.2050 C.2       18 UNK         0.5000 
    103 O         -6.9913  -19.1055  -53.9971 O.2       18 UNK        -0.5000 
    104 N         -7.3699  -21.0317  -52.8619 N.am      19 UNK        -0.5000 
    105 CA        -8.6701  -21.3688  -53.4431 C.3       19 UNK         0.1400 
    106 CB        -9.2596  -22.5775  -52.6994 C.3       19 UNK        -0.1800 
    107 C         -8.5414  -21.6483  -54.9525 C.2       19 UNK         0.5000 
    108 O         -7.9064  -22.6320  -55.3361 O.2       19 UNK        -0.5000 
    109 N         -9.0930  -20.7415  -55.7701 N.am      20 UNK        -0.5000 
    110 CA        -8.9743  -20.6244  -57.2308 C.3       20 UNK         0.1400 
    111 CB        -9.4416  -21.8973  -57.9635 C.3       20 UNK        -0.1800 
    112 C         -7.5736  -20.1764  -57.6982 C.2       20 UNK         0.5000 
    113 O         -7.4767  -19.2388  -58.4912 O.2       20 UNK        -0.5000 
    114 N         -6.5204  -20.8187  -57.1851 N.am      21 UNK        -0.5000 
    115 CA        -5.1166  -20.4828  -57.3945 C.3       21 UNK         0.1400 
    116 CB        -4.6445  -20.9993  -58.7660 C.3       21 UNK        -0.1800 
    117 C         -4.2911  -21.1042  -56.2595 C.2       21 UNK         0.5000 
    118 O         -4.7196  -22.0968  -55.6675 O.2       21 UNK        -0.5000 
    119 N         -3.1184  -20.5240  -55.9824 N.am      22 UNK        -0.5000 
    120 CA        -2.1687  -21.0198  -54.9705 C.3       22 UNK         0.1400 
    121 C         -1.2041  -22.1380  -55.4691 C.2       22 UNK         0.5000 
    122 N         -1.2341  -22.5290  -56.7374 N.am      22 UNK        -0.7600 
    123 O         -0.4218  -22.6714  -54.6885 O.2       22 UNK        -0.5000 
    124 C124       -1.4315  -19.8534  -54.2630 C.3       23 UNK        -0.0398 
    125 S125       -0.3157  -18.8826  -55.3331 S.3       23 UNK        -0.2404 
    126 C126        1.3170  -19.4138  -54.7199 C.3       23 UNK        -0.0205 
    127 H127       -0.2967  -16.3854  -47.0706 H         1 UNK         0.0600 
    128 H128        0.8103  -15.8296  -45.8127 H         1 UNK         0.0600 
    129 H129        1.4509  -16.4678  -47.3287 H         1 UNK         0.0600 
    130 H130        1.7677  -15.0044  -49.0299 H         1 UNK         0.3000 
    131 H131        0.2743  -12.6796  -49.4870 H         1 UNK         0.0600 
    132 H132        1.8322  -12.1883  -51.2913 H         1 UNK         0.0800 
    133 H133        3.0682  -13.2085  -50.6123 H         1 UNK         0.0800 
    134 H134        3.2941  -15.5324  -50.7506 H         1 UNK         0.0800 
    135 H135        3.4252  -15.3433  -52.4805 H         1 UNK         0.0800 
    136 H136        2.0361  -16.8928  -53.9938 H         1 UNK         0.1150 
    137 H137        1.2978  -20.7814  -52.3534 H         1 UNK         0.1150 
    138 H138        2.5053  -17.5606  -49.7915 H         1 UNK         0.1150 
    139 H139        1.2066  -21.0923  -49.9486 H         1 UNK         0.0800 
    140 H140        2.8790  -20.6826  -49.6916 H         1 UNK         0.0800 
    141 H141       -0.7748  -19.9931  -48.8449 H         1 UNK         0.0800 
    142 H142       -0.7450  -19.2462  -47.2651 H         1 UNK         0.0800 
    143 H143        0.1170  -22.1121  -47.8496 H         1 UNK         0.0600 
    144 H144        0.5907  -20.5842  -45.4988 H         1 UNK         0.3000 
    145 H145        1.3229  -23.4963  -43.4635 H         1 UNK         0.0600 
    146 H146        3.2948  -22.0395  -43.1586 H         1 UNK         0.0600 
    147 H147        3.2865  -22.7236  -44.7769 H         1 UNK         0.0600 
    148 H148        2.8205  -21.0469  -44.5332 H         1 UNK         0.0600 
    149 H149        1.0636  -20.7269  -42.7719 H         1 UNK         0.3000 
    150 H150       -2.3011  -20.9381  -41.5695 H         1 UNK         0.0600 
    151 H151       -0.8921  -21.8540  -39.7089 H         1 UNK         0.0600 
    152 H152       -1.2415  -20.1474  -39.4817 H         1 UNK         0.0600 
    153 H153        0.3475  -20.6525  -40.0539 H         1 UNK         0.0600 
    154 H154       -0.4596  -18.7923  -41.4896 H         1 UNK         0.3000 
    155 H155       -1.1483  -17.4695  -44.7709 H         1 UNK         0.0600 
    156 H156       -1.6394  -16.5088  -41.9026 H         1 UNK         0.0600 
    157 H157       -2.8566  -16.6087  -43.1693 H         1 UNK         0.0600 
    158 H158       -1.5138  -15.4856  -43.3315 H         1 UNK         0.0600 
    159 H159        0.6984  -16.5788  -42.8385 H         1 UNK         0.3000 
    160 H160        3.5130  -18.5559  -43.8797 H         1 UNK         0.0600 
    161 H161        2.7654  -15.5854  -44.0623 H         1 UNK         0.0600 
    162 H162        3.3798  -16.5840  -45.3717 H         1 UNK         0.0600 
    163 H163        4.4066  -16.2272  -43.9924 H         1 UNK         0.0600 
    164 H164        3.0414  -16.6218  -41.7859 H         1 UNK         0.3000 
    165 H165        2.3434  -18.9907  -39.2147 H         1 UNK         0.0600 
    166 H166        4.3033  -17.8763  -38.1862 H         1 UNK         0.0600 
    167 H167        4.8329  -18.9897  -39.4369 H         1 UNK         0.0600 
    168 H168        4.8171  -17.2595  -39.7568 H         1 UNK         0.0600 
    169 H169        2.6673  -16.1487  -39.2010 H         1 UNK         0.3000 
    170 H170       -0.7300  -15.3094  -39.8820 H         1 UNK         0.0600 
    171 H171       -0.6655  -15.9476  -37.4645 H         1 UNK         0.0600 
    172 H172        0.9124  -15.1873  -37.2967 H         1 UNK         0.0600 
    173 H173       -0.5070  -14.2121  -37.6785 H         1 UNK         0.0600 
    174 H174        1.4023  -13.6227  -39.2026 H         1 UNK         0.3000 
    175 H175        2.1685  -12.1636  -40.7256 H         1 UNK         0.0600 
    176 H176        3.8867  -14.0450  -42.4444 H         1 UNK         0.0600 
    177 H177        4.3556  -12.4399  -41.8903 H         1 UNK         0.0600 
    178 H178        4.1148  -13.7344  -40.7278 H         1 UNK         0.0600 
    179 H179        2.2796  -12.6233  -43.6136 H         1 UNK         0.3000 
    180 H180       -0.5137  -11.8839  -44.6138 H         1 UNK         0.0600 
    181 H181        0.4142   -9.0098  -44.1165 H         1 UNK         0.0600 
    182 H182       -1.1892   -9.6664  -43.8311 H         1 UNK         0.0600 
    183 H183       -0.5869   -9.5266  -45.4736 H         1 UNK         0.0600 
    184 H184        1.1223  -12.1511  -46.0209 H         1 UNK         0.3000 
    185 H185        3.7933  -10.3443  -47.1548 H         1 UNK         0.0600 
    186 H186        5.2052  -11.2596  -45.3095 H         1 UNK         0.0600 
    187 H187        4.4063  -12.8209  -45.4463 H         1 UNK         0.0600 
    188 H188        5.3986  -12.2115  -46.7713 H         1 UNK         0.0600 
    189 H189        3.0265  -13.1339  -47.4334 H         1 UNK         0.3000 
    190 H190       -2.0782  -21.2949  -45.2060 H         1 UNK         0.3000 
    191 H191       -4.5242  -21.9442  -46.4423 H         1 UNK         0.0600 
    192 H192       -3.6319  -22.3119  -43.5455 H         1 UNK         0.0600 
    193 H193       -5.2941  -22.4316  -44.1075 H         1 UNK         0.0600 
    194 H194       -4.4424  -20.9038  -44.2324 H         1 UNK         0.0600 
    195 H195       -1.9589  -24.0644  -45.2382 H         1 UNK         0.3000 
    196 H196       -3.5659  -26.5142  -45.7333 H         1 UNK         0.0600 
    197 H197       -1.6104  -27.6487  -44.6875 H         1 UNK         0.0600 
    198 H198       -2.2767  -26.4140  -43.6295 H         1 UNK         0.0600 
    199 H199       -0.7852  -26.1038  -44.5119 H         1 UNK         0.0600 
    200 H200       -0.4220  -25.0200  -46.6832 H         1 UNK         0.3000 
    201 H201        0.2514  -27.0947  -48.5044 H         1 UNK         0.0600 
    202 H202        1.9116  -25.7176  -47.2646 H         1 UNK         0.0600 
    203 H203        1.4284  -24.2844  -48.1694 H         1 UNK         0.0600 
    204 H204        2.2027  -25.6310  -48.9951 H         1 UNK         0.0600 
    205 H205       -1.4438  -24.0277  -49.0187 H         1 UNK         0.3000 
    206 H206       -1.5129  -24.5034  -51.9746 H         1 UNK         0.0600 
    207 H207        0.0374  -22.6515  -51.4147 H         1 UNK         0.0600 
    208 H208       -1.4013  -22.0420  -52.2074 H         1 UNK         0.0600 
    209 H209       -1.2214  -21.8453  -50.4741 H         1 UNK         0.0600 
    210 H210       -3.3548  -25.0503  -49.5242 H         1 UNK         0.3000 
    211 H211       -5.5076  -25.0711  -48.9701 H         1 UNK         0.0600 
    212 H212       -5.9855  -24.7645  -51.9826 H         1 UNK         0.0600 
    213 H213       -7.1030  -25.4610  -50.8167 H         1 UNK         0.0600 
    214 H214       -5.5887  -26.2763  -51.1662 H         1 UNK         0.0600 
    215 H215       -4.3011  -22.4639  -48.8003 H         1 UNK         0.3000 
    216 H216       -4.7279  -20.3524  -48.3227 H         1 UNK         0.0600 
    217 H217       -6.9191  -19.6435  -47.5155 H         1 UNK         0.0600 
    218 H218       -6.6723  -21.2932  -46.9709 H         1 UNK         0.0600 
    219 H219       -7.7297  -20.9659  -48.3382 H         1 UNK         0.0600 
    220 H220       -4.6348  -21.2988  -51.1385 H         1 UNK         0.3000 
    221 H221       -4.5761  -20.5120  -53.1705 H         1 UNK         0.0600 
    222 H222       -5.2863  -17.7247  -52.1240 H         1 UNK         0.0600 
    223 H223       -3.6611  -18.4035  -52.1151 H         1 UNK         0.0600 
    224 H224       -4.4897  -18.1180  -53.6390 H         1 UNK         0.0600 
    225 H225       -6.9971  -21.6901  -52.1909 H         1 UNK         0.3000 
    226 H226       -9.3389  -20.5191  -53.2915 H         1 UNK         0.0600 
    227 H227       -9.4257  -22.3484  -51.6466 H         1 UNK         0.0600 
    228 H228      -10.2208  -22.8680  -53.1249 H         1 UNK         0.0600 
    229 H229       -8.5997  -23.4447  -52.7514 H         1 UNK         0.0600 
    230 H230       -9.5453  -19.9505  -55.3322 H         1 UNK         0.3000 
    231 H231       -9.6635  -19.8258  -57.5103 H         1 UNK         0.0600 
    232 H232      -10.4415  -22.1918  -57.6448 H         1 UNK         0.0600 
    233 H233       -8.7721  -22.7408  -57.7944 H         1 UNK         0.0600 
    234 H234       -9.4797  -21.7290  -59.0404 H         1 UNK         0.0600 
    235 H235       -6.6823  -21.5703  -56.5177 H         1 UNK         0.3000 
    236 H236       -5.0018  -19.3977  -57.3501 H         1 UNK         0.0600 
    237 H237       -3.5932  -20.7634  -58.9340 H         1 UNK         0.0600 
    238 H238       -4.7573  -22.0812  -58.8460 H         1 UNK         0.0600 
    239 H239       -5.2094  -20.5439  -59.5793 H         1 UNK         0.0600 
    240 H240       -2.8131  -19.7232  -56.5175 H         1 UNK         0.3000 
    241 H241       -2.7514  -21.5125  -54.1905 H         1 UNK         0.0600 
    242 H242       -0.6083  -23.2571  -57.0443 H         1 UNK         0.3800 
    243 H243       -1.8705  -22.1058  -57.3924 H         1 UNK         0.3800 
    244 H244       -2.1633  -19.1612  -53.8498 H         1 UNK         0.0800 
    245 H245       -0.8793  -20.2240  -53.4024 H         1 UNK         0.0800 
    246 H246        2.0827  -19.0509  -55.4071 H         1 UNK         0.0800 
    247 H247        1.3811  -20.5026  -54.7467 H         1 UNK         0.0800 
@<TRIPOS>BOND
     1    1    2 1    
     2    1  127 1    
     3    1  128 1    
     4    1  129 1    
     5    2    3 2    
     6    2    4 am   BACKBONE|DICT|INTERRES
     7    4    5 1    
     8    4  130 1    
     9    5    6 1    
    10    5   65 1    
    11    5  131 1    
    12    6    7 1    
    13    6  132 1    
    14    6  133 1    
    15    7    8 1    
    16    8    9 1    
    17    8  134 1    
    18    8  135 1    
    19    9   10 ar   
    20    9   14 ar   
    21   10   11 ar   
    22   10  136 1    
    23   11   12 ar   
    24   11  126 1    
    25   12   13 ar   
    26   12  137 1    
    27   13   14 ar   
    28   13   15 1    
    29   14  138 1    
    30   15   16 1    
    31   15  139 1    
    32   15  140 1    
    33   16   17 1    
    34   17   18 1    
    35   17  141 1    
    36   17  142 1    
    37   18   19 1    
    38   18   67 1    
    39   18  143 1    
    40   19   20 am   BACKBONE|DICT|INTERRES
    41   19  144 1    
    42   20   21 2    
    43   20   22 1    
    44   22   23 1    
    45   22   24 1    
    46   22  145 1    
    47   23  146 1    
    48   23  147 1    
    49   23  148 1    
    50   24   25 am   BACKBONE|DICT|INTERRES
    51   24  149 1    
    52   25   26 2    
    53   25   27 1    
    54   27   28 1    
    55   27   29 1    
    56   27  150 1    
    57   28  151 1    
    58   28  152 1    
    59   28  153 1    
    60   29   30 am   BACKBONE|DICT|INTERRES
    61   29  154 1    
    62   30   31 2    
    63   30   32 1    
    64   32   33 1    
    65   32   34 1    
    66   32  155 1    
    67   33  156 1    
    68   33  157 1    
    69   33  158 1    
    70   34   35 am   BACKBONE|DICT|INTERRES
    71   34  159 1    
    72   35   36 2    
    73   35   37 1    
    74   37   38 1    
    75   37   39 1    
    76   37  160 1    
    77   38  161 1    
    78   38  162 1    
    79   38  163 1    
    80   39   40 am   BACKBONE|DICT|INTERRES
    81   39  164 1    
    82   40   41 2    
    83   40   42 1    
    84   42   43 1    
    85   42   44 1    
    86   42  165 1    
    87   43  166 1    
    88   43  167 1    
    89   43  168 1    
    90   44   45 am   BACKBONE|DICT|INTERRES
    91   44  169 1    
    92   45   46 2    
    93   45   47 1    
    94   47   48 1    
    95   47   49 1    
    96   47  170 1    
    97   48  171 1    
    98   48  172 1    
    99   48  173 1    
   100   49   50 am   BACKBONE|DICT|INTERRES
   101   49  174 1    
   102   50   51 2    
   103   50   52 1    
   104   52   53 1    
   105   52   54 1    
   106   52  175 1    
   107   53  176 1    
   108   53  177 1    
   109   53  178 1    
   110   54   55 am   BACKBONE|DICT|INTERRES
   111   54  179 1    
   112   55   56 2    
   113   55   57 1    
   114   57   58 1    
   115   57   59 1    
   116   57  180 1    
   117   58  181 1    
   118   58  182 1    
   119   58  183 1    
   120   59   60 am   BACKBONE|DICT|INTERRES
   121   59  184 1    
   122   60   61 2    
   123   60   62 1    
   124   62   63 1    
   125   62   64 1    
   126   62  185 1    
   127   63  186 1    
   128   63  187 1    
   129   63  188 1    
   130   64   65 am   BACKBONE|DICT|INTERRES
   131   64  189 1    
   132   65   66 2    
   133   67   68 2    
   134   67   69 am   BACKBONE|DICT|INTERRES
   135   69   70 1    
   136   69  190 1    
   137   70   71 1    
   138   70   72 1    
   139   70  191 1    
   140   71  192 1    
   141   71  193 1    
   142   71  194 1    
   143   72   73 2    
   144   72   74 am   BACKBONE|DICT|INTERRES
   145   74   75 1    
   146   74  195 1    
   147   75   76 1    
   148   75   77 1    
   149   75  196 1    
   150   76  197 1    
   151   76  198 1    
   152   76  199 1    
   153   77   78 2    
   154   77   79 am   BACKBONE|DICT|INTERRES
   155   79   80 1    
   156   79  200 1    
   157   80   81 1    
   158   80   82 1    
   159   80  201 1    
   160   81  202 1    
   161   81  203 1    
   162   81  204 1    
   163   82   83 2    
   164   82   84 am   BACKBONE|DICT|INTERRES
   165   84   85 1    
   166   84  205 1    
   167   85   86 1    
   168   85   87 1    
   169   85  206 1    
   170   86  207 1    
   171   86  208 1    
   172   86  209 1    
   173   87   88 2    
   174   87   89 am   BACKBONE|DICT|INTERRES
   175   89   90 1    
   176   89  210 1    
   177   90   91 1    
   178   90   92 1    
   179   90  211 1    
   180   91  212 1    
   181   91  213 1    
   182   91  214 1    
   183   92   93 2    
   184   92   94 am   BACKBONE|DICT|INTERRES
   185   94   95 1    
   186   94  215 1    
   187   95   96 1    
   188   95   97 1    
   189   95  216 1    
   190   96  217 1    
   191   96  218 1    
   192   96  219 1    
   193   97   98 2    
   194   97   99 am   BACKBONE|DICT|INTERRES
   195   99  100 1    
   196   99  220 1    
   197  100  101 1    
   198  100  102 1    
   199  100  221 1    
   200  101  222 1    
   201  101  223 1    
   202  101  224 1    
   203  102  103 2    
   204  102  104 am   BACKBONE|DICT|INTERRES
   205  104  105 1    
   206  104  225 1    
   207  105  106 1    
   208  105  107 1    
   209  105  226 1    
   210  106  227 1    
   211  106  228 1    
   212  106  229 1    
   213  107  108 2    
   214  107  109 am   BACKBONE|DICT|INTERRES
   215  109  110 1    
   216  109  230 1    
   217  110  111 1    
   218  110  112 1    
   219  110  231 1    
   220  111  232 1    
   221  111  233 1    
   222  111  234 1    
   223  112  113 2    
   224  112  114 am   BACKBONE|DICT|INTERRES
   225  114  115 1    
   226  114  235 1    
   227  115  116 1    
   228  115  117 1    
   229  115  236 1    
   230  116  237 1    
   231  116  238 1    
   232  116  239 1    
   233  117  118 2    
   234  117  119 am   BACKBONE|DICT|INTERRES
   235  119  120 1    
   236  119  240 1    
   237  120  121 1    
   238  120  124 1    
   239  120  241 1    
   240  121  122 am   BACKBONE|DICT|INTERRES
   241  121  123 2    
   242  122  242 1    
   243  122  243 1    
   244  124  125 1    
   245  124  244 1    
   246  124  245 1    
   247  125  126 1    
   248  126  246 1    
   249  126  247 1    
@<TRIPOS>SUBSTRUCTURE
     1 UNK         1 GROUP             0       ****    0 ROOT    
