@<TRIPOS>MOLECULE
3R540
247   249    1
SMALL
USER_CHARGES


@<TRIPOS>ATOM
      1 CA          8.6569  -15.4333  -46.7673 C.3       0 UNK        -0.1800 
      2 C           7.2901  -16.0994  -46.7083 C.2       0 UNK         0.5000 
      3 O           6.7782  -16.3540  -45.6172 O.2       0 UNK        -0.5000 
      4 N           6.6843  -16.3611  -47.8755 N.am      1 UNK        -0.5000 
      5 CA          5.3823  -17.0286  -48.0321 C.3       1 UNK         0.1400 
      6 C6          5.1270  -17.4649  -49.4954 C.3       23 UNK        -0.0398 
      7 S7          4.9784  -16.0758  -50.6780 S.3       23 UNK        -0.2404 
      8 C8          4.1881  -16.8809  -52.1102 C.3       23 UNK        -0.0205 
      9 C9          2.8108  -17.4398  -51.7794 C.ar      23 UNK        -0.0193 
     10 C10         1.7175  -16.5834  -51.6184 C.ar      23 UNK        -0.1150 
     11 C11         0.4529  -17.0888  -51.2976 C.ar      23 UNK        -0.0193 
     12 C12         0.2973  -18.4698  -51.1298 C.ar      23 UNK        -0.1150 
     13 C13         1.3787  -19.3381  -51.3011 C.ar      23 UNK        -0.0193 
     14 C14         2.6311  -18.8175  -51.6317 C.ar      23 UNK        -0.1150 
     15 C15         1.1986  -20.8397  -51.1408 C.3       23 UNK        -0.0205 
     16 S16         1.6821  -21.4147  -49.4839 S.3       23 UNK        -0.2404 
     17 C17         0.3937  -20.6834  -48.4164 C.3       23 UNK        -0.0398 
     18 CA         -0.0303  -21.6327  -47.2662 C.3       11 UNK         0.1400 
     19 N          -0.3249  -20.8891  -46.0368 N.am      11 UNK        -0.5000 
     20 C          -0.3218  -21.4139  -44.8031 C.2       10 UNK         0.5000 
     21 O          -0.1209  -22.6060  -44.5674 O.2       10 UNK        -0.5000 
     22 CA         -0.6488  -20.4496  -43.6547 C.3       10 UNK         0.1400 
     23 CB          0.5418  -19.5269  -43.3605 C.3       10 UNK        -0.1800 
     24 N          -1.8288  -19.6469  -43.9732 N.am      10 UNK        -0.5000 
     25 C          -3.0894  -20.0593  -43.7816 C.2       9 UNK         0.5000 
     26 O          -3.3830  -21.1294  -43.2492 O.2       9 UNK        -0.5000 
     27 CA         -4.2148  -19.1328  -44.2766 C.3       9 UNK         0.1400 
     28 CB         -4.6993  -18.2199  -43.1402 C.3       9 UNK        -0.1800 
     29 N          -3.8136  -18.3169  -45.4240 N.am      9 UNK        -0.5000 
     30 C          -3.6764  -18.7981  -46.6684 C.2       8 UNK         0.5000 
     31 O          -3.8787  -19.9721  -46.9678 O.2       8 UNK        -0.5000 
     32 CA         -3.2149  -17.8220  -47.7652 C.3       8 UNK         0.1400 
     33 CB         -4.4370  -17.1791  -48.4374 C.3       8 UNK        -0.1800 
     34 N          -2.3204  -16.7668  -47.2935 N.am      8 UNK        -0.5000 
     35 C          -1.1475  -16.9483  -46.6719 C.2       7 UNK         0.5000 
     36 O          -0.6814  -18.0561  -46.3970 O.2       7 UNK        -0.5000 
     37 CA         -0.3876  -15.6766  -46.2452 C.3       7 UNK         0.1400 
     38 CB         -0.8506  -14.3929  -46.9664 C.3       7 UNK        -0.1800 
     39 N          -0.4105  -15.4457  -44.7994 N.am      7 UNK        -0.5000 
     40 C          -1.4529  -15.5042  -43.9553 C.2       6 UNK         0.5000 
     41 O          -2.5893  -15.8539  -44.2763 O.2       6 UNK        -0.5000 
     42 CA         -1.1793  -15.0695  -42.5027 C.3       6 UNK         0.1400 
     43 CB         -0.6765  -16.2572  -41.6719 C.3       6 UNK        -0.1800 
     44 N          -0.2108  -13.9714  -42.4337 N.am      6 UNK        -0.5000 
     45 C          -0.5026  -12.7016  -42.7533 C.2       5 UNK         0.5000 
     46 O          -1.6479  -12.3187  -42.9987 O.2       5 UNK        -0.5000 
     47 CA          0.6635  -11.6971  -42.8721 C.3       5 UNK         0.1400 
     48 CB          0.3004  -10.2910  -42.3490 C.3       5 UNK        -0.1800 
     49 N           1.9376  -12.1713  -42.3217 N.am      5 UNK        -0.5000 
     50 C           2.2947  -12.3130  -41.0375 C.2       4 UNK         0.5000 
     51 O           1.5639  -12.0452  -40.0827 O.2       4 UNK        -0.5000 
     52 CA          3.7248  -12.8541  -40.8040 C.3       4 UNK         0.1400 
     53 CB          3.9635  -13.3323  -39.3559 C.3       4 UNK        -0.1800 
     54 N           4.1092  -13.8931  -41.7718 N.am      4 UNK        -0.5000 
     55 C           3.5015  -15.0755  -41.9505 C.2       3 UNK         0.5000 
     56 O           2.5331  -15.4504  -41.2887 O.2       3 UNK        -0.5000 
     57 CA          4.0367  -15.9486  -43.1065 C.3       3 UNK         0.1400 
     58 CB          3.1993  -17.2261  -43.3170 C.3       3 UNK        -0.1800 
     59 N           4.1547  -15.2347  -44.3846 N.am      3 UNK        -0.5000 
     60 C           3.1966  -14.5233  -45.0032 C.2       2 UNK         0.5000 
     61 O           2.1179  -14.2344  -44.4891 O.2       2 UNK        -0.5000 
     62 CA          3.4648  -14.0696  -46.4507 C.3       2 UNK         0.1400 
     63 CB          3.9999  -12.6307  -46.4687 C.3       2 UNK        -0.1800 
     64 N           4.3964  -14.9405  -47.1648 N.am      2 UNK        -0.5000 
     65 C           4.1883  -16.2358  -47.4481 C.2       1 UNK         0.5000 
     66 O           3.1223  -16.8152  -47.2389 O.2       1 UNK        -0.5000 
     67 C          -1.1549  -22.6214  -47.6648 C.2       11 UNK         0.5000 
     68 O          -0.9569  -23.4417  -48.5624 O.2       11 UNK        -0.5000 
     69 N          -2.2964  -22.5866  -46.9589 N.am      12 UNK        -0.5000 
     70 CA         -3.3749  -23.5763  -47.0164 C.3       12 UNK         0.1400 
     71 CB         -4.4976  -23.1806  -46.0472 C.3       12 UNK        -0.1800 
     72 C          -2.9049  -25.0103  -46.7151 C.2       12 UNK         0.5000 
     73 O          -3.3880  -25.9495  -47.3457 O.2       12 UNK        -0.5000 
     74 N          -1.9431  -25.1469  -45.7930 N.am      13 UNK        -0.5000 
     75 CA         -1.3278  -26.4233  -45.4301 C.3       13 UNK         0.1400 
     76 CB         -0.5801  -26.2473  -44.0995 C.3       13 UNK        -0.1800 
     77 C          -0.3762  -26.9734  -46.5119 C.2       13 UNK         0.5000 
     78 O          -0.1107  -28.1761  -46.5197 O.2       13 UNK        -0.5000 
     79 N           0.1330  -26.0931  -47.3841 N.am      14 UNK        -0.5000 
     80 CA          1.1179  -26.4196  -48.4112 C.3       14 UNK         0.1400 
     81 CB          2.1742  -25.3040  -48.4608 C.3       14 UNK        -0.1800 
     82 C           0.4764  -26.6095  -49.7943 C.2       14 UNK         0.5000 
     83 O           0.8201  -27.5697  -50.4853 O.2       14 UNK        -0.5000 
     84 N          -0.4094  -25.6845  -50.1886 N.am      15 UNK        -0.5000 
     85 CA         -0.8851  -25.5472  -51.5681 C.3       15 UNK         0.1400 
     86 CB         -0.0892  -24.4109  -52.2367 C.3       15 UNK        -0.1800 
     87 C          -2.4010  -25.3033  -51.6810 C.2       15 UNK         0.5000 
     88 O          -2.8681  -25.0005  -52.7797 O.2       15 UNK        -0.5000 
     89 N          -3.1458  -25.4149  -50.5681 N.am      16 UNK        -0.5000 
     90 CA         -4.5933  -25.1577  -50.4610 C.3       16 UNK         0.1400 
     91 CB         -5.4049  -26.1924  -51.2680 C.3       16 UNK        -0.1800 
     92 C          -4.9784  -23.7014  -50.8077 C.2       16 UNK         0.5000 
     93 O          -6.0767  -23.4465  -51.3051 O.2       16 UNK        -0.5000 
     94 N          -4.0589  -22.7662  -50.5298 N.am      17 UNK        -0.5000 
     95 CA         -4.1129  -21.3527  -50.9033 C.3       17 UNK         0.1400 
     96 CB         -2.8544  -20.6611  -50.3851 C.3       17 UNK        -0.1800 
     97 C          -5.3568  -20.5801  -50.4391 C.2       17 UNK         0.5000 
     98 O          -5.7521  -19.6397  -51.1245 O.2       17 UNK        -0.5000 
     99 N          -5.9619  -20.9899  -49.3177 N.am      18 UNK        -0.5000 
    100 CA        -7.2085  -20.4207  -48.8022 C.3       18 UNK         0.1400 
    101 CB        -7.4473  -20.9336  -47.3744 C.3       18 UNK        -0.1800 
    102 C         -8.4283  -20.7113  -49.7008 C.2       18 UNK         0.5000 
    103 O         -9.3602  -19.9069  -49.7268 O.2       18 UNK        -0.5000 
    104 N         -8.3960  -21.8371  -50.4272 N.am      19 UNK        -0.5000 
    105 CA        -9.4116  -22.2254  -51.4052 C.3       19 UNK         0.1400 
    106 CB        -9.6254  -23.7459  -51.3344 C.3       19 UNK        -0.1800 
    107 C         -8.9992  -21.8046  -52.8258 C.2       19 UNK         0.5000 
    108 O         -9.8429  -21.3405  -53.5929 O.2       19 UNK        -0.5000 
    109 N         -7.7085  -21.9668  -53.1484 N.am      20 UNK        -0.5000 
    110 CA        -7.1262  -21.6834  -54.4623 C.3       20 UNK         0.1400 
    111 CB        -5.8320  -22.5011  -54.6074 C.3       20 UNK        -0.1800 
    112 C         -6.8559  -20.1877  -54.7290 C.2       20 UNK         0.5000 
    113 O         -6.4549  -19.8466  -55.8426 O.2       20 UNK        -0.5000 
    114 N         -7.0298  -19.3304  -53.7115 N.am      21 UNK        -0.5000 
    115 CA        -6.7623  -17.8848  -53.7027 C.3       21 UNK         0.1400 
    116 CB        -7.7771  -17.1405  -54.5948 C.3       21 UNK        -0.1800 
    117 C         -5.2928  -17.5577  -54.0490 C.2       21 UNK         0.5000 
    118 O         -5.0228  -16.6425  -54.8287 O.2       21 UNK        -0.5000 
    119 N         -4.3790  -18.3614  -53.4889 N.am      22 UNK        -0.5000 
    120 CA        -2.9296  -18.3856  -53.7681 C.3       22 UNK         0.1400 
    121 C         -2.5468  -18.8295  -55.2163 C.2       22 UNK         0.5000 
    122 N         -3.4622  -19.3353  -56.0357 N.am      22 UNK        -0.7600 
    123 O         -1.3830  -18.7525  -55.5995 O.2       22 UNK        -0.5000 
    124 C124       -2.1989  -17.0810  -53.3355 C.3       23 UNK        -0.0398 
    125 S125       -2.3611  -16.7643  -51.5447 S.3       23 UNK        -0.2404 
    126 C126       -0.7099  -16.1149  -51.1061 C.3       23 UNK        -0.0205 
    127 H127        9.4020  -16.0644  -46.2831 H         1 UNK         0.0600 
    128 H128        8.6301  -14.4755  -46.2478 H         1 UNK         0.0600 
    129 H129        8.9772  -15.2551  -47.7941 H         1 UNK         0.0600 
    130 H130        7.1421  -16.1041  -48.7391 H         1 UNK         0.3000 
    131 H131        5.4385  -17.9442  -47.4391 H         1 UNK         0.0600 
    132 H132        5.9334  -18.1170  -49.8333 H         1 UNK         0.0800 
    133 H133        4.2240  -18.0745  -49.5301 H         1 UNK         0.0800 
    134 H134        4.0954  -16.1527  -52.9171 H         1 UNK         0.0800 
    135 H135        4.8447  -17.6677  -52.4850 H         1 UNK         0.0800 
    136 H136        1.8585  -15.5176  -51.7325 H         1 UNK         0.1150 
    137 H137       -0.6672  -18.8726  -50.8661 H         1 UNK         0.1150 
    138 H138        3.4704  -19.4872  -51.7580 H         1 UNK         0.1150 
    139 H139        0.1719  -21.1295  -51.3528 H         1 UNK         0.0800 
    140 H140        1.8109  -21.3588  -51.8797 H         1 UNK         0.0800 
    141 H141        0.8267  -19.7665  -48.0128 H         1 UNK         0.0800 
    142 H142       -0.4641  -20.3626  -49.0034 H         1 UNK         0.0800 
    143 H143        0.8310  -22.2606  -47.0272 H         1 UNK         0.0600 
    144 H144       -0.4949  -19.8910  -46.1438 H         1 UNK         0.3000 
    145 H145       -0.8400  -21.0447  -42.7590 H         1 UNK         0.0600 
    146 H146        1.4531  -20.1025  -43.1929 H         1 UNK         0.0600 
    147 H147        0.7346  -18.8385  -44.1838 H         1 UNK         0.0600 
    148 H148        0.3647  -18.9390  -42.4614 H         1 UNK         0.0600 
    149 H149       -1.6723  -18.7807  -44.4713 H         1 UNK         0.3000 
    150 H150       -5.0527  -19.7638  -44.5817 H         1 UNK         0.0600 
    151 H151       -5.0900  -18.8087  -42.3094 H         1 UNK         0.0600 
    152 H152       -5.4997  -17.5604  -43.4761 H         1 UNK         0.0600 
    153 H153       -3.8938  -17.5988  -42.7479 H         1 UNK         0.0600 
    154 H154       -3.5717  -17.3489  -45.2338 H         1 UNK         0.3000 
    155 H155       -2.6669  -18.3950  -48.5142 H         1 UNK         0.0600 
    156 H156       -4.1439  -16.4910  -49.2291 H         1 UNK         0.0600 
    157 H157       -5.0433  -16.6226  -47.7216 H         1 UNK         0.0600 
    158 H158       -5.0759  -17.9371  -48.8902 H         1 UNK         0.0600 
    159 H159       -2.6377  -15.8192  -47.4343 H         1 UNK         0.3000 
    160 H160        0.6548  -15.8491  -46.5143 H         1 UNK         0.0600 
    161 H161       -1.8636  -14.1048  -46.6827 H         1 UNK         0.0600 
    162 H162       -0.8226  -14.5108  -48.0497 H         1 UNK         0.0600 
    163 H163       -0.1947  -13.5573  -46.7208 H         1 UNK         0.0600 
    164 H164        0.4740  -15.1119  -44.4253 H         1 UNK         0.3000 
    165 H165       -2.1242  -14.7336  -42.0704 H         1 UNK         0.0600 
    166 H166        0.2723  -16.6346  -42.0512 H         1 UNK         0.0600 
    167 H167       -0.5300  -15.9755  -40.6291 H         1 UNK         0.0600 
    168 H168       -1.3913  -17.0809  -41.6923 H         1 UNK         0.0600 
    169 H169        0.7534  -14.2188  -42.2498 H         1 UNK         0.3000 
    170 H170        0.8410  -11.5988  -43.9441 H         1 UNK         0.0600 
    171 H171       -0.5323   -9.8681  -42.9121 H         1 UNK         0.0600 
    172 H172        0.0033  -10.3104  -41.3004 H         1 UNK         0.0600 
    173 H173        1.1394   -9.6025  -42.4496 H         1 UNK         0.0600 
    174 H174        2.5896  -12.5067  -43.0177 H         1 UNK         0.3000 
    175 H175        4.3944  -12.0113  -40.9812 H         1 UNK         0.0600 
    176 H176        3.2821  -14.1358  -39.0747 H         1 UNK         0.0600 
    177 H177        4.9827  -13.6950  -39.2235 H         1 UNK         0.0600 
    178 H178        3.8157  -12.5174  -38.6465 H         1 UNK         0.0600 
    179 H179        4.8819  -13.6630  -42.3813 H         1 UNK         0.3000 
    180 H180        5.0447  -16.2543  -42.8229 H         1 UNK         0.0600 
    181 H181        2.1778  -16.9873  -43.6134 H         1 UNK         0.0600 
    182 H182        3.1488  -17.8224  -42.4053 H         1 UNK         0.0600 
    183 H183        3.6311  -17.8565  -44.0944 H         1 UNK         0.0600 
    184 H184        5.0127  -15.4160  -44.8944 H         1 UNK         0.3000 
    185 H185        2.5121  -14.0893  -46.9837 H         1 UNK         0.0600 
    186 H186        4.1221  -12.2684  -47.4897 H         1 UNK         0.0600 
    187 H187        3.3108  -11.9513  -45.9650 H         1 UNK         0.0600 
    188 H188        4.9649  -12.5530  -45.9663 H         1 UNK         0.0600 
    189 H189        5.3012  -14.5526  -47.3870 H         1 UNK         0.3000 
    190 H190       -2.4129  -21.8416  -46.2866 H         1 UNK         0.3000 
    191 H191       -3.7803  -23.5664  -48.0245 H         1 UNK         0.0600 
    192 H192       -5.3149  -23.9024  -46.0781 H         1 UNK         0.0600 
    193 H193       -4.9196  -22.2105  -46.2997 H         1 UNK         0.0600 
    194 H194       -4.1415  -23.1323  -45.0177 H         1 UNK         0.0600 
    195 H195       -1.5824  -24.3211  -45.3317 H         1 UNK         0.3000 
    196 H196       -2.1200  -27.1603  -45.2822 H         1 UNK         0.0600 
    197 H197       -0.1287  -27.1861  -43.7760 H         1 UNK         0.0600 
    198 H198       -1.2552  -25.9223  -43.3075 H         1 UNK         0.0600 
    199 H199        0.2189  -25.5092  -44.1825 H         1 UNK         0.0600 
    200 H200       -0.1788  -25.1332  -47.3437 H         1 UNK         0.3000 
    201 H201        1.6340  -27.3473  -48.1543 H         1 UNK         0.0600 
    202 H202        2.6859  -25.2035  -47.5036 H         1 UNK         0.0600 
    203 H203        1.7316  -24.3384  -48.7055 H         1 UNK         0.0600 
    204 H204        2.9331  -25.5167  -49.2148 H         1 UNK         0.0600 
    205 H205       -0.6160  -24.9043  -49.5671 H         1 UNK         0.3000 
    206 H206       -0.6977  -26.4660  -52.1270 H         1 UNK         0.0600 
    207 H207        0.9831  -24.6038  -52.2002 H         1 UNK         0.0600 
    208 H208       -0.3600  -24.2966  -53.2870 H         1 UNK         0.0600 
    209 H209       -0.2738  -23.4575  -51.7417 H         1 UNK         0.0600 
    210 H210       -2.6866  -25.7040  -49.7146 H         1 UNK         0.3000 
    211 H211       -4.8593  -25.2941  -49.4134 H         1 UNK         0.0600 
    212 H212       -5.2692  -26.0692  -52.3428 H         1 UNK         0.0600 
    213 H213       -6.4720  -26.0966  -51.0637 H         1 UNK         0.0600 
    214 H214       -5.1162  -27.2103  -51.0066 H         1 UNK         0.0600 
    215 H215       -3.1842  -23.0818  -50.1364 H         1 UNK         0.3000 
    216 H216       -4.0949  -21.3077  -51.9927 H         1 UNK         0.0600 
    217 H217       -2.8458  -19.6077  -50.6635 H         1 UNK         0.0600 
    218 H218       -1.9635  -21.1243  -50.8018 H         1 UNK         0.0600 
    219 H219       -2.7933  -20.7175  -49.2993 H         1 UNK         0.0600 
    220 H220       -5.5488  -21.7436  -48.7911 H         1 UNK         0.3000 
    221 H221       -7.0923  -19.3361  -48.7552 H         1 UNK         0.0600 
    222 H222       -7.4943  -22.0226  -47.3387 H         1 UNK         0.0600 
    223 H223       -6.6535  -20.6056  -46.7034 H         1 UNK         0.0600 
    224 H224       -8.3858  -20.5500  -46.9721 H         1 UNK         0.0600 
    225 H225       -7.5692  -22.4221  -50.3860 H         1 UNK         0.3000 
    226 H226      -10.3630  -21.7422  -51.1726 H         1 UNK         0.0600 
    227 H227       -9.9598  -24.0494  -50.3423 H         1 UNK         0.0600 
    228 H228      -10.3871  -24.0661  -52.0464 H         1 UNK         0.0600 
    229 H229       -8.7115  -24.2963  -51.5617 H         1 UNK         0.0600 
    230 H230       -7.0926  -22.4074  -52.4699 H         1 UNK         0.3000 
    231 H231       -7.8252  -22.0230  -55.2293 H         1 UNK         0.0600 
    232 H232       -5.4002  -22.3824  -55.6020 H         1 UNK         0.0600 
    233 H233       -6.0183  -23.5653  -54.4609 H         1 UNK         0.0600 
    234 H234       -5.0767  -22.1942  -53.8852 H         1 UNK         0.0600 
    235 H235       -7.2758  -19.7233  -52.8126 H         1 UNK         0.3000 
    236 H236       -6.9154  -17.5488  -52.6762 H         1 UNK         0.0600 
    237 H237       -8.8014  -17.3824  -54.3110 H         1 UNK         0.0600 
    238 H238       -7.6612  -16.0602  -54.5008 H         1 UNK         0.0600 
    239 H239       -7.6528  -17.3926  -55.6483 H         1 UNK         0.0600 
    240 H240       -4.7195  -19.0377  -52.8167 H         1 UNK         0.3000 
    241 H241       -2.5371  -19.1881  -53.1432 H         1 UNK         0.0600 
    242 H242       -4.4393  -19.3925  -55.7753 H         1 UNK         0.3800 
    243 H243       -3.1817  -19.6246  -56.9591 H         1 UNK         0.3800 
    244 H244       -1.1370  -17.1422  -53.5775 H         1 UNK         0.0800 
    245 H245       -2.5803  -16.2186  -53.8827 H         1 UNK         0.0800 
    246 H246       -0.7296  -15.8162  -50.0584 H         1 UNK         0.0800 
    247 H247       -0.5378  -15.2056  -51.6841 H         1 UNK         0.0800 
@<TRIPOS>BOND
     1    1    2 1    
     2    1  127 1    
     3    1  128 1    
     4    1  129 1    
     5    2    3 2    
     6    2    4 am   BACKBONE|DICT|INTERRES
     7    4    5 1    
     8    4  130 1    
     9    5    6 1    
    10    5   65 1    
    11    5  131 1    
    12    6    7 1    
    13    6  132 1    
    14    6  133 1    
    15    7    8 1    
    16    8    9 1    
    17    8  134 1    
    18    8  135 1    
    19    9   10 ar   
    20    9   14 ar   
    21   10   11 ar   
    22   10  136 1    
    23   11   12 ar   
    24   11  126 1    
    25   12   13 ar   
    26   12  137 1    
    27   13   14 ar   
    28   13   15 1    
    29   14  138 1    
    30   15   16 1    
    31   15  139 1    
    32   15  140 1    
    33   16   17 1    
    34   17   18 1    
    35   17  141 1    
    36   17  142 1    
    37   18   19 1    
    38   18   67 1    
    39   18  143 1    
    40   19   20 am   BACKBONE|DICT|INTERRES
    41   19  144 1    
    42   20   21 2    
    43   20   22 1    
    44   22   23 1    
    45   22   24 1    
    46   22  145 1    
    47   23  146 1    
    48   23  147 1    
    49   23  148 1    
    50   24   25 am   BACKBONE|DICT|INTERRES
    51   24  149 1    
    52   25   26 2    
    53   25   27 1    
    54   27   28 1    
    55   27   29 1    
    56   27  150 1    
    57   28  151 1    
    58   28  152 1    
    59   28  153 1    
    60   29   30 am   BACKBONE|DICT|INTERRES
    61   29  154 1    
    62   30   31 2    
    63   30   32 1    
    64   32   33 1    
    65   32   34 1    
    66   32  155 1    
    67   33  156 1    
    68   33  157 1    
    69   33  158 1    
    70   34   35 am   BACKBONE|DICT|INTERRES
    71   34  159 1    
    72   35   36 2    
    73   35   37 1    
    74   37   38 1    
    75   37   39 1    
    76   37  160 1    
    77   38  161 1    
    78   38  162 1    
    79   38  163 1    
    80   39   40 am   BACKBONE|DICT|INTERRES
    81   39  164 1    
    82   40   41 2    
    83   40   42 1    
    84   42   43 1    
    85   42   44 1    
    86   42  165 1    
    87   43  166 1    
    88   43  167 1    
    89   43  168 1    
    90   44   45 am   BACKBONE|DICT|INTERRES
    91   44  169 1    
    92   45   46 2    
    93   45   47 1    
    94   47   48 1    
    95   47   49 1    
    96   47  170 1    
    97   48  171 1    
    98   48  172 1    
    99   48  173 1    
   100   49   50 am   BACKBONE|DICT|INTERRES
   101   49  174 1    
   102   50   51 2    
   103   50   52 1    
   104   52   53 1    
   105   52   54 1    
   106   52  175 1    
   107   53  176 1    
   108   53  177 1    
   109   53  178 1    
   110   54   55 am   BACKBONE|DICT|INTERRES
   111   54  179 1    
   112   55   56 2    
   113   55   57 1    
   114   57   58 1    
   115   57   59 1    
   116   57  180 1    
   117   58  181 1    
   118   58  182 1    
   119   58  183 1    
   120   59   60 am   BACKBONE|DICT|INTERRES
   121   59  184 1    
   122   60   61 2    
   123   60   62 1    
   124   62   63 1    
   125   62   64 1    
   126   62  185 1    
   127   63  186 1    
   128   63  187 1    
   129   63  188 1    
   130   64   65 am   BACKBONE|DICT|INTERRES
   131   64  189 1    
   132   65   66 2    
   133   67   68 2    
   134   67   69 am   BACKBONE|DICT|INTERRES
   135   69   70 1    
   136   69  190 1    
   137   70   71 1    
   138   70   72 1    
   139   70  191 1    
   140   71  192 1    
   141   71  193 1    
   142   71  194 1    
   143   72   73 2    
   144   72   74 am   BACKBONE|DICT|INTERRES
   145   74   75 1    
   146   74  195 1    
   147   75   76 1    
   148   75   77 1    
   149   75  196 1    
   150   76  197 1    
   151   76  198 1    
   152   76  199 1    
   153   77   78 2    
   154   77   79 am   BACKBONE|DICT|INTERRES
   155   79   80 1    
   156   79  200 1    
   157   80   81 1    
   158   80   82 1    
   159   80  201 1    
   160   81  202 1    
   161   81  203 1    
   162   81  204 1    
   163   82   83 2    
   164   82   84 am   BACKBONE|DICT|INTERRES
   165   84   85 1    
   166   84  205 1    
   167   85   86 1    
   168   85   87 1    
   169   85  206 1    
   170   86  207 1    
   171   86  208 1    
   172   86  209 1    
   173   87   88 2    
   174   87   89 am   BACKBONE|DICT|INTERRES
   175   89   90 1    
   176   89  210 1    
   177   90   91 1    
   178   90   92 1    
   179   90  211 1    
   180   91  212 1    
   181   91  213 1    
   182   91  214 1    
   183   92   93 2    
   184   92   94 am   BACKBONE|DICT|INTERRES
   185   94   95 1    
   186   94  215 1    
   187   95   96 1    
   188   95   97 1    
   189   95  216 1    
   190   96  217 1    
   191   96  218 1    
   192   96  219 1    
   193   97   98 2    
   194   97   99 am   BACKBONE|DICT|INTERRES
   195   99  100 1    
   196   99  220 1    
   197  100  101 1    
   198  100  102 1    
   199  100  221 1    
   200  101  222 1    
   201  101  223 1    
   202  101  224 1    
   203  102  103 2    
   204  102  104 am   BACKBONE|DICT|INTERRES
   205  104  105 1    
   206  104  225 1    
   207  105  106 1    
   208  105  107 1    
   209  105  226 1    
   210  106  227 1    
   211  106  228 1    
   212  106  229 1    
   213  107  108 2    
   214  107  109 am   BACKBONE|DICT|INTERRES
   215  109  110 1    
   216  109  230 1    
   217  110  111 1    
   218  110  112 1    
   219  110  231 1    
   220  111  232 1    
   221  111  233 1    
   222  111  234 1    
   223  112  113 2    
   224  112  114 am   BACKBONE|DICT|INTERRES
   225  114  115 1    
   226  114  235 1    
   227  115  116 1    
   228  115  117 1    
   229  115  236 1    
   230  116  237 1    
   231  116  238 1    
   232  116  239 1    
   233  117  118 2    
   234  117  119 am   BACKBONE|DICT|INTERRES
   235  119  120 1    
   236  119  240 1    
   237  120  121 1    
   238  120  124 1    
   239  120  241 1    
   240  121  122 am   BACKBONE|DICT|INTERRES
   241  121  123 2    
   242  122  242 1    
   243  122  243 1    
   244  124  125 1    
   245  124  244 1    
   246  124  245 1    
   247  125  126 1    
   248  126  246 1    
   249  126  247 1    
@<TRIPOS>SUBSTRUCTURE
     1 UNK         1 GROUP             0       ****    0 ROOT    
