@<TRIPOS>MOLECULE
3R540
247   249    1
SMALL
USER_CHARGES


@<TRIPOS>ATOM
      1 CA         -4.3543  -15.2151  -45.6498 C.3       0 UNK        -0.1800 
      2 C          -3.2168  -14.2125  -45.5216 C.2       0 UNK         0.5000 
      3 O          -3.4169  -13.1087  -45.0147 O.2       0 UNK        -0.5000 
      4 N          -2.0149  -14.6014  -45.9631 N.am      1 UNK        -0.5000 
      5 CA         -0.7768  -13.8094  -45.9761 C.3       1 UNK         0.1400 
      6 C6          0.2505  -14.3888  -46.9819 C.3       23 UNK        -0.0398 
      7 S7         -0.3901  -14.5446  -48.6798 S.3       23 UNK        -0.2404 
      8 C8          1.0747  -15.2167  -49.5294 C.3       23 UNK        -0.0205 
      9 C9          0.8605  -16.6270  -50.0666 C.ar      23 UNK        -0.0193 
     10 C10        -0.0303  -16.8375  -51.1240 C.ar      23 UNK        -0.1150 
     11 C11        -0.1394  -18.0956  -51.7208 C.ar      23 UNK        -0.0193 
     12 C12         0.6439  -19.1514  -51.2467 C.ar      23 UNK        -0.1150 
     13 C13         1.5311  -18.9627  -50.1837 C.ar      23 UNK        -0.0193 
     14 C14         1.6231  -17.6994  -49.5862 C.ar      23 UNK        -0.1150 
     15 C15         2.4678  -20.0927  -49.7658 C.3       23 UNK        -0.0205 
     16 S16         1.6029  -21.6064  -49.2295 S.3       23 UNK        -0.2404 
     17 C17         1.1199  -21.1426  -47.5346 C.3       23 UNK        -0.0398 
     18 CA         -0.2808  -21.6436  -47.1105 C.3       11 UNK         0.1400 
     19 N          -0.5169  -21.4013  -45.6843 N.am      11 UNK        -0.5000 
     20 C          -1.6014  -21.7814  -44.9935 C.2       10 UNK         0.5000 
     21 O          -2.5208  -22.4462  -45.4687 O.2       10 UNK        -0.5000 
     22 CA         -1.7029  -21.2836  -43.5394 C.3       10 UNK         0.1400 
     23 CB         -0.8537  -22.1496  -42.5973 C.3       10 UNK        -0.1800 
     24 N          -1.3180  -19.8782  -43.3999 N.am      10 UNK        -0.5000 
     25 C          -1.9524  -18.8572  -43.9935 C.2       9 UNK         0.5000 
     26 O          -2.9626  -18.9819  -44.6833 O.2       9 UNK        -0.5000 
     27 CA         -1.3198  -17.4663  -43.8433 C.3       9 UNK         0.1400 
     28 CB         -1.6479  -16.8600  -42.4733 C.3       9 UNK        -0.1800 
     29 N           0.1257  -17.4824  -44.0709 N.am      9 UNK        -0.5000 
     30 C           0.7010  -17.8282  -45.2323 C.2       8 UNK         0.5000 
     31 O           0.0650  -18.0678  -46.2572 O.2       8 UNK        -0.5000 
     32 CA          2.2322  -17.9895  -45.2420 C.3       8 UNK         0.1400 
     33 CB          2.9446  -16.6597  -45.5239 C.3       8 UNK        -0.1800 
     34 N           2.7223  -18.5567  -43.9875 N.am      8 UNK        -0.5000 
     35 C           2.5310  -19.8294  -43.6127 C.2       7 UNK         0.5000 
     36 O           1.9655  -20.6679  -44.3136 O.2       7 UNK        -0.5000 
     37 CA          3.0108  -20.2126  -42.2007 C.3       7 UNK         0.1400 
     38 CB          4.5012  -20.5823  -42.2181 C.3       7 UNK        -0.1800 
     39 N           2.7883  -19.1395  -41.2301 N.am      7 UNK        -0.5000 
     40 C           1.5791  -18.7198  -40.8300 C.2       6 UNK         0.5000 
     41 O           0.5262  -19.2510  -41.1814 O.2       6 UNK        -0.5000 
     42 CA          1.5431  -17.4622  -39.9374 C.3       6 UNK         0.1400 
     43 CB          1.6400  -17.8483  -38.4545 C.3       6 UNK        -0.1800 
     44 N           2.6081  -16.5071  -40.2648 N.am      6 UNK        -0.5000 
     45 C           2.6933  -15.8504  -41.4289 C.2       5 UNK         0.5000 
     46 O           1.8438  -15.9339  -42.3168 O.2       5 UNK        -0.5000 
     47 CA          3.9809  -15.0546  -41.6751 C.3       5 UNK         0.1400 
     48 CB          5.1156  -16.0276  -42.0643 C.3       5 UNK        -0.1800 
     49 N           3.7644  -14.0686  -42.7341 N.am      5 UNK        -0.5000 
     50 C           4.6362  -13.1120  -43.0838 C.2       4 UNK         0.5000 
     51 O           5.7192  -12.9332  -42.5249 O.2       4 UNK        -0.5000 
     52 CA          4.2254  -12.1766  -44.2314 C.3       4 UNK         0.1400 
     53 CB          4.1385  -12.9237  -45.5732 C.3       4 UNK        -0.1800 
     54 N           2.9507  -11.5322  -43.9299 N.am      4 UNK        -0.5000 
     55 C           2.8295  -10.3906  -43.2352 C.2       3 UNK         0.5000 
     56 O           3.7886   -9.7184  -42.8538 O.2       3 UNK        -0.5000 
     57 CA          1.4019   -9.9089  -42.9029 C.3       3 UNK         0.1400 
     58 CB          0.9328   -8.8680  -43.9310 C.3       3 UNK        -0.1800 
     59 N           0.4263  -10.9965  -42.8515 N.am      3 UNK        -0.5000 
     60 C           0.4031  -11.9618  -41.9226 C.2       2 UNK         0.5000 
     61 O           1.1357  -11.9771  -40.9331 O.2       2 UNK        -0.5000 
     62 CA         -0.5771  -13.1261  -42.1575 C.3       2 UNK         0.1400 
     63 CB         -1.8419  -12.9572  -41.3031 C.3       2 UNK        -0.1800 
     64 N          -0.9708  -13.3117  -43.5598 N.am      2 UNK        -0.5000 
     65 C          -0.1493  -13.6304  -44.5684 C.2       1 UNK         0.5000 
     66 O           1.0667  -13.7551  -44.4146 O.2       1 UNK        -0.5000 
     67 C          -1.4004  -21.0444  -47.9863 C.2       11 UNK         0.5000 
     68 O          -1.9709  -21.7597  -48.8110 O.2       11 UNK        -0.5000 
     69 N          -1.7205  -19.7638  -47.7587 N.am      12 UNK        -0.5000 
     70 CA         -2.7784  -19.0411  -48.4584 C.3       12 UNK         0.1400 
     71 CB         -2.6996  -17.5526  -48.1011 C.3       12 UNK        -0.1800 
     72 C          -4.1809  -19.6069  -48.1724 C.2       12 UNK         0.5000 
     73 O          -4.9634  -19.7724  -49.1067 O.2       12 UNK        -0.5000 
     74 N          -4.4643  -19.9383  -46.9044 N.am      13 UNK        -0.5000 
     75 CA         -5.7205  -20.5536  -46.4657 C.3       13 UNK         0.1400 
     76 CB         -5.7569  -20.6160  -44.9315 C.3       13 UNK        -0.1800 
     77 C          -5.9523  -21.9506  -47.0718 C.2       13 UNK         0.5000 
     78 O          -7.0829  -22.2765  -47.4348 O.2       13 UNK        -0.5000 
     79 N          -4.8736  -22.7333  -47.2047 N.am      14 UNK        -0.5000 
     80 CA         -4.8629  -24.0334  -47.8759 C.3       14 UNK         0.1400 
     81 CB         -3.6506  -24.8364  -47.3770 C.3       14 UNK        -0.1800 
     82 C          -4.8261  -23.9263  -49.4131 C.2       14 UNK         0.5000 
     83 O          -4.9435  -24.9530  -50.0811 O.2       14 UNK        -0.5000 
     84 N          -4.6119  -22.7170  -49.9515 N.am      15 UNK        -0.5000 
     85 CA         -4.4108  -22.3929  -51.3668 C.3       15 UNK         0.1400 
     86 CB         -5.7223  -22.5726  -52.1554 C.3       15 UNK        -0.1800 
     87 C          -3.2108  -23.1422  -51.9881 C.2       15 UNK         0.5000 
     88 O          -3.2988  -23.6335  -53.1174 O.2       15 UNK        -0.5000 
     89 N          -2.1259  -23.2494  -51.2065 N.am      16 UNK        -0.5000 
     90 CA         -0.9135  -24.0355  -51.4610 C.3       16 UNK         0.1400 
     91 CB         -0.1133  -23.4465  -52.6385 C.3       16 UNK        -0.1800 
     92 C          -1.2143  -25.5411  -51.6316 C.2       16 UNK         0.5000 
     93 O          -0.6414  -26.1911  -52.5062 O.2       16 UNK        -0.5000 
     94 N          -2.1306  -26.0509  -50.7945 N.am      17 UNK        -0.5000 
     95 CA         -2.7298  -27.3895  -50.8332 C.3       17 UNK         0.1400 
     96 CB         -1.6730  -28.4947  -50.6225 C.3       17 UNK        -0.1800 
     97 C          -3.5942  -27.5866  -52.0961 C.2       17 UNK         0.5000 
     98 O          -3.4320  -28.5725  -52.8177 O.2       17 UNK        -0.5000 
     99 N          -4.5012  -26.6235  -52.3209 N.am      18 UNK        -0.5000 
    100 CA        -5.4740  -26.5341  -53.4145 C.3       18 UNK         0.1400 
    101 CB        -6.5774  -27.5966  -53.2318 C.3       18 UNK        -0.1800 
    102 C         -4.8248  -26.5683  -54.8138 C.2       18 UNK         0.5000 
    103 O         -5.2962  -27.2914  -55.6945 O.2       18 UNK        -0.5000 
    104 N         -3.7442  -25.7967  -54.9843 N.am      19 UNK        -0.5000 
    105 CA        -2.9290  -25.7780  -56.1992 C.3       19 UNK         0.1400 
    106 CB        -1.5582  -26.4014  -55.8933 C.3       19 UNK        -0.1800 
    107 C         -2.7518  -24.3651  -56.7735 C.2       19 UNK         0.5000 
    108 O         -2.7349  -24.2191  -57.9967 O.2       19 UNK        -0.5000 
    109 N         -2.6017  -23.3552  -55.9059 N.am      20 UNK        -0.5000 
    110 CA        -2.2668  -21.9866  -56.3101 C.3       20 UNK         0.1400 
    111 CB        -1.2406  -21.4156  -55.3232 C.3       20 UNK        -0.1800 
    112 C         -3.4924  -21.0634  -56.4197 C.2       20 UNK         0.5000 
    113 O         -3.3882  -20.0221  -57.0691 O.2       20 UNK        -0.5000 
    114 N         -4.6195  -21.4543  -55.8013 N.am      21 UNK        -0.5000 
    115 CA        -5.9025  -20.7345  -55.7728 C.3       21 UNK         0.1400 
    116 CB        -6.5679  -20.7658  -57.1647 C.3       21 UNK        -0.1800 
    117 C         -5.7692  -19.3060  -55.1962 C.2       21 UNK         0.5000 
    118 O         -6.1912  -18.3342  -55.8257 O.2       21 UNK        -0.5000 
    119 N         -5.1416  -19.2156  -54.0165 N.am      22 UNK        -0.5000 
    120 CA        -4.7389  -17.9642  -53.3455 C.3       22 UNK         0.1400 
    121 C         -5.9001  -17.0354  -52.8806 C.2       22 UNK         0.5000 
    122 N         -7.1412  -17.5008  -52.8120 N.am      22 UNK        -0.7600 
    123 O         -5.6674  -15.8688  -52.5767 O.2       22 UNK        -0.5000 
    124 C124       -3.7686  -18.2257  -52.1612 C.3       23 UNK        -0.0398 
    125 S125       -2.4325  -19.4017  -52.5600 S.3       23 UNK        -0.2404 
    126 C126       -1.0352  -18.3039  -52.9312 C.3       23 UNK        -0.0205 
    127 H127       -4.0640  -16.1890  -45.2556 H         1 UNK         0.0600 
    128 H128       -4.6393  -15.3335  -46.6952 H         1 UNK         0.0600 
    129 H129       -5.2296  -14.8770  -45.0948 H         1 UNK         0.0600 
    130 H130       -1.9261  -15.5130  -46.3871 H         1 UNK         0.3000 
    131 H131       -1.0340  -12.8052  -46.3190 H         1 UNK         0.0600 
    132 H132        1.1424  -13.7604  -47.0209 H         1 UNK         0.0800 
    133 H133        0.5767  -15.3745  -46.6579 H         1 UNK         0.0800 
    134 H134        1.3166  -14.5597  -50.3659 H         1 UNK         0.0800 
    135 H135        1.9435  -15.1869  -48.8703 H         1 UNK         0.0800 
    136 H136       -0.6073  -16.0077  -51.5073 H         1 UNK         0.1150 
    137 H137        0.5834  -20.1175  -51.7275 H         1 UNK         0.1150 
    138 H138        2.3298  -17.5365  -48.7851 H         1 UNK         0.1150 
    139 H139        3.0982  -20.3443  -50.6196 H         1 UNK         0.0800 
    140 H140        3.1473  -19.7668  -48.9766 H         1 UNK         0.0800 
    141 H141        1.1782  -20.0603  -47.4338 H         1 UNK         0.0800 
    142 H142        1.8766  -21.5494  -46.8628 H         1 UNK         0.0800 
    143 H143       -0.3056  -22.7263  -47.2509 H         1 UNK         0.0600 
    144 H144        0.2163  -20.9048  -45.1879 H         1 UNK         0.3000 
    145 H145       -2.7464  -21.3724  -43.2309 H         1 UNK         0.0600 
    146 H146       -0.9724  -21.8355  -41.5601 H         1 UNK         0.0600 
    147 H147       -1.1514  -23.1972  -42.6571 H         1 UNK         0.0600 
    148 H148        0.2069  -22.0955  -42.8423 H         1 UNK         0.0600 
    149 H149       -0.5219  -19.6767  -42.8024 H         1 UNK         0.3000 
    150 H150       -1.7599  -16.8282  -44.6060 H         1 UNK         0.0600 
    151 H151       -2.7219  -16.7032  -42.3671 H         1 UNK         0.0600 
    152 H152       -1.1646  -15.8961  -42.3472 H         1 UNK         0.0600 
    153 H153       -1.3302  -17.5010  -41.6525 H         1 UNK         0.0600 
    154 H154        0.7204  -17.2029  -43.2972 H         1 UNK         0.3000 
    155 H155        2.4929  -18.6786  -46.0472 H         1 UNK         0.0600 
    156 H156        2.6607  -15.8901  -44.8083 H         1 UNK         0.0600 
    157 H157        2.7019  -16.2910  -46.5202 H         1 UNK         0.0600 
    158 H158        4.0278  -16.7730  -45.4815 H         1 UNK         0.0600 
    159 H159        3.1483  -17.9166  -43.3359 H         1 UNK         0.3000 
    160 H160        2.4428  -21.0886  -41.8803 H         1 UNK         0.0600 
    161 H161        5.1248  -19.7365  -42.5106 H         1 UNK         0.0600 
    162 H162        4.6935  -21.3918  -42.9236 H         1 UNK         0.0600 
    163 H163        4.8343  -20.9220  -41.2372 H         1 UNK         0.0600 
    164 H164        3.6052  -18.6625  -40.8798 H         1 UNK         0.3000 
    165 H165        0.5831  -16.9677  -40.0996 H         1 UNK         0.0600 
    166 H166        1.5410  -16.9731  -37.8121 H         1 UNK         0.0600 
    167 H167        0.8449  -18.5430  -38.1799 H         1 UNK         0.0600 
    168 H168        2.5911  -18.3297  -38.2233 H         1 UNK         0.0600 
    169 H169        3.3416  -16.3960  -39.5793 H         1 UNK         0.3000 
    170 H170        4.2414  -14.5289  -40.7544 H         1 UNK         0.0600 
    171 H171        5.2405  -16.8145  -41.3197 H         1 UNK         0.0600 
    172 H172        4.9199  -16.5091  -43.0227 H         1 UNK         0.0600 
    173 H173        6.0758  -15.5185  -42.1412 H         1 UNK         0.0600 
    174 H174        2.8706  -14.1457  -43.2119 H         1 UNK         0.3000 
    175 H175        5.0014  -11.4152  -44.3370 H         1 UNK         0.0600 
    176 H176        3.3828  -13.7069  -45.5632 H         1 UNK         0.0600 
    177 H177        3.8967  -12.2402  -46.3870 H         1 UNK         0.0600 
    178 H178        5.0914  -13.3951  -45.8166 H         1 UNK         0.0600 
    179 H179        2.1190  -12.0671  -44.1529 H         1 UNK         0.3000 
    180 H180        1.4335   -9.4320  -41.9210 H         1 UNK         0.0600 
    181 H181        0.8675   -9.2931  -44.9334 H         1 UNK         0.0600 
    182 H182        1.6238   -8.0251  -43.9764 H         1 UNK         0.0600 
    183 H183       -0.0475   -8.4688  -43.6698 H         1 UNK         0.0600 
    184 H184       -0.2254  -11.0603  -43.6193 H         1 UNK         0.3000 
    185 H185       -0.0592  -14.0287  -41.8312 H         1 UNK         0.0600 
    186 H186       -1.5900  -12.8435  -40.2479 H         1 UNK         0.0600 
    187 H187       -2.4132  -12.0778  -41.6026 H         1 UNK         0.0600 
    188 H188       -2.4943  -13.8264  -41.3885 H         1 UNK         0.0600 
    189 H189       -1.9539  -13.1871  -43.7849 H         1 UNK         0.3000 
    190 H190       -1.1754  -19.2299  -47.0865 H         1 UNK         0.3000 
    191 H191       -2.5885  -19.1414  -49.5283 H         1 UNK         0.0600 
    192 H192       -1.7312  -17.1420  -48.3844 H         1 UNK         0.0600 
    193 H193       -3.4655  -16.9789  -48.6241 H         1 UNK         0.0600 
    194 H194       -2.8315  -17.3940  -47.0315 H         1 UNK         0.0600 
    195 H195       -3.7838  -19.7314  -46.1764 H         1 UNK         0.3000 
    196 H196       -6.5377  -19.9102  -46.7982 H         1 UNK         0.0600 
    197 H197       -6.6891  -21.0594  -44.5793 H         1 UNK         0.0600 
    198 H198       -5.6857  -19.6197  -44.4950 H         1 UNK         0.0600 
    199 H199       -4.9366  -21.2148  -44.5348 H         1 UNK         0.0600 
    200 H200       -3.9878  -22.4177  -46.8197 H         1 UNK         0.3000 
    201 H201       -5.7692  -24.5793  -47.6064 H         1 UNK         0.0600 
    202 H202       -3.6787  -24.9583  -46.2941 H         1 UNK         0.0600 
    203 H203       -2.7109  -24.3446  -47.6324 H         1 UNK         0.0600 
    204 H204       -3.6307  -25.8357  -47.8135 H         1 UNK         0.0600 
    205 H205       -4.5113  -21.9347  -49.3168 H         1 UNK         0.3000 
    206 H206       -4.1560  -21.3353  -51.3944 H         1 UNK         0.0600 
    207 H207       -6.5025  -21.9188  -51.7658 H         1 UNK         0.0600 
    208 H208       -5.5884  -22.3267  -53.2068 H         1 UNK         0.0600 
    209 H209       -6.0917  -23.5955  -52.1033 H         1 UNK         0.0600 
    210 H210       -2.1458  -22.7641  -50.3096 H         1 UNK         0.3000 
    211 H211       -0.2987  -23.9416  -50.5648 H         1 UNK         0.0600 
    212 H212       -0.6109  -23.6274  -53.5905 H         1 UNK         0.0600 
    213 H213        0.8768  -23.8990  -52.6995 H         1 UNK         0.0600 
    214 H214        0.0268  -22.3718  -52.5244 H         1 UNK         0.0600 
    215 H215       -2.5698  -25.4089  -50.1509 H         1 UNK         0.3000 
    216 H216       -3.4168  -27.4376  -49.9870 H         1 UNK         0.0600 
    217 H217       -2.1501  -29.4690  -50.5122 H         1 UNK         0.0600 
    218 H218       -1.0894  -28.3151  -49.7197 H         1 UNK         0.0600 
    219 H219       -0.9808  -28.5676  -51.4615 H         1 UNK         0.0600 
    220 H220       -4.5704  -25.8849  -51.6237 H         1 UNK         0.3000 
    221 H221       -5.9461  -25.5559  -53.3285 H         1 UNK         0.0600 
    222 H222       -6.1856  -28.6088  -53.3370 H         1 UNK         0.0600 
    223 H223       -7.0404  -27.5170  -52.2482 H         1 UNK         0.0600 
    224 H224       -7.3685  -27.4720  -53.9721 H         1 UNK         0.0600 
    225 H225       -3.4506  -25.1992  -54.2169 H         1 UNK         0.3000 
    226 H226       -3.3973  -26.3765  -56.9831 H         1 UNK         0.0600 
    227 H227       -1.6634  -27.4155  -55.5069 H         1 UNK         0.0600 
    228 H228       -0.9431  -26.4556  -56.7923 H         1 UNK         0.0600 
    229 H229       -1.0083  -25.8184  -55.1539 H         1 UNK         0.0600 
    230 H230       -2.6700  -23.5303  -54.9078 H         1 UNK         0.3000 
    231 H231       -1.7930  -21.9930  -57.2941 H         1 UNK         0.0600 
    232 H232       -1.5987  -21.4826  -54.2975 H         1 UNK         0.0600 
    233 H233       -1.0265  -20.3673  -55.5345 H         1 UNK         0.0600 
    234 H234       -0.2963  -21.9562  -55.3841 H         1 UNK         0.0600 
    235 H235       -4.5914  -22.3348  -55.3077 H         1 UNK         0.3000 
    236 H236       -6.5571  -21.2800  -55.0923 H         1 UNK         0.0600 
    237 H237       -6.6795  -21.7887  -57.5243 H         1 UNK         0.0600 
    238 H238       -7.5643  -20.3237  -57.1311 H         1 UNK         0.0600 
    239 H239       -5.9897  -20.2123  -57.9051 H         1 UNK         0.0600 
    240 H240       -4.7925  -20.0610  -53.5934 H         1 UNK         0.3000 
    241 H241       -4.1849  -17.3904  -54.0908 H         1 UNK         0.0600 
    242 H242       -7.8850  -16.8895  -52.5139 H         1 UNK         0.3800 
    243 H243       -7.3468  -18.4526  -53.0684 H         1 UNK         0.3800 
    244 H244       -3.3325  -17.2923  -51.8004 H         1 UNK         0.0800 
    245 H245       -4.3227  -18.6413  -51.3205 H         1 UNK         0.0800 
    246 H246       -0.4421  -18.7555  -53.7272 H         1 UNK         0.0800 
    247 H247       -1.3975  -17.3543  -53.3278 H         1 UNK         0.0800 
@<TRIPOS>BOND
     1    1    2 1    
     2    1  127 1    
     3    1  128 1    
     4    1  129 1    
     5    2    3 2    
     6    2    4 am   BACKBONE|DICT|INTERRES
     7    4    5 1    
     8    4  130 1    
     9    5    6 1    
    10    5   65 1    
    11    5  131 1    
    12    6    7 1    
    13    6  132 1    
    14    6  133 1    
    15    7    8 1    
    16    8    9 1    
    17    8  134 1    
    18    8  135 1    
    19    9   10 ar   
    20    9   14 ar   
    21   10   11 ar   
    22   10  136 1    
    23   11   12 ar   
    24   11  126 1    
    25   12   13 ar   
    26   12  137 1    
    27   13   14 ar   
    28   13   15 1    
    29   14  138 1    
    30   15   16 1    
    31   15  139 1    
    32   15  140 1    
    33   16   17 1    
    34   17   18 1    
    35   17  141 1    
    36   17  142 1    
    37   18   19 1    
    38   18   67 1    
    39   18  143 1    
    40   19   20 am   BACKBONE|DICT|INTERRES
    41   19  144 1    
    42   20   21 2    
    43   20   22 1    
    44   22   23 1    
    45   22   24 1    
    46   22  145 1    
    47   23  146 1    
    48   23  147 1    
    49   23  148 1    
    50   24   25 am   BACKBONE|DICT|INTERRES
    51   24  149 1    
    52   25   26 2    
    53   25   27 1    
    54   27   28 1    
    55   27   29 1    
    56   27  150 1    
    57   28  151 1    
    58   28  152 1    
    59   28  153 1    
    60   29   30 am   BACKBONE|DICT|INTERRES
    61   29  154 1    
    62   30   31 2    
    63   30   32 1    
    64   32   33 1    
    65   32   34 1    
    66   32  155 1    
    67   33  156 1    
    68   33  157 1    
    69   33  158 1    
    70   34   35 am   BACKBONE|DICT|INTERRES
    71   34  159 1    
    72   35   36 2    
    73   35   37 1    
    74   37   38 1    
    75   37   39 1    
    76   37  160 1    
    77   38  161 1    
    78   38  162 1    
    79   38  163 1    
    80   39   40 am   BACKBONE|DICT|INTERRES
    81   39  164 1    
    82   40   41 2    
    83   40   42 1    
    84   42   43 1    
    85   42   44 1    
    86   42  165 1    
    87   43  166 1    
    88   43  167 1    
    89   43  168 1    
    90   44   45 am   BACKBONE|DICT|INTERRES
    91   44  169 1    
    92   45   46 2    
    93   45   47 1    
    94   47   48 1    
    95   47   49 1    
    96   47  170 1    
    97   48  171 1    
    98   48  172 1    
    99   48  173 1    
   100   49   50 am   BACKBONE|DICT|INTERRES
   101   49  174 1    
   102   50   51 2    
   103   50   52 1    
   104   52   53 1    
   105   52   54 1    
   106   52  175 1    
   107   53  176 1    
   108   53  177 1    
   109   53  178 1    
   110   54   55 am   BACKBONE|DICT|INTERRES
   111   54  179 1    
   112   55   56 2    
   113   55   57 1    
   114   57   58 1    
   115   57   59 1    
   116   57  180 1    
   117   58  181 1    
   118   58  182 1    
   119   58  183 1    
   120   59   60 am   BACKBONE|DICT|INTERRES
   121   59  184 1    
   122   60   61 2    
   123   60   62 1    
   124   62   63 1    
   125   62   64 1    
   126   62  185 1    
   127   63  186 1    
   128   63  187 1    
   129   63  188 1    
   130   64   65 am   BACKBONE|DICT|INTERRES
   131   64  189 1    
   132   65   66 2    
   133   67   68 2    
   134   67   69 am   BACKBONE|DICT|INTERRES
   135   69   70 1    
   136   69  190 1    
   137   70   71 1    
   138   70   72 1    
   139   70  191 1    
   140   71  192 1    
   141   71  193 1    
   142   71  194 1    
   143   72   73 2    
   144   72   74 am   BACKBONE|DICT|INTERRES
   145   74   75 1    
   146   74  195 1    
   147   75   76 1    
   148   75   77 1    
   149   75  196 1    
   150   76  197 1    
   151   76  198 1    
   152   76  199 1    
   153   77   78 2    
   154   77   79 am   BACKBONE|DICT|INTERRES
   155   79   80 1    
   156   79  200 1    
   157   80   81 1    
   158   80   82 1    
   159   80  201 1    
   160   81  202 1    
   161   81  203 1    
   162   81  204 1    
   163   82   83 2    
   164   82   84 am   BACKBONE|DICT|INTERRES
   165   84   85 1    
   166   84  205 1    
   167   85   86 1    
   168   85   87 1    
   169   85  206 1    
   170   86  207 1    
   171   86  208 1    
   172   86  209 1    
   173   87   88 2    
   174   87   89 am   BACKBONE|DICT|INTERRES
   175   89   90 1    
   176   89  210 1    
   177   90   91 1    
   178   90   92 1    
   179   90  211 1    
   180   91  212 1    
   181   91  213 1    
   182   91  214 1    
   183   92   93 2    
   184   92   94 am   BACKBONE|DICT|INTERRES
   185   94   95 1    
   186   94  215 1    
   187   95   96 1    
   188   95   97 1    
   189   95  216 1    
   190   96  217 1    
   191   96  218 1    
   192   96  219 1    
   193   97   98 2    
   194   97   99 am   BACKBONE|DICT|INTERRES
   195   99  100 1    
   196   99  220 1    
   197  100  101 1    
   198  100  102 1    
   199  100  221 1    
   200  101  222 1    
   201  101  223 1    
   202  101  224 1    
   203  102  103 2    
   204  102  104 am   BACKBONE|DICT|INTERRES
   205  104  105 1    
   206  104  225 1    
   207  105  106 1    
   208  105  107 1    
   209  105  226 1    
   210  106  227 1    
   211  106  228 1    
   212  106  229 1    
   213  107  108 2    
   214  107  109 am   BACKBONE|DICT|INTERRES
   215  109  110 1    
   216  109  230 1    
   217  110  111 1    
   218  110  112 1    
   219  110  231 1    
   220  111  232 1    
   221  111  233 1    
   222  111  234 1    
   223  112  113 2    
   224  112  114 am   BACKBONE|DICT|INTERRES
   225  114  115 1    
   226  114  235 1    
   227  115  116 1    
   228  115  117 1    
   229  115  236 1    
   230  116  237 1    
   231  116  238 1    
   232  116  239 1    
   233  117  118 2    
   234  117  119 am   BACKBONE|DICT|INTERRES
   235  119  120 1    
   236  119  240 1    
   237  120  121 1    
   238  120  124 1    
   239  120  241 1    
   240  121  122 am   BACKBONE|DICT|INTERRES
   241  121  123 2    
   242  122  242 1    
   243  122  243 1    
   244  124  125 1    
   245  124  244 1    
   246  124  245 1    
   247  125  126 1    
   248  126  246 1    
   249  126  247 1    
@<TRIPOS>SUBSTRUCTURE
     1 UNK         1 GROUP             0       ****    0 ROOT    
