@<TRIPOS>MOLECULE
3R540
247   249    1
SMALL
USER_CHARGES


@<TRIPOS>ATOM
      1 CA         -3.1281  -15.0142  -47.6513 C.3       0 UNK        -0.1800 
      2 C          -2.4409  -13.8226  -48.3026 C.2       0 UNK         0.5000 
      3 O          -3.0992  -12.8271  -48.6016 O.2       0 UNK        -0.5000 
      4 N          -1.1195  -13.9088  -48.5053 N.am      1 UNK        -0.5000 
      5 CA         -0.2861  -12.8499  -49.0942 C.3       1 UNK         0.1400 
      6 C6          0.9047  -13.4279  -49.9019 C.3       23 UNK        -0.0398 
      7 S7          2.0122  -14.5320  -48.9517 S.3       23 UNK        -0.2404 
      8 C8          2.3796  -15.8295  -50.1823 C.3       23 UNK        -0.0205 
      9 C9          1.5096  -17.0724  -50.0255 C.ar      23 UNK        -0.0193 
     10 C10         0.1146  -16.9888  -50.0859 C.ar      23 UNK        -0.1150 
     11 C11        -0.6795  -18.1328  -49.9529 C.ar      23 UNK        -0.0193 
     12 C12        -0.0638  -19.3728  -49.7565 C.ar      23 UNK        -0.1150 
     13 C13         1.3299  -19.4758  -49.7089 C.ar      23 UNK        -0.0193 
     14 C14         2.1088  -18.3231  -49.8439 C.ar      23 UNK        -0.1150 
     15 C15         1.9925  -20.8387  -49.5560 C.3       23 UNK        -0.0205 
     16 S16         2.9804  -21.0148  -48.0317 S.3       23 UNK        -0.2404 
     17 C17         1.7789  -20.6803  -46.7015 C.3       23 UNK        -0.0398 
     18 CA          1.0197  -21.9381  -46.2094 C.3       11 UNK         0.1400 
     19 N           0.7142  -21.8948  -44.7725 N.am      11 UNK        -0.5000 
     20 C           0.2559  -22.9500  -44.0803 C.2       10 UNK         0.5000 
     21 O           0.0832  -24.0664  -44.5693 O.2       10 UNK        -0.5000 
     22 CA         -0.1321  -22.7038  -42.6143 C.3       10 UNK         0.1400 
     23 CB          1.0994  -22.7335  -41.7005 C.3       10 UNK        -0.1800 
     24 N          -0.8454  -21.4414  -42.4312 N.am      10 UNK        -0.5000 
     25 C          -2.0899  -21.2029  -42.8637 C.2       9 UNK         0.5000 
     26 O          -2.7307  -22.0128  -43.5330 O.2       9 UNK        -0.5000 
     27 CA         -2.7231  -19.8336  -42.5446 C.3       9 UNK         0.1400 
     28 CB         -4.0975  -19.9828  -41.8629 C.3       9 UNK        -0.1800 
     29 N          -1.8529  -18.9096  -41.8061 N.am      9 UNK        -0.5000 
     30 C          -1.4308  -18.9764  -40.5327 C.2       8 UNK         0.5000 
     31 O          -1.7531  -19.8722  -39.7527 O.2       8 UNK        -0.5000 
     32 CA         -0.4512  -17.8824  -40.0529 C.3       8 UNK         0.1400 
     33 CB          0.8858  -18.5046  -39.6142 C.3       8 UNK        -0.1800 
     34 N          -0.1771  -16.8794  -41.0836 N.am      8 UNK        -0.5000 
     35 C          -0.9104  -15.7815  -41.3143 C.2       7 UNK         0.5000 
     36 O          -1.8604  -15.4325  -40.6139 O.2       7 UNK        -0.5000 
     37 CA         -0.5371  -14.9545  -42.5629 C.3       7 UNK         0.1400 
     38 CB          0.3842  -13.7867  -42.1798 C.3       7 UNK        -0.1800 
     39 N           0.1110  -15.7494  -43.6112 N.am      7 UNK        -0.5000 
     40 C          -0.4626  -16.7554  -44.2845 C.2       6 UNK         0.5000 
     41 O          -1.6349  -17.0947  -44.1384 O.2       6 UNK        -0.5000 
     42 CA          0.4459  -17.5659  -45.2203 C.3       6 UNK         0.1400 
     43 CB          0.5305  -16.9081  -46.6000 C.3       6 UNK        -0.1800 
     44 N           1.7959  -17.7353  -44.6773 N.am      6 UNK        -0.5000 
     45 C           2.1070  -18.5502  -43.6596 C.2       5 UNK         0.5000 
     46 O           1.2716  -19.2659  -43.1042 O.2       5 UNK        -0.5000 
     47 CA          3.5837  -18.6136  -43.2085 C.3       5 UNK         0.1400 
     48 CB          4.0414  -20.0697  -43.0298 C.3       5 UNK        -0.1800 
     49 N           4.4960  -17.9669  -44.1582 N.am      5 UNK        -0.5000 
     50 C           4.9633  -16.7108  -44.1491 C.2       4 UNK         0.5000 
     51 O           5.7520  -16.3238  -45.0120 O.2       4 UNK        -0.5000 
     52 CA          4.5324  -15.7226  -43.0393 C.3       4 UNK         0.1400 
     53 CB          5.5550  -15.7111  -41.8933 C.3       4 UNK        -0.1800 
     54 N           4.3885  -14.3669  -43.5701 N.am      4 UNK        -0.5000 
     55 C           3.4124  -14.0104  -44.4110 C.2       3 UNK         0.5000 
     56 O           2.5044  -14.7744  -44.7519 O.2       3 UNK        -0.5000 
     57 CA          3.4451  -12.5768  -44.9548 C.3       3 UNK         0.1400 
     58 CB          4.4125  -12.4590  -46.1432 C.3       3 UNK        -0.1800 
     59 N           2.0982  -12.2416  -45.3962 N.am      3 UNK        -0.5000 
     60 C           1.4810  -11.0672  -45.2408 C.2       2 UNK         0.5000 
     61 O           2.0234  -10.0670  -44.7673 O.2       2 UNK        -0.5000 
     62 CA         -0.0030  -11.0270  -45.6657 C.3       2 UNK         0.1400 
     63 CB         -0.5314   -9.5957  -45.8989 C.3       2 UNK        -0.1800 
     64 N          -0.2990  -11.8983  -46.8112 N.am      2 UNK        -0.5000 
     65 C           0.1615  -11.7800  -48.0676 C.2       1 UNK         0.5000 
     66 O           0.9074  -10.8715  -48.4360 O.2       1 UNK        -0.5000 
     67 C          -0.2592  -22.1684  -47.0373 C.2       11 UNK         0.5000 
     68 O          -0.2529  -22.9806  -47.9608 O.2       11 UNK        -0.5000 
     69 N          -1.3461  -21.4781  -46.6610 N.am      12 UNK        -0.5000 
     70 CA         -2.6573  -21.6030  -47.2932 C.3       12 UNK         0.1400 
     71 CB         -3.5995  -20.5137  -46.7609 C.3       12 UNK        -0.1800 
     72 C          -3.2628  -23.0067  -47.1203 C.2       12 UNK         0.5000 
     73 O          -3.7965  -23.5490  -48.0859 O.2       12 UNK        -0.5000 
     74 N          -3.1276  -23.5918  -45.9234 N.am      13 UNK        -0.5000 
     75 CA         -3.5325  -24.9672  -45.6339 C.3       13 UNK         0.1400 
     76 CB         -3.4234  -25.2285  -44.1239 C.3       13 UNK        -0.1800 
     77 C          -2.7199  -26.0062  -46.4299 C.2       13 UNK         0.5000 
     78 O          -3.3039  -26.9469  -46.9688 O.2       13 UNK        -0.5000 
     79 N          -1.3960  -25.8104  -46.5021 N.am      14 UNK        -0.5000 
     80 CA         -0.4654  -26.6960  -47.2015 C.3       14 UNK         0.1400 
     81 CB          0.9750  -26.3414  -46.8004 C.3       14 UNK        -0.1800 
     82 C          -0.6225  -26.6623  -48.7326 C.2       14 UNK         0.5000 
     83 O          -0.6424  -27.7201  -49.3631 O.2       14 UNK        -0.5000 
     84 N          -0.7187  -25.4546  -49.3028 N.am      15 UNK        -0.5000 
     85 CA         -0.7255  -25.2193  -50.7487 C.3       15 UNK         0.1400 
     86 CB          0.0590  -23.9288  -51.0374 C.3       15 UNK        -0.1800 
     87 C          -2.1386  -25.1488  -51.3591 C.2       15 UNK         0.5000 
     88 O          -2.2542  -24.8353  -52.5448 O.2       15 UNK        -0.5000 
     89 N          -3.1841  -25.3977  -50.5554 N.am      16 UNK        -0.5000 
     90 CA         -4.6080  -25.3320  -50.9149 C.3       16 UNK         0.1400 
     91 CB         -4.9747  -26.4579  -51.9039 C.3       16 UNK        -0.1800 
     92 C          -5.0012  -23.9305  -51.4253 C.2       16 UNK         0.5000 
     93 O          -5.4930  -23.7797  -52.5457 O.2       16 UNK        -0.5000 
     94 N          -4.6972  -22.9215  -50.5978 N.am      17 UNK        -0.5000 
     95 CA         -4.8242  -21.4848  -50.8549 C.3       17 UNK         0.1400 
     96 CB         -6.3104  -21.0748  -50.9169 C.3       17 UNK        -0.1800 
     97 C          -4.0054  -21.0349  -52.0824 C.2       17 UNK         0.5000 
     98 O          -4.4788  -20.2141  -52.8657 O.2       17 UNK        -0.5000 
     99 N          -2.8029  -21.6131  -52.2329 N.am      18 UNK        -0.5000 
    100 CA        -1.8834  -21.4638  -53.3682 C.3       18 UNK         0.1400 
    101 CB        -1.2923  -20.0405  -53.4134 C.3       18 UNK        -0.1800 
    102 C         -2.5414  -21.8899  -54.6961 C.2       18 UNK         0.5000 
    103 O         -2.5498  -21.1241  -55.6596 O.2       18 UNK        -0.5000 
    104 N         -3.1326  -23.0939  -54.6957 N.am      19 UNK        -0.5000 
    105 CA        -3.9747  -23.6592  -55.7567 C.3       19 UNK         0.1400 
    106 CB        -3.1266  -24.0187  -56.9941 C.3       19 UNK        -0.1800 
    107 C         -5.1792  -22.7481  -56.0843 C.2       19 UNK         0.5000 
    108 O         -5.4421  -22.4491  -57.2504 O.2       19 UNK        -0.5000 
    109 N         -5.8590  -22.2991  -55.0205 N.am      20 UNK        -0.5000 
    110 CA        -7.0034  -21.3828  -54.9831 C.3       20 UNK         0.1400 
    111 CB        -8.2037  -21.9641  -55.7581 C.3       20 UNK        -0.1800 
    112 C         -6.7075  -19.9207  -55.3877 C.2       20 UNK         0.5000 
    113 O         -7.6396  -19.1140  -55.3950 O.2       20 UNK        -0.5000 
    114 N         -5.4457  -19.5669  -55.6771 N.am      21 UNK        -0.5000 
    115 CA        -5.0319  -18.2113  -56.0583 C.3       21 UNK         0.1400 
    116 CB        -3.5741  -18.2256  -56.5381 C.3       21 UNK        -0.1800 
    117 C         -5.2195  -17.1641  -54.9423 C.2       21 UNK         0.5000 
    118 O         -5.4850  -16.0009  -55.2493 O.2       21 UNK        -0.5000 
    119 N         -5.1095  -17.5919  -53.6786 N.am      22 UNK        -0.5000 
    120 CA        -5.4015  -16.7774  -52.4877 C.3       22 UNK         0.1400 
    121 C         -6.9212  -16.6768  -52.1533 C.2       22 UNK         0.5000 
    122 N         -7.8231  -17.3188  -52.8884 N.am      22 UNK        -0.7600 
    123 O         -7.2956  -15.9891  -51.2074 O.2       22 UNK        -0.5000 
    124 C124       -4.5881  -17.2364  -51.2476 C.3       23 UNK        -0.0398 
    125 S125       -2.7856  -17.1982  -51.5177 S.3       23 UNK        -0.2404 
    126 C126       -2.1989  -18.0288  -50.0058 C.3       23 UNK        -0.0205 
    127 H127       -3.8361  -15.4640  -48.3467 H         1 UNK         0.0600 
    128 H128       -3.6778  -14.6923  -46.7669 H         1 UNK         0.0600 
    129 H129       -2.4162  -15.7780  -47.3429 H         1 UNK         0.0600 
    130 H130       -0.6202  -14.7453  -48.2393 H         1 UNK         0.3000 
    131 H131       -0.9002  -12.3058  -49.8152 H         1 UNK         0.0600 
    132 H132        0.5080  -13.9687  -50.7611 H         1 UNK         0.0800 
    133 H133        1.5082  -12.6260  -50.3307 H         1 UNK         0.0800 
    134 H134        2.2758  -15.4387  -51.1951 H         1 UNK         0.0800 
    135 H135        3.4322  -16.0948  -50.0736 H         1 UNK         0.0800 
    136 H136       -0.3613  -16.0330  -50.2421 H         1 UNK         0.1150 
    137 H137       -0.6687  -20.2630  -49.6587 H         1 UNK         0.1150 
    138 H138        3.1861  -18.4059  -49.8102 H         1 UNK         0.1150 
    139 H139        1.2515  -21.6350  -49.5953 H         1 UNK         0.0800 
    140 H140        2.6480  -21.0033  -50.4121 H         1 UNK         0.0800 
    141 H141        1.1057  -19.8742  -46.9931 H         1 UNK         0.0800 
    142 H142        2.3782  -20.2795  -45.8870 H         1 UNK         0.0800 
    143 H143        1.6641  -22.8072  -46.3607 H         1 UNK         0.0600 
    144 H144        0.8261  -21.0129  -44.2864 H         1 UNK         0.3000 
    145 H145       -0.7963  -23.5153  -42.3090 H         1 UNK         0.0600 
    146 H146        0.8120  -22.6632  -40.6512 H         1 UNK         0.0600 
    147 H147        1.6589  -23.6616  -41.8246 H         1 UNK         0.0600 
    148 H148        1.7748  -21.9083  -41.9168 H         1 UNK         0.0600 
    149 H149       -0.3534  -20.7015  -41.9506 H         1 UNK         0.3000 
    150 H150       -2.8969  -19.3622  -43.5123 H         1 UNK         0.0600 
    151 H151       -4.5469  -19.0099  -41.6640 H         1 UNK         0.0600 
    152 H152       -4.7900  -20.5347  -42.4998 H         1 UNK         0.0600 
    153 H153       -4.0288  -20.5225  -40.9183 H         1 UNK         0.0600 
    154 H154       -1.5330  -18.1255  -42.3622 H         1 UNK         0.3000 
    155 H155       -0.9022  -17.3972  -39.1848 H         1 UNK         0.0600 
    156 H156        1.3686  -19.0464  -40.4277 H         1 UNK         0.0600 
    157 H157        0.7395  -19.2098  -38.7951 H         1 UNK         0.0600 
    158 H158        1.5793  -17.7412  -39.2613 H         1 UNK         0.0600 
    159 H159        0.5722  -17.0927  -41.7243 H         1 UNK         0.3000 
    160 H160       -1.4617  -14.5440  -42.9741 H         1 UNK         0.0600 
    161 H161        1.3453  -14.1391  -41.8030 H         1 UNK         0.0600 
    162 H162       -0.0679  -13.1685  -41.4031 H         1 UNK         0.0600 
    163 H163        0.5760  -13.1406  -43.0354 H         1 UNK         0.0600 
    164 H164        1.0621  -15.4915  -43.8641 H         1 UNK         0.3000 
    165 H165       -0.0025  -18.5537  -45.3416 H         1 UNK         0.0600 
    166 H166        1.2595  -17.4152  -47.2301 H         1 UNK         0.0600 
    167 H167       -0.4296  -16.9566  -47.1116 H         1 UNK         0.0600 
    168 H168        0.8222  -15.8602  -46.5334 H         1 UNK         0.0600 
    169 H169        2.5166  -17.1520  -45.0809 H         1 UNK         0.3000 
    170 H170        3.6515  -18.1432  -42.2275 H         1 UNK         0.0600 
    171 H171        3.5181  -20.5399  -42.1987 H         1 UNK         0.0600 
    172 H172        3.8607  -20.6700  -43.9223 H         1 UNK         0.0600 
    173 H173        5.1058  -20.1242  -42.8002 H         1 UNK         0.0600 
    174 H174        4.8052  -18.5632  -44.9119 H         1 UNK         0.3000 
    175 H175        3.5599  -16.0029  -42.6341 H         1 UNK         0.0600 
    176 H176        6.5412  -15.3967  -42.2374 H         1 UNK         0.0600 
    177 H177        5.2463  -15.0355  -41.0953 H         1 UNK         0.0600 
    178 H178        5.6625  -16.7038  -41.4544 H         1 UNK         0.0600 
    179 H179        5.1262  -13.7123  -43.3545 H         1 UNK         0.3000 
    180 H180        3.7594  -11.9079  -44.1509 H         1 UNK         0.0600 
    181 H181        4.1348  -13.1339  -46.9542 H         1 UNK         0.0600 
    182 H182        5.4328  -12.7038  -45.8458 H         1 UNK         0.0600 
    183 H183        4.4230  -11.4447  -46.5425 H         1 UNK         0.0600 
    184 H184        1.5744  -13.0320  -45.7481 H         1 UNK         0.3000 
    185 H185       -0.5608  -11.4415  -44.8247 H         1 UNK         0.0600 
    186 H186       -0.4583   -8.9997  -44.9885 H         1 UNK         0.0600 
    187 H187        0.0311   -9.0746  -46.6739 H         1 UNK         0.0600 
    188 H188       -1.5805   -9.6060  -46.1946 H         1 UNK         0.0600 
    189 H189       -0.9146  -12.6758  -46.6222 H         1 UNK         0.3000 
    190 H190       -1.2853  -20.8739  -45.8568 H         1 UNK         0.3000 
    191 H191       -2.5219  -21.4356  -48.3635 H         1 UNK         0.0600 
    192 H192       -3.1952  -19.5177  -46.9437 H         1 UNK         0.0600 
    193 H193       -4.5711  -20.5651  -47.2541 H         1 UNK         0.0600 
    194 H194       -3.7717  -20.6153  -45.6892 H         1 UNK         0.0600 
    195 H195       -2.7395  -23.0592  -45.1502 H         1 UNK         0.3000 
    196 H196       -4.5807  -25.0749  -45.9207 H         1 UNK         0.0600 
    197 H197       -3.7311  -26.2459  -43.8794 H         1 UNK         0.0600 
    198 H198       -4.0644  -24.5502  -43.5603 H         1 UNK         0.0600 
    199 H199       -2.4023  -25.0975  -43.7646 H         1 UNK         0.0600 
    200 H200       -0.9868  -25.0309  -45.9968 H         1 UNK         0.3000 
    201 H201       -0.6628  -27.7181  -46.8714 H         1 UNK         0.0600 
    202 H202        1.1243  -26.4582  -45.7269 H         1 UNK         0.0600 
    203 H203        1.2243  -25.3123  -47.0617 H         1 UNK         0.0600 
    204 H204        1.6931  -26.9919  -47.3012 H         1 UNK         0.0600 
    205 H205       -0.6700  -24.6246  -48.7146 H         1 UNK         0.3000 
    206 H206       -0.2048  -26.0372  -51.2507 H         1 UNK         0.0600 
    207 H207        1.0405  -23.9506  -50.5635 H         1 UNK         0.0600 
    208 H208        0.2250  -23.8036  -52.1074 H         1 UNK         0.0600 
    209 H209       -0.4689  -23.0460  -50.6757 H         1 UNK         0.0600 
    210 H210       -2.9861  -25.5957  -49.5840 H         1 UNK         0.3000 
    211 H211       -5.1712  -25.4998  -49.9956 H         1 UNK         0.0600 
    212 H212       -4.4694  -26.3408  -52.8631 H         1 UNK         0.0600 
    213 H213       -6.0474  -26.4679  -52.1005 H         1 UNK         0.0600 
    214 H214       -4.7086  -27.4357  -51.5025 H         1 UNK         0.0600 
    215 H215       -4.3128  -23.1739  -49.6863 H         1 UNK         0.3000 
    216 H216       -4.3822  -20.9742  -49.9990 H         1 UNK         0.0600 
    217 H217       -6.8419  -21.5938  -51.7125 H         1 UNK         0.0600 
    218 H218       -6.4284  -20.0051  -51.0896 H         1 UNK         0.0600 
    219 H219       -6.8156  -21.3061  -49.9793 H         1 UNK         0.0600 
    220 H220       -2.5435  -22.3157  -51.5576 H         1 UNK         0.3000 
    221 H221       -1.0582  -22.1554  -53.2016 H         1 UNK         0.0600 
    222 H222       -2.0595  -19.2879  -53.5935 H         1 UNK         0.0600 
    223 H223       -0.7933  -19.7907  -52.4785 H         1 UNK         0.0600 
    224 H224       -0.5525  -19.9490  -54.2091 H         1 UNK         0.0600 
    225 H225       -3.0408  -23.6669  -53.8601 H         1 UNK         0.3000 
    226 H226       -4.3892  -24.5862  -55.3577 H         1 UNK         0.0600 
    227 H227       -2.3013  -24.6784  -56.7266 H         1 UNK         0.0600 
    228 H228       -3.7282  -24.5380  -57.7409 H         1 UNK         0.0600 
    229 H229       -2.7068  -23.1327  -57.4712 H         1 UNK         0.0600 
    230 H230       -5.5644  -22.6438  -54.1098 H         1 UNK         0.3000 
    231 H231       -7.2963  -21.3343  -53.9352 H         1 UNK         0.0600 
    232 H232       -8.0253  -21.9791  -56.8334 H         1 UNK         0.0600 
    233 H233       -9.1035  -21.3718  -55.5880 H         1 UNK         0.0600 
    234 H234       -8.4239  -22.9827  -55.4385 H         1 UNK         0.0600 
    235 H235       -4.7131  -20.2614  -55.6006 H         1 UNK         0.3000 
    236 H236       -5.6571  -17.9060  -56.8998 H         1 UNK         0.0600 
    237 H237       -3.4268  -18.9494  -57.3399 H         1 UNK         0.0600 
    238 H238       -3.2811  -17.2480  -56.9226 H         1 UNK         0.0600 
    239 H239       -2.8889  -18.4751  -55.7279 H         1 UNK         0.0600 
    240 H240       -4.8776  -18.5688  -53.5036 H         1 UNK         0.3000 
    241 H241       -5.0892  -15.7540  -52.7037 H         1 UNK         0.0600 
    242 H242       -7.5530  -17.8661  -53.6963 H         1 UNK         0.3800 
    243 H243       -8.7991  -17.2307  -52.6543 H         1 UNK         0.3800 
    244 H244       -4.8791  -18.2443  -50.9546 H         1 UNK         0.0800 
    245 H245       -4.8037  -16.5948  -50.3917 H         1 UNK         0.0800 
    246 H246       -2.6506  -19.0199  -49.9534 H         1 UNK         0.0800 
    247 H247       -2.5462  -17.4817  -49.1302 H         1 UNK         0.0800 
@<TRIPOS>BOND
     1    1    2 1    
     2    1  127 1    
     3    1  128 1    
     4    1  129 1    
     5    2    3 2    
     6    2    4 am   BACKBONE|DICT|INTERRES
     7    4    5 1    
     8    4  130 1    
     9    5    6 1    
    10    5   65 1    
    11    5  131 1    
    12    6    7 1    
    13    6  132 1    
    14    6  133 1    
    15    7    8 1    
    16    8    9 1    
    17    8  134 1    
    18    8  135 1    
    19    9   10 ar   
    20    9   14 ar   
    21   10   11 ar   
    22   10  136 1    
    23   11   12 ar   
    24   11  126 1    
    25   12   13 ar   
    26   12  137 1    
    27   13   14 ar   
    28   13   15 1    
    29   14  138 1    
    30   15   16 1    
    31   15  139 1    
    32   15  140 1    
    33   16   17 1    
    34   17   18 1    
    35   17  141 1    
    36   17  142 1    
    37   18   19 1    
    38   18   67 1    
    39   18  143 1    
    40   19   20 am   BACKBONE|DICT|INTERRES
    41   19  144 1    
    42   20   21 2    
    43   20   22 1    
    44   22   23 1    
    45   22   24 1    
    46   22  145 1    
    47   23  146 1    
    48   23  147 1    
    49   23  148 1    
    50   24   25 am   BACKBONE|DICT|INTERRES
    51   24  149 1    
    52   25   26 2    
    53   25   27 1    
    54   27   28 1    
    55   27   29 1    
    56   27  150 1    
    57   28  151 1    
    58   28  152 1    
    59   28  153 1    
    60   29   30 am   BACKBONE|DICT|INTERRES
    61   29  154 1    
    62   30   31 2    
    63   30   32 1    
    64   32   33 1    
    65   32   34 1    
    66   32  155 1    
    67   33  156 1    
    68   33  157 1    
    69   33  158 1    
    70   34   35 am   BACKBONE|DICT|INTERRES
    71   34  159 1    
    72   35   36 2    
    73   35   37 1    
    74   37   38 1    
    75   37   39 1    
    76   37  160 1    
    77   38  161 1    
    78   38  162 1    
    79   38  163 1    
    80   39   40 am   BACKBONE|DICT|INTERRES
    81   39  164 1    
    82   40   41 2    
    83   40   42 1    
    84   42   43 1    
    85   42   44 1    
    86   42  165 1    
    87   43  166 1    
    88   43  167 1    
    89   43  168 1    
    90   44   45 am   BACKBONE|DICT|INTERRES
    91   44  169 1    
    92   45   46 2    
    93   45   47 1    
    94   47   48 1    
    95   47   49 1    
    96   47  170 1    
    97   48  171 1    
    98   48  172 1    
    99   48  173 1    
   100   49   50 am   BACKBONE|DICT|INTERRES
   101   49  174 1    
   102   50   51 2    
   103   50   52 1    
   104   52   53 1    
   105   52   54 1    
   106   52  175 1    
   107   53  176 1    
   108   53  177 1    
   109   53  178 1    
   110   54   55 am   BACKBONE|DICT|INTERRES
   111   54  179 1    
   112   55   56 2    
   113   55   57 1    
   114   57   58 1    
   115   57   59 1    
   116   57  180 1    
   117   58  181 1    
   118   58  182 1    
   119   58  183 1    
   120   59   60 am   BACKBONE|DICT|INTERRES
   121   59  184 1    
   122   60   61 2    
   123   60   62 1    
   124   62   63 1    
   125   62   64 1    
   126   62  185 1    
   127   63  186 1    
   128   63  187 1    
   129   63  188 1    
   130   64   65 am   BACKBONE|DICT|INTERRES
   131   64  189 1    
   132   65   66 2    
   133   67   68 2    
   134   67   69 am   BACKBONE|DICT|INTERRES
   135   69   70 1    
   136   69  190 1    
   137   70   71 1    
   138   70   72 1    
   139   70  191 1    
   140   71  192 1    
   141   71  193 1    
   142   71  194 1    
   143   72   73 2    
   144   72   74 am   BACKBONE|DICT|INTERRES
   145   74   75 1    
   146   74  195 1    
   147   75   76 1    
   148   75   77 1    
   149   75  196 1    
   150   76  197 1    
   151   76  198 1    
   152   76  199 1    
   153   77   78 2    
   154   77   79 am   BACKBONE|DICT|INTERRES
   155   79   80 1    
   156   79  200 1    
   157   80   81 1    
   158   80   82 1    
   159   80  201 1    
   160   81  202 1    
   161   81  203 1    
   162   81  204 1    
   163   82   83 2    
   164   82   84 am   BACKBONE|DICT|INTERRES
   165   84   85 1    
   166   84  205 1    
   167   85   86 1    
   168   85   87 1    
   169   85  206 1    
   170   86  207 1    
   171   86  208 1    
   172   86  209 1    
   173   87   88 2    
   174   87   89 am   BACKBONE|DICT|INTERRES
   175   89   90 1    
   176   89  210 1    
   177   90   91 1    
   178   90   92 1    
   179   90  211 1    
   180   91  212 1    
   181   91  213 1    
   182   91  214 1    
   183   92   93 2    
   184   92   94 am   BACKBONE|DICT|INTERRES
   185   94   95 1    
   186   94  215 1    
   187   95   96 1    
   188   95   97 1    
   189   95  216 1    
   190   96  217 1    
   191   96  218 1    
   192   96  219 1    
   193   97   98 2    
   194   97   99 am   BACKBONE|DICT|INTERRES
   195   99  100 1    
   196   99  220 1    
   197  100  101 1    
   198  100  102 1    
   199  100  221 1    
   200  101  222 1    
   201  101  223 1    
   202  101  224 1    
   203  102  103 2    
   204  102  104 am   BACKBONE|DICT|INTERRES
   205  104  105 1    
   206  104  225 1    
   207  105  106 1    
   208  105  107 1    
   209  105  226 1    
   210  106  227 1    
   211  106  228 1    
   212  106  229 1    
   213  107  108 2    
   214  107  109 am   BACKBONE|DICT|INTERRES
   215  109  110 1    
   216  109  230 1    
   217  110  111 1    
   218  110  112 1    
   219  110  231 1    
   220  111  232 1    
   221  111  233 1    
   222  111  234 1    
   223  112  113 2    
   224  112  114 am   BACKBONE|DICT|INTERRES
   225  114  115 1    
   226  114  235 1    
   227  115  116 1    
   228  115  117 1    
   229  115  236 1    
   230  116  237 1    
   231  116  238 1    
   232  116  239 1    
   233  117  118 2    
   234  117  119 am   BACKBONE|DICT|INTERRES
   235  119  120 1    
   236  119  240 1    
   237  120  121 1    
   238  120  124 1    
   239  120  241 1    
   240  121  122 am   BACKBONE|DICT|INTERRES
   241  121  123 2    
   242  122  242 1    
   243  122  243 1    
   244  124  125 1    
   245  124  244 1    
   246  124  245 1    
   247  125  126 1    
   248  126  246 1    
   249  126  247 1    
@<TRIPOS>SUBSTRUCTURE
     1 UNK         1 GROUP             0       ****    0 ROOT    
