@<TRIPOS>MOLECULE
3R540
247   249    1
SMALL
USER_CHARGES


@<TRIPOS>ATOM
      1 CA          4.1120  -16.0538  -45.0188 C.3       0 UNK        -0.1800 
      2 C           2.7959  -15.6941  -45.6925 C.2       0 UNK         0.5000 
      3 O           1.7282  -15.8642  -45.1037 O.2       0 UNK        -0.5000 
      4 N           2.8707  -15.1663  -46.9203 N.am      1 UNK        -0.5000 
      5 CA          1.7220  -14.7454  -47.7352 C.3       1 UNK         0.1400 
      6 C6          2.1167  -14.5078  -49.2123 C.3       23 UNK        -0.0398 
      7 S7          2.7984  -16.0038  -50.0064 S.3       23 UNK        -0.2404 
      8 C8          1.3329  -16.6072  -50.8968 C.3       23 UNK        -0.0205 
      9 C9          1.6645  -17.7977  -51.7796 C.ar      23 UNK        -0.0193 
     10 C10         2.0377  -17.5918  -53.1096 C.ar      23 UNK        -0.1150 
     11 C11         2.3076  -18.6741  -53.9512 C.ar      23 UNK        -0.0193 
     12 C12         2.2209  -19.9737  -53.4442 C.ar      23 UNK        -0.1150 
     13 C13         1.8493  -20.1935  -52.1128 C.ar      23 UNK        -0.0193 
     14 C14         1.5720  -19.1015  -51.2839 C.ar      23 UNK        -0.1150 
     15 C15         1.7031  -21.6121  -51.5862 C.3       23 UNK        -0.0205 
     16 S16         3.1108  -22.0879  -50.5384 S.3       23 UNK        -0.2404 
     17 C17         2.8481  -23.8934  -50.4014 C.3       23 UNK        -0.0398 
     18 CA          2.2724  -24.3666  -49.0430 C.3       11 UNK         0.1400 
     19 N           3.0836  -23.8941  -47.9196 N.am      11 UNK        -0.5000 
     20 C           3.1708  -24.4913  -46.7256 C.2       10 UNK         0.5000 
     21 O           2.5643  -25.5208  -46.4296 O.2       10 UNK        -0.5000 
     22 CA          4.0681  -23.8038  -45.6770 C.3       10 UNK         0.1400 
     23 CB          5.4998  -24.3552  -45.7533 C.3       10 UNK        -0.1800 
     24 N           4.1104  -22.3398  -45.7831 N.am      10 UNK        -0.5000 
     25 C           3.0417  -21.5400  -45.6767 C.2       9 UNK         0.5000 
     26 O           1.8886  -21.9582  -45.5788 O.2       9 UNK        -0.5000 
     27 CA          3.2905  -20.0263  -45.7107 C.3       9 UNK         0.1400 
     28 CB          2.8638  -19.4398  -47.0675 C.3       9 UNK        -0.1800 
     29 N           2.5304  -19.3948  -44.6326 N.am      9 UNK        -0.5000 
     30 C           2.9561  -19.3209  -43.3620 C.2       8 UNK         0.5000 
     31 O           4.0740  -19.6976  -43.0065 O.2       8 UNK        -0.5000 
     32 CA          2.0059  -18.7315  -42.2995 C.3       8 UNK         0.1400 
     33 CB          2.4728  -17.3376  -41.8533 C.3       8 UNK        -0.1800 
     34 N           0.6189  -18.6456  -42.7539 N.am      8 UNK        -0.5000 
     35 C          -0.2820  -19.6273  -42.6161 C.2       7 UNK         0.5000 
     36 O          -0.0504  -20.6740  -42.0113 O.2       7 UNK        -0.5000 
     37 CA         -1.6802  -19.4168  -43.2411 C.3       7 UNK         0.1400 
     38 CB         -2.7051  -19.0993  -42.1429 C.3       7 UNK        -0.1800 
     39 N          -1.7709  -18.3811  -44.2778 N.am      7 UNK        -0.5000 
     40 C          -1.0602  -18.3587  -45.4148 C.2       6 UNK         0.5000 
     41 O          -0.1712  -19.1694  -45.6649 O.2       6 UNK        -0.5000 
     42 CA         -1.3531  -17.2193  -46.4112 C.3       6 UNK         0.1400 
     43 CB         -0.9129  -17.5581  -47.8475 C.3       6 UNK        -0.1800 
     44 N          -2.7384  -16.7435  -46.3959 N.am      6 UNK        -0.5000 
     45 C          -3.8532  -17.4460  -46.6553 C.2       5 UNK         0.5000 
     46 O          -3.8642  -18.6458  -46.9271 O.2       5 UNK        -0.5000 
     47 CA         -5.1802  -16.6545  -46.5907 C.3       5 UNK         0.1400 
     48 CB         -6.4219  -17.5530  -46.4403 C.3       5 UNK        -0.1800 
     49 N          -5.1805  -15.6005  -45.5684 N.am      5 UNK        -0.5000 
     50 C          -4.9327  -15.7506  -44.2591 C.2       4 UNK         0.5000 
     51 O          -4.7163  -16.8324  -43.7103 O.2       4 UNK        -0.5000 
     52 CA         -4.8204  -14.4507  -43.4411 C.3       4 UNK         0.1400 
     53 CB         -5.7349  -14.4920  -42.2065 C.3       4 UNK        -0.1800 
     54 N          -3.4416  -14.2051  -43.0102 N.am      4 UNK        -0.5000 
     55 C          -2.3795  -14.0958  -43.8202 C.2       3 UNK         0.5000 
     56 O          -2.4433  -14.1707  -45.0504 O.2       3 UNK        -0.5000 
     57 CA         -1.0151  -13.9173  -43.1291 C.3       3 UNK         0.1400 
     58 CB         -0.4996  -15.2675  -42.6107 C.3       3 UNK        -0.1800 
     59 N          -0.0164  -13.3478  -44.0343 N.am      3 UNK        -0.5000 
     60 C          -0.0127  -12.0727  -44.4512 C.2       2 UNK         0.5000 
     61 O          -0.7993  -11.2207  -44.0343 O.2       2 UNK        -0.5000 
     62 CA          1.0469  -11.6638  -45.4959 C.3       2 UNK         0.1400 
     63 CB          2.1893  -10.8852  -44.8250 C.3       2 UNK        -0.1800 
     64 N           1.6178  -12.7971  -46.2245 N.am      2 UNK        -0.5000 
     65 C           0.9830  -13.5134  -47.1635 C.2       1 UNK         0.5000 
     66 O          -0.1433  -13.2415  -47.5783 O.2       1 UNK        -0.5000 
     67 C           0.7680  -24.0367  -48.9056 C.2       11 UNK         0.5000 
     68 O          -0.0290  -24.6162  -49.6434 O.2       11 UNK        -0.5000 
     69 N           0.3970  -23.1333  -47.9868 N.am      12 UNK        -0.5000 
     70 CA         -0.9770  -22.6694  -47.7715 C.3       12 UNK         0.1400 
     71 CB         -1.1257  -21.2563  -48.3611 C.3       12 UNK        -0.1800 
     72 C          -1.3692  -22.7245  -46.2825 C.2       12 UNK         0.5000 
     73 O          -2.3112  -22.0441  -45.8736 O.2       12 UNK        -0.5000 
     74 N          -0.6580  -23.5524  -45.5014 N.am      13 UNK        -0.5000 
     75 CA         -0.6755  -23.6080  -44.0345 C.3       13 UNK         0.1400 
     76 CB          0.3678  -24.6344  -43.5685 C.3       13 UNK        -0.1800 
     77 C          -2.0439  -23.8996  -43.3875 C.2       13 UNK         0.5000 
     78 O          -2.2466  -23.5725  -42.2184 O.2       13 UNK        -0.5000 
     79 N          -2.9673  -24.4825  -44.1609 N.am      14 UNK        -0.5000 
     80 CA         -4.3642  -24.7125  -43.7889 C.3       14 UNK         0.1400 
     81 CB         -4.9319  -25.7994  -44.7176 C.3       14 UNK        -0.1800 
     82 C          -5.2414  -23.4394  -43.8392 C.2       14 UNK         0.5000 
     83 O          -6.4378  -23.5381  -43.5649 O.2       14 UNK        -0.5000 
     84 N          -4.6539  -22.2918  -44.2182 N.am      15 UNK        -0.5000 
     85 CA         -5.3018  -21.0239  -44.5734 C.3       15 UNK         0.1400 
     86 CB         -6.1574  -20.4678  -43.4140 C.3       15 UNK        -0.1800 
     87 C          -6.0702  -21.1865  -45.8995 C.2       15 UNK         0.5000 
     88 O          -7.2420  -20.8192  -46.0048 O.2       15 UNK        -0.5000 
     89 N          -5.3925  -21.8020  -46.8756 N.am      16 UNK        -0.5000 
     90 CA         -5.9316  -22.1469  -48.1829 C.3       16 UNK         0.1400 
     91 CB         -5.2114  -23.4050  -48.6954 C.3       16 UNK        -0.1800 
     92 C          -5.7746  -20.9627  -49.1475 C.2       16 UNK         0.5000 
     93 O          -4.6900  -20.7566  -49.6933 O.2       16 UNK        -0.5000 
     94 N          -6.8661  -20.2169  -49.3618 N.am      17 UNK        -0.5000 
     95 CA         -6.9179  -19.0401  -50.2357 C.3       17 UNK         0.1400 
     96 CB         -8.2955  -18.3750  -50.1050 C.3       17 UNK        -0.1800 
     97 C          -6.5952  -19.3378  -51.7150 C.2       17 UNK         0.5000 
     98 O          -6.0557  -18.4721  -52.4031 O.2       17 UNK        -0.5000 
     99 N          -6.8954  -20.5622  -52.1716 N.am      18 UNK        -0.5000 
    100 CA        -6.5316  -21.0552  -53.5015 C.3       18 UNK         0.1400 
    101 CB        -7.2867  -22.3621  -53.7857 C.3       18 UNK        -0.1800 
    102 C         -5.0127  -21.2609  -53.6511 C.2       18 UNK         0.5000 
    103 O         -4.4495  -20.9229  -54.6930 O.2       18 UNK        -0.5000 
    104 N         -4.3689  -21.7735  -52.5927 N.am      19 UNK        -0.5000 
    105 CA        -2.9183  -21.9424  -52.5214 C.3       19 UNK         0.1400 
    106 CB        -2.5544  -22.9012  -51.3818 C.3       19 UNK        -0.1800 
    107 C         -2.1987  -20.5944  -52.3623 C.2       19 UNK         0.5000 
    108 O         -1.1518  -20.4049  -52.9731 O.2       19 UNK        -0.5000 
    109 N         -2.8026  -19.6590  -51.6140 N.am      20 UNK        -0.5000 
    110 CA        -2.3505  -18.2701  -51.4721 C.3       20 UNK         0.1400 
    111 CB        -3.2542  -17.5457  -50.4638 C.3       20 UNK        -0.1800 
    112 C         -2.3226  -17.4930  -52.8056 C.2       20 UNK         0.5000 
    113 O         -1.5126  -16.5804  -52.9627 O.2       20 UNK        -0.5000 
    114 N         -3.1927  -17.8874  -53.7448 N.am      21 UNK        -0.5000 
    115 CA        -3.2446  -17.4037  -55.1249 C.3       21 UNK         0.1400 
    116 CB        -4.7058  -17.4567  -55.6031 C.3       21 UNK        -0.1800 
    117 C         -2.3097  -18.1905  -56.0730 C.2       21 UNK         0.5000 
    118 O         -2.3936  -18.0057  -57.2882 O.2       21 UNK        -0.5000 
    119 N         -1.4463  -19.0489  -55.5144 N.am      22 UNK        -0.5000 
    120 CA        -0.4776  -19.9223  -56.1957 C.3       22 UNK         0.1400 
    121 C         -1.1105  -21.1586  -56.9038 C.2       22 UNK         0.5000 
    122 N         -2.3573  -21.5274  -56.6335 N.am      22 UNK        -0.7600 
    123 O         -0.4518  -21.8220  -57.7006 O.2       22 UNK        -0.5000 
    124 C124        0.5397  -19.1751  -57.1082 C.3       23 UNK        -0.0398 
    125 S125        1.3283  -17.7053  -56.3605 S.3       23 UNK        -0.2404 
    126 C126        2.7012  -18.4243  -55.4003 C.3       23 UNK        -0.0205 
    127 H127        4.9681  -15.6894  -45.5868 H         1 UNK         0.0600 
    128 H128        4.2066  -17.1338  -44.9243 H         1 UNK         0.0600 
    129 H129        4.1585  -15.6150  -44.0225 H         1 UNK         0.0600 
    130 H130        3.7741  -15.0641  -47.3608 H         1 UNK         0.3000 
    131 H131        1.0010  -15.5617  -47.7157 H         1 UNK         0.0600 
    132 H132        1.2595  -14.1600  -49.7920 H         1 UNK         0.0800 
    133 H133        2.8647  -13.7162  -49.2820 H         1 UNK         0.0800 
    134 H134        0.9155  -15.8047  -51.5074 H         1 UNK         0.0800 
    135 H135        0.5597  -16.8808  -50.1814 H         1 UNK         0.0800 
    136 H136        2.1023  -16.5851  -53.4981 H         1 UNK         0.1150 
    137 H137        2.4271  -20.8159  -54.0892 H         1 UNK         0.1150 
    138 H138        1.2755  -19.2689  -50.2577 H         1 UNK         0.1150 
    139 H139        0.7784  -21.6972  -51.0155 H         1 UNK         0.0800 
    140 H140        1.6118  -22.3087  -52.4208 H         1 UNK         0.0800 
    141 H141        3.8193  -24.3663  -50.5525 H         1 UNK         0.0800 
    142 H142        2.2312  -24.2492  -51.2284 H         1 UNK         0.0800 
    143 H143        2.3297  -25.4574  -49.0480 H         1 UNK         0.0600 
    144 H144        3.6036  -23.0428  -48.0770 H         1 UNK         0.3000 
    145 H145        3.6637  -24.0484  -44.6930 H         1 UNK         0.0600 
    146 H146        6.1211  -23.9539  -44.9524 H         1 UNK         0.0600 
    147 H147        5.5063  -25.4415  -45.6536 H         1 UNK         0.0600 
    148 H148        5.9753  -24.1099  -46.7038 H         1 UNK         0.0600 
    149 H149        5.0264  -21.9242  -45.8727 H         1 UNK         0.3000 
    150 H150        4.3549  -19.8254  -45.5724 H         1 UNK         0.0600 
    151 H151        3.4729  -19.8460  -47.8759 H         1 UNK         0.0600 
    152 H152        2.9775  -18.3566  -47.0889 H         1 UNK         0.0600 
    153 H153        1.8246  -19.6704  -47.3014 H         1 UNK         0.0600 
    154 H154        1.5618  -19.1771  -44.8516 H         1 UNK         0.3000 
    155 H155        2.0630  -19.3862  -41.4274 H         1 UNK         0.0600 
    156 H156        2.3905  -16.6080  -42.6567 H         1 UNK         0.0600 
    157 H157        3.5143  -17.3548  -41.5300 H         1 UNK         0.0600 
    158 H158        1.8796  -16.9771  -41.0129 H         1 UNK         0.0600 
    159 H159        0.3665  -17.8271  -43.2870 H         1 UNK         0.3000 
    160 H160       -1.9630  -20.3621  -43.7079 H         1 UNK         0.0600 
    161 H161       -2.4869  -18.1496  -41.6530 H         1 UNK         0.0600 
    162 H162       -2.7129  -19.8746  -41.3756 H         1 UNK         0.0600 
    163 H163       -3.7131  -19.0398  -42.5503 H         1 UNK         0.0600 
    164 H164       -2.5103  -17.7002  -44.1633 H         1 UNK         0.3000 
    165 H165       -0.7497  -16.3751  -46.0766 H         1 UNK         0.0600 
    166 H166       -1.4631  -18.4087  -48.2460 H         1 UNK         0.0600 
    167 H167       -1.0752  -16.7094  -48.5101 H         1 UNK         0.0600 
    168 H168        0.1476  -17.8089  -47.8890 H         1 UNK         0.0600 
    169 H169       -2.8439  -15.7697  -46.1235 H         1 UNK         0.3000 
    170 H170       -5.2634  -16.1472  -47.5529 H         1 UNK         0.0600 
    171 H171       -6.4746  -18.2902  -47.2412 H         1 UNK         0.0600 
    172 H172       -6.4118  -18.0947  -45.4963 H         1 UNK         0.0600 
    173 H173       -7.3401  -16.9675  -46.4800 H         1 UNK         0.0600 
    174 H174       -5.2941  -14.6605  -45.9217 H         1 UNK         0.3000 
    175 H175       -5.1305  -13.6095  -44.0643 H         1 UNK         0.0600 
    176 H176       -5.4456  -15.2853  -41.5159 H         1 UNK         0.0600 
    177 H177       -5.7082  -13.5473  -41.6630 H         1 UNK         0.0600 
    178 H178       -6.7713  -14.6710  -42.4955 H         1 UNK         0.0600 
    179 H179       -3.2952  -14.1633  -42.0122 H         1 UNK         0.3000 
    180 H180       -1.1413  -13.2415  -42.2806 H         1 UNK         0.0600 
    181 H181       -0.3470  -15.9725  -43.4264 H         1 UNK         0.0600 
    182 H182       -1.2020  -15.7212  -41.9105 H         1 UNK         0.0600 
    183 H183        0.4480  -15.1470  -42.0865 H         1 UNK         0.0600 
    184 H184        0.6340  -14.0001  -44.4534 H         1 UNK         0.3000 
    185 H185        0.5588  -11.0030  -46.2154 H         1 UNK         0.0600 
    186 H186        2.9107  -10.5297  -45.5610 H         1 UNK         0.0600 
    187 H187        1.8089  -10.0099  -44.2966 H         1 UNK         0.0600 
    188 H188        2.7233  -11.5000  -44.0993 H         1 UNK         0.0600 
    189 H189        2.5431  -13.0920  -45.9491 H         1 UNK         0.3000 
    190 H190        1.0961  -22.7221  -47.3764 H         1 UNK         0.3000 
    191 H191       -1.6831  -23.3246  -48.2838 H         1 UNK         0.0600 
    192 H192       -2.1359  -20.8671  -48.2227 H         1 UNK         0.0600 
    193 H193       -0.9230  -21.2466  -49.4307 H         1 UNK         0.0600 
    194 H194       -0.4339  -20.5607  -47.8884 H         1 UNK         0.0600 
    195 H195        0.0843  -24.0739  -45.9445 H         1 UNK         0.3000 
    196 H196       -0.3607  -22.6253  -43.6842 H         1 UNK         0.0600 
    197 H197        0.1458  -25.6332  -43.9460 H         1 UNK         0.0600 
    198 H198        1.3657  -24.3599  -43.9089 H         1 UNK         0.0600 
    199 H199        0.4040  -24.6922  -42.4798 H         1 UNK         0.0600 
    200 H200       -2.7088  -24.7104  -45.1095 H         1 UNK         0.3000 
    201 H201       -4.3956  -25.0876  -42.7639 H         1 UNK         0.0600 
    202 H202       -4.9437  -25.4719  -45.7580 H         1 UNK         0.0600 
    203 H203       -5.9556  -26.0573  -44.4434 H         1 UNK         0.0600 
    204 H204       -4.3438  -26.7155  -44.6596 H         1 UNK         0.0600 
    205 H205       -3.6762  -22.3425  -44.4865 H         1 UNK         0.3000 
    206 H206       -4.4974  -20.3108  -44.7616 H         1 UNK         0.0600 
    207 H207       -5.6143  -20.4993  -42.4700 H         1 UNK         0.0600 
    208 H208       -6.4294  -19.4285  -43.5961 H         1 UNK         0.0600 
    209 H209       -7.0846  -21.0256  -43.2822 H         1 UNK         0.0600 
    210 H210       -4.4093  -21.9895  -46.7254 H         1 UNK         0.3000 
    211 H211       -6.9928  -22.3885  -48.0923 H         1 UNK         0.0600 
    212 H212       -5.5098  -23.6437  -49.7169 H         1 UNK         0.0600 
    213 H213       -5.4505  -24.2698  -48.0764 H         1 UNK         0.0600 
    214 H214       -4.1290  -23.2828  -48.6848 H         1 UNK         0.0600 
    215 H215       -7.7108  -20.4377  -48.8536 H         1 UNK         0.3000 
    216 H216       -6.1676  -18.3349  -49.8741 H         1 UNK         0.0600 
    217 H217       -9.0972  -19.0449  -50.4181 H         1 UNK         0.0600 
    218 H218       -8.3564  -17.4780  -50.7229 H         1 UNK         0.0600 
    219 H219       -8.4918  -18.0725  -49.0761 H         1 UNK         0.0600 
    220 H220       -7.3548  -21.2100  -51.5491 H         1 UNK         0.3000 
    221 H221       -6.8422  -20.3134  -54.2407 H         1 UNK         0.0600 
    222 H222       -8.3655  -22.2090  -53.7519 H         1 UNK         0.0600 
    223 H223       -7.0347  -23.1405  -53.0644 H         1 UNK         0.0600 
    224 H224       -7.0446  -22.7436  -54.7786 H         1 UNK         0.0600 
    225 H225       -4.8866  -21.9564  -51.7459 H         1 UNK         0.3000 
    226 H226       -2.5797  -22.3925  -53.4574 H         1 UNK         0.0600 
    227 H227       -1.4805  -23.0891  -51.3660 H         1 UNK         0.0600 
    228 H228       -2.8268  -22.4908  -50.4117 H         1 UNK         0.0600 
    229 H229       -3.0527  -23.8639  -51.4946 H         1 UNK         0.0600 
    230 H230       -3.6224  -19.9306  -51.0784 H         1 UNK         0.3000 
    231 H231       -1.3354  -18.2985  -51.0729 H         1 UNK         0.0600 
    232 H232       -4.2383  -17.3382  -50.8810 H         1 UNK         0.0600 
    233 H233       -2.8219  -16.5882  -50.1728 H         1 UNK         0.0600 
    234 H234       -3.3952  -18.1365  -49.5600 H         1 UNK         0.0600 
    235 H235       -3.8437  -18.6243  -53.5083 H         1 UNK         0.3000 
    236 H236       -2.9209  -16.3614  -55.1499 H         1 UNK         0.0600 
    237 H237       -5.3596  -16.8955  -54.9351 H         1 UNK         0.0600 
    238 H238       -4.8111  -17.0230  -56.5981 H         1 UNK         0.0600 
    239 H239       -5.0774  -18.4804  -55.6502 H         1 UNK         0.0600 
    240 H240       -1.4602  -19.1641  -54.5072 H         1 UNK         0.3000 
    241 H241        0.1052  -20.3587  -55.3854 H         1 UNK         0.0600 
    242 H242       -2.7380  -22.3331  -57.1025 H         1 UNK         0.3800 
    243 H243       -2.9326  -21.0337  -55.9589 H         1 UNK         0.3800 
    244 H244        0.0436  -18.8468  -58.0225 H         1 UNK         0.0800 
    245 H245        1.3274  -19.8562  -57.4337 H         1 UNK         0.0800 
    246 H246        3.0595  -19.3382  -55.8759 H         1 UNK         0.0800 
    247 H247        3.5392  -17.7262  -55.4172 H         1 UNK         0.0800 
@<TRIPOS>BOND
     1    1    2 1    
     2    1  127 1    
     3    1  128 1    
     4    1  129 1    
     5    2    3 2    
     6    2    4 am   BACKBONE|DICT|INTERRES
     7    4    5 1    
     8    4  130 1    
     9    5    6 1    
    10    5   65 1    
    11    5  131 1    
    12    6    7 1    
    13    6  132 1    
    14    6  133 1    
    15    7    8 1    
    16    8    9 1    
    17    8  134 1    
    18    8  135 1    
    19    9   10 ar   
    20    9   14 ar   
    21   10   11 ar   
    22   10  136 1    
    23   11   12 ar   
    24   11  126 1    
    25   12   13 ar   
    26   12  137 1    
    27   13   14 ar   
    28   13   15 1    
    29   14  138 1    
    30   15   16 1    
    31   15  139 1    
    32   15  140 1    
    33   16   17 1    
    34   17   18 1    
    35   17  141 1    
    36   17  142 1    
    37   18   19 1    
    38   18   67 1    
    39   18  143 1    
    40   19   20 am   BACKBONE|DICT|INTERRES
    41   19  144 1    
    42   20   21 2    
    43   20   22 1    
    44   22   23 1    
    45   22   24 1    
    46   22  145 1    
    47   23  146 1    
    48   23  147 1    
    49   23  148 1    
    50   24   25 am   BACKBONE|DICT|INTERRES
    51   24  149 1    
    52   25   26 2    
    53   25   27 1    
    54   27   28 1    
    55   27   29 1    
    56   27  150 1    
    57   28  151 1    
    58   28  152 1    
    59   28  153 1    
    60   29   30 am   BACKBONE|DICT|INTERRES
    61   29  154 1    
    62   30   31 2    
    63   30   32 1    
    64   32   33 1    
    65   32   34 1    
    66   32  155 1    
    67   33  156 1    
    68   33  157 1    
    69   33  158 1    
    70   34   35 am   BACKBONE|DICT|INTERRES
    71   34  159 1    
    72   35   36 2    
    73   35   37 1    
    74   37   38 1    
    75   37   39 1    
    76   37  160 1    
    77   38  161 1    
    78   38  162 1    
    79   38  163 1    
    80   39   40 am   BACKBONE|DICT|INTERRES
    81   39  164 1    
    82   40   41 2    
    83   40   42 1    
    84   42   43 1    
    85   42   44 1    
    86   42  165 1    
    87   43  166 1    
    88   43  167 1    
    89   43  168 1    
    90   44   45 am   BACKBONE|DICT|INTERRES
    91   44  169 1    
    92   45   46 2    
    93   45   47 1    
    94   47   48 1    
    95   47   49 1    
    96   47  170 1    
    97   48  171 1    
    98   48  172 1    
    99   48  173 1    
   100   49   50 am   BACKBONE|DICT|INTERRES
   101   49  174 1    
   102   50   51 2    
   103   50   52 1    
   104   52   53 1    
   105   52   54 1    
   106   52  175 1    
   107   53  176 1    
   108   53  177 1    
   109   53  178 1    
   110   54   55 am   BACKBONE|DICT|INTERRES
   111   54  179 1    
   112   55   56 2    
   113   55   57 1    
   114   57   58 1    
   115   57   59 1    
   116   57  180 1    
   117   58  181 1    
   118   58  182 1    
   119   58  183 1    
   120   59   60 am   BACKBONE|DICT|INTERRES
   121   59  184 1    
   122   60   61 2    
   123   60   62 1    
   124   62   63 1    
   125   62   64 1    
   126   62  185 1    
   127   63  186 1    
   128   63  187 1    
   129   63  188 1    
   130   64   65 am   BACKBONE|DICT|INTERRES
   131   64  189 1    
   132   65   66 2    
   133   67   68 2    
   134   67   69 am   BACKBONE|DICT|INTERRES
   135   69   70 1    
   136   69  190 1    
   137   70   71 1    
   138   70   72 1    
   139   70  191 1    
   140   71  192 1    
   141   71  193 1    
   142   71  194 1    
   143   72   73 2    
   144   72   74 am   BACKBONE|DICT|INTERRES
   145   74   75 1    
   146   74  195 1    
   147   75   76 1    
   148   75   77 1    
   149   75  196 1    
   150   76  197 1    
   151   76  198 1    
   152   76  199 1    
   153   77   78 2    
   154   77   79 am   BACKBONE|DICT|INTERRES
   155   79   80 1    
   156   79  200 1    
   157   80   81 1    
   158   80   82 1    
   159   80  201 1    
   160   81  202 1    
   161   81  203 1    
   162   81  204 1    
   163   82   83 2    
   164   82   84 am   BACKBONE|DICT|INTERRES
   165   84   85 1    
   166   84  205 1    
   167   85   86 1    
   168   85   87 1    
   169   85  206 1    
   170   86  207 1    
   171   86  208 1    
   172   86  209 1    
   173   87   88 2    
   174   87   89 am   BACKBONE|DICT|INTERRES
   175   89   90 1    
   176   89  210 1    
   177   90   91 1    
   178   90   92 1    
   179   90  211 1    
   180   91  212 1    
   181   91  213 1    
   182   91  214 1    
   183   92   93 2    
   184   92   94 am   BACKBONE|DICT|INTERRES
   185   94   95 1    
   186   94  215 1    
   187   95   96 1    
   188   95   97 1    
   189   95  216 1    
   190   96  217 1    
   191   96  218 1    
   192   96  219 1    
   193   97   98 2    
   194   97   99 am   BACKBONE|DICT|INTERRES
   195   99  100 1    
   196   99  220 1    
   197  100  101 1    
   198  100  102 1    
   199  100  221 1    
   200  101  222 1    
   201  101  223 1    
   202  101  224 1    
   203  102  103 2    
   204  102  104 am   BACKBONE|DICT|INTERRES
   205  104  105 1    
   206  104  225 1    
   207  105  106 1    
   208  105  107 1    
   209  105  226 1    
   210  106  227 1    
   211  106  228 1    
   212  106  229 1    
   213  107  108 2    
   214  107  109 am   BACKBONE|DICT|INTERRES
   215  109  110 1    
   216  109  230 1    
   217  110  111 1    
   218  110  112 1    
   219  110  231 1    
   220  111  232 1    
   221  111  233 1    
   222  111  234 1    
   223  112  113 2    
   224  112  114 am   BACKBONE|DICT|INTERRES
   225  114  115 1    
   226  114  235 1    
   227  115  116 1    
   228  115  117 1    
   229  115  236 1    
   230  116  237 1    
   231  116  238 1    
   232  116  239 1    
   233  117  118 2    
   234  117  119 am   BACKBONE|DICT|INTERRES
   235  119  120 1    
   236  119  240 1    
   237  120  121 1    
   238  120  124 1    
   239  120  241 1    
   240  121  122 am   BACKBONE|DICT|INTERRES
   241  121  123 2    
   242  122  242 1    
   243  122  243 1    
   244  124  125 1    
   245  124  244 1    
   246  124  245 1    
   247  125  126 1    
   248  126  246 1    
   249  126  247 1    
@<TRIPOS>SUBSTRUCTURE
     1 UNK         1 GROUP             0       ****    0 ROOT    
