@<TRIPOS>MOLECULE
3R540
247   249    1
SMALL
USER_CHARGES


@<TRIPOS>ATOM
      1 CA          4.7927  -12.4414  -45.1019 C.3       0 UNK        -0.1800 
      2 C           3.7115  -12.5418  -46.1670 C.2       0 UNK         0.5000 
      3 O           2.5469  -12.2606  -45.8903 O.2       0 UNK        -0.5000 
      4 N           4.0943  -12.9204  -47.3940 N.am      1 UNK        -0.5000 
      5 CA          3.1928  -13.1157  -48.5402 C.3       1 UNK         0.1400 
      6 C6          3.9051  -13.8754  -49.6924 C.3       23 UNK        -0.0398 
      7 S7          2.7745  -14.9951  -50.5817 S.3       23 UNK        -0.2404 
      8 C8          2.8837  -16.4654  -49.5137 C.3       23 UNK        -0.0205 
      9 C9          1.6344  -17.3260  -49.6034 C.ar      23 UNK        -0.0193 
     10 C10         0.4124  -16.8266  -49.1475 C.ar      23 UNK        -0.1150 
     11 C11        -0.7349  -17.6219  -49.1671 C.ar      23 UNK        -0.0193 
     12 C12        -0.6507  -18.9370  -49.6350 C.ar      23 UNK        -0.1150 
     13 C13         0.5661  -19.4505  -50.0970 C.ar      23 UNK        -0.0193 
     14 C14         1.7017  -18.6325  -50.0936 C.ar      23 UNK        -0.1150 
     15 C15         0.6503  -20.8962  -50.5762 C.3       23 UNK        -0.0205 
     16 S16         2.0039  -21.8485  -49.7973 S.3       23 UNK        -0.2404 
     17 C17         1.7033  -21.5902  -48.0123 C.3       23 UNK        -0.0398 
     18 CA          0.9693  -22.7583  -47.3157 C.3       11 UNK         0.1400 
     19 N           0.9991  -22.6179  -45.8585 N.am      11 UNK        -0.5000 
     20 C           0.5477  -23.5293  -44.9854 C.2       10 UNK         0.5000 
     21 O           0.1106  -24.6322  -45.3105 O.2       10 UNK        -0.5000 
     22 CA          0.5338  -23.1210  -43.5024 C.3       10 UNK         0.1400 
     23 CB          1.9256  -23.2928  -42.8766 C.3       10 UNK        -0.1800 
     24 N           0.0633  -21.7492  -43.3025 N.am      10 UNK        -0.5000 
     25 C          -1.1704  -21.3181  -43.6042 C.2       9 UNK         0.5000 
     26 O          -2.0603  -22.0489  -44.0394 O.2       9 UNK        -0.5000 
     27 CA         -1.4433  -19.8114  -43.4368 C.3       9 UNK         0.1400 
     28 CB         -1.6956  -19.4562  -41.9642 C.3       9 UNK        -0.1800 
     29 N          -0.3597  -18.9809  -43.9627 N.am      9 UNK        -0.5000 
     30 C           0.0103  -18.9406  -45.2507 C.2       8 UNK         0.5000 
     31 O          -0.5540  -19.5703  -46.1446 O.2       8 UNK        -0.5000 
     32 CA          1.2591  -18.1040  -45.5812 C.3       8 UNK         0.1400 
     33 CB          0.9224  -16.6072  -45.6769 C.3       8 UNK        -0.1800 
     34 N           2.3232  -18.3031  -44.5965 N.am      8 UNK        -0.5000 
     35 C           2.9942  -19.4509  -44.4254 C.2       7 UNK         0.5000 
     36 O           2.8130  -20.4575  -45.1090 O.2       7 UNK        -0.5000 
     37 CA          4.0079  -19.4915  -43.2674 C.3       7 UNK         0.1400 
     38 CB          5.3388  -18.8518  -43.6904 C.3       7 UNK        -0.1800 
     39 N           3.5107  -18.8260  -42.0622 N.am      7 UNK        -0.5000 
     40 C           2.4733  -19.2565  -41.3293 C.2       6 UNK         0.5000 
     41 O           1.8480  -20.2875  -41.5703 O.2       6 UNK        -0.5000 
     42 CA          2.0252  -18.3531  -40.1643 C.3       6 UNK         0.1400 
     43 CB          2.8197  -18.6787  -38.8910 C.3       6 UNK        -0.1800 
     44 N           2.1491  -16.9235  -40.4655 N.am      6 UNK        -0.5000 
     45 C           1.4965  -16.3014  -41.4554 C.2       5 UNK         0.5000 
     46 O           0.6998  -16.8674  -42.2106 O.2       5 UNK        -0.5000 
     47 CA          1.8305  -14.8198  -41.6719 C.3       5 UNK         0.1400 
     48 CB          3.2467  -14.6630  -42.2609 C.3       5 UNK        -0.1800 
     49 N           0.8439  -14.2585  -42.5870 N.am      5 UNK        -0.5000 
     50 C           0.6278  -12.9617  -42.8148 C.2       4 UNK         0.5000 
     51 O           1.2266  -12.0489  -42.2375 O.2       4 UNK        -0.5000 
     52 CA         -0.4525  -12.6305  -43.8531 C.3       4 UNK         0.1400 
     53 CB         -1.8606  -12.6807  -43.2360 C.3       4 UNK        -0.1800 
     54 N          -0.1864  -11.2969  -44.3742 N.am      4 UNK        -0.5000 
     55 C          -0.4474  -10.8781  -45.6150 C.2       3 UNK         0.5000 
     56 O          -1.0650  -11.5462  -46.4460 O.2       3 UNK        -0.5000 
     57 CA          0.0849   -9.4929  -46.0150 C.3       3 UNK         0.1400 
     58 CB          0.5891   -8.6307  -44.8384 C.3       3 UNK        -0.1800 
     59 N           1.1693   -9.6903  -46.9692 N.am      3 UNK        -0.5000 
     60 C           1.3915   -8.9412  -48.0565 C.2       2 UNK         0.5000 
     61 O           0.7012   -7.9677  -48.3629 O.2       2 UNK        -0.5000 
     62 CA          2.5898   -9.3196  -48.9546 C.3       2 UNK         0.1400 
     63 CB          3.7272   -8.2991  -48.7893 C.3       2 UNK        -0.1800 
     64 N           3.1234  -10.6572  -48.6913 N.am      2 UNK        -0.5000 
     65 C           2.5269  -11.8080  -49.0334 C.2       1 UNK         0.5000 
     66 O           1.4835  -11.8598  -49.6849 O.2       1 UNK        -0.5000 
     67 C          -0.4723  -22.9275  -47.8346 C.2       11 UNK         0.5000 
     68 O          -0.7353  -23.8768  -48.5712 O.2       11 UNK        -0.5000 
     69 N          -1.3849  -22.0428  -47.4061 N.am      12 UNK        -0.5000 
     70 CA         -2.8089  -22.0919  -47.7428 C.3       12 UNK         0.1400 
     71 CB         -3.5197  -20.8674  -47.1513 C.3       12 UNK        -0.1800 
     72 C          -3.4940  -23.3908  -47.2810 C.2       12 UNK         0.5000 
     73 O          -4.2876  -23.9548  -48.0317 O.2       12 UNK        -0.5000 
     74 N          -3.1542  -23.8651  -46.0753 N.am      13 UNK        -0.5000 
     75 CA         -3.6341  -25.1342  -45.5300 C.3       13 UNK         0.1400 
     76 CB         -3.2552  -25.2320  -44.0444 C.3       13 UNK        -0.1800 
     77 C          -3.1146  -26.3562  -46.3122 C.2       13 UNK         0.5000 
     78 O          -3.8909  -27.2712  -46.5886 O.2       13 UNK        -0.5000 
     79 N          -1.8194  -26.3493  -46.6553 N.am      14 UNK        -0.5000 
     80 CA         -1.1451  -27.4323  -47.3701 C.3       14 UNK         0.1400 
     81 CB          0.3766  -27.2612  -47.2393 C.3       14 UNK        -0.1800 
     82 C          -1.5526  -27.5288  -48.8506 C.2       14 UNK         0.5000 
     83 O          -1.8433  -28.6259  -49.3292 O.2       14 UNK        -0.5000 
     84 N          -1.5500  -26.3888  -49.5530 N.am      15 UNK        -0.5000 
     85 CA         -1.8195  -26.3062  -50.9901 C.3       15 UNK         0.1400 
     86 CB         -1.1621  -25.0332  -51.5469 C.3       15 UNK        -0.1800 
     87 C          -3.3187  -26.3219  -51.3385 C.2       15 UNK         0.5000 
     88 O          -3.6509  -26.6195  -52.4853 O.2       15 UNK        -0.5000 
     89 N          -4.1700  -25.9968  -50.3540 N.am      16 UNK        -0.5000 
     90 CA         -5.5968  -25.6705  -50.4353 C.3       16 UNK         0.1400 
     91 CB         -6.4178  -26.6941  -51.2441 C.3       16 UNK        -0.1800 
     92 C          -5.7850  -24.2368  -50.9593 C.2       16 UNK         0.5000 
     93 O          -5.2919  -23.8974  -52.0366 O.2       16 UNK        -0.5000 
     94 N          -6.4960  -23.4134  -50.1791 N.am      17 UNK        -0.5000 
     95 CA         -6.6254  -21.9668  -50.3733 C.3       17 UNK         0.1400 
     96 CB         -7.4492  -21.3774  -49.2190 C.3       17 UNK        -0.1800 
     97 C          -7.2211  -21.5498  -51.7298 C.2       17 UNK         0.5000 
     98 O          -6.8092  -20.5323  -52.2877 O.2       17 UNK        -0.5000 
     99 N          -8.1529  -22.3601  -52.2488 N.am      18 UNK        -0.5000 
    100 CA        -8.7841  -22.1690  -53.5546 C.3       18 UNK         0.1400 
    101 CB       -10.0240  -23.0707  -53.6501 C.3       18 UNK        -0.1800 
    102 C         -7.8284  -22.4393  -54.7324 C.2       18 UNK         0.5000 
    103 O         -7.9465  -21.7815  -55.7663 O.2       18 UNK        -0.5000 
    104 N         -6.8971  -23.3868  -54.5560 N.am      19 UNK        -0.5000 
    105 CA        -5.8747  -23.7325  -55.5442 C.3       19 UNK         0.1400 
    106 CB        -5.4272  -25.1854  -55.3312 C.3       19 UNK        -0.1800 
    107 C         -4.6772  -22.7705  -55.4723 C.2       19 UNK         0.5000 
    108 O         -4.1312  -22.4006  -56.5123 O.2       19 UNK        -0.5000 
    109 N         -4.3149  -22.3546  -54.2502 N.am      20 UNK        -0.5000 
    110 CA        -3.2936  -21.3414  -53.9771 C.3       20 UNK         0.1400 
    111 CB        -2.9694  -21.3526  -52.4739 C.3       20 UNK        -0.1800 
    112 C         -3.7148  -19.9235  -54.4122 C.2       20 UNK         0.5000 
    113 O         -2.8448  -19.0825  -54.6397 O.2       20 UNK        -0.5000 
    114 N         -5.0345  -19.6876  -54.4906 N.am      21 UNK        -0.5000 
    115 CA        -5.7062  -18.4028  -54.7139 C.3       21 UNK         0.1400 
    116 CB        -5.4151  -17.8606  -56.1284 C.3       21 UNK        -0.1800 
    117 C         -5.3863  -17.3954  -53.5895 C.2       21 UNK         0.5000 
    118 O         -5.1601  -16.2122  -53.8500 O.2       21 UNK        -0.5000 
    119 N         -5.3429  -17.9055  -52.3551 N.am      22 UNK        -0.5000 
    120 CA        -4.9025  -17.2068  -51.1493 C.3       22 UNK         0.1400 
    121 C         -5.3680  -18.0248  -49.9211 C.2       22 UNK         0.5000 
    122 N         -6.2383  -17.4774  -49.0842 N.am      22 UNK        -0.7600 
    123 O         -4.9231  -19.1489  -49.7120 O.2       22 UNK        -0.5000 
    124 C124       -3.3657  -16.9820  -51.1560 C.3       23 UNK        -0.0398 
    125 S125       -2.7923  -15.8726  -49.8249 S.3       23 UNK        -0.2404 
    126 C126       -2.0534  -17.0592  -48.6566 C.3       23 UNK        -0.0205 
    127 H127        4.7990  -13.3423  -44.4898 H         1 UNK         0.0600 
    128 H128        5.7814  -12.3210  -45.5449 H         1 UNK         0.0600 
    129 H129        4.6062  -11.5861  -44.4522 H         1 UNK         0.0600 
    130 H130        5.0705  -13.1198  -47.5621 H         1 UNK         0.3000 
    131 H131        2.3795  -13.7423  -48.1665 H         1 UNK         0.0600 
    132 H132        4.3627  -13.1874  -50.4059 H         1 UNK         0.0800 
    133 H133        4.7281  -14.4804  -49.3087 H         1 UNK         0.0800 
    134 H134        3.0140  -16.1634  -48.4734 H         1 UNK         0.0800 
    135 H135        3.7741  -17.0357  -49.7827 H         1 UNK         0.0800 
    136 H136        0.3548  -15.8139  -48.7734 H         1 UNK         0.1150 
    137 H137       -1.5329  -19.5620  -49.6310 H         1 UNK         0.1150 
    138 H138        2.6453  -19.0271  -50.4435 H         1 UNK         0.1150 
    139 H139       -0.2913  -21.4174  -50.3971 H         1 UNK         0.0800 
    140 H140        0.7973  -20.8978  -51.6568 H         1 UNK         0.0800 
    141 H141        1.1855  -20.6481  -47.8375 H         1 UNK         0.0800 
    142 H142        2.6864  -21.4657  -47.5574 H         1 UNK         0.0800 
    143 H143        1.5086  -23.6783  -47.5512 H         1 UNK         0.0600 
    144 H144        1.3917  -21.7530  -45.4990 H         1 UNK         0.3000 
    145 H145       -0.1561  -23.7883  -42.9817 H         1 UNK         0.0600 
    146 H146        1.9025  -23.0927  -41.8053 H         1 UNK         0.0600 
    147 H147        2.2908  -24.3119  -43.0091 H         1 UNK         0.0600 
    148 H148        2.6561  -22.6200  -43.3266 H         1 UNK         0.0600 
    149 H149        0.7255  -21.0986  -42.8889 H         1 UNK         0.3000 
    150 H150       -2.3466  -19.5736  -44.0024 H         1 UNK         0.0600 
    151 H151       -2.5323  -20.0294  -41.5631 H         1 UNK         0.0600 
    152 H152       -1.9386  -18.3996  -41.8497 H         1 UNK         0.0600 
    153 H153       -0.8254  -19.6675  -41.3430 H         1 UNK         0.0600 
    154 H154        0.1368  -18.3987  -43.2950 H         1 UNK         0.3000 
    155 H155        1.6280  -18.4308  -46.5561 H         1 UNK         0.0600 
    156 H156        0.1071  -16.4338  -46.3774 H         1 UNK         0.0600 
    157 H157        0.6084  -16.1979  -44.7191 H         1 UNK         0.0600 
    158 H158        1.7794  -16.0298  -46.0244 H         1 UNK         0.0600 
    159 H159        2.4967  -17.5432  -43.9570 H         1 UNK         0.3000 
    160 H160        4.1943  -20.5397  -43.0241 H         1 UNK         0.0600 
    161 H161        5.2240  -17.7915  -43.9192 H         1 UNK         0.0600 
    162 H162        5.7395  -19.3385  -44.5806 H         1 UNK         0.0600 
    163 H163        6.0886  -18.9465  -42.9047 H         1 UNK         0.0600 
    164 H164        3.9709  -17.9708  -41.7884 H         1 UNK         0.3000 
    165 H165        0.9712  -18.5629  -39.9713 H         1 UNK         0.0600 
    166 H166        2.4521  -18.1059  -38.0394 H         1 UNK         0.0600 
    167 H167        2.7283  -19.7350  -38.6339 H         1 UNK         0.0600 
    168 H168        3.8816  -18.4605  -39.0105 H         1 UNK         0.0600 
    169 H169        2.7873  -16.3950  -39.8880 H         1 UNK         0.3000 
    170 H170        1.7647  -14.3058  -40.7109 H         1 UNK         0.0600 
    171 H171        4.0013  -15.1072  -41.6111 H         1 UNK         0.0600 
    172 H172        3.3295  -15.1400  -43.2383 H         1 UNK         0.0600 
    173 H173        3.5112  -13.6124  -42.3798 H         1 UNK         0.0600 
    174 H174        0.2720  -14.9612  -43.0390 H         1 UNK         0.3000 
    175 H175       -0.3795  -13.3601  -44.6631 H         1 UNK         0.0600 
    176 H176       -1.9664  -11.9643  -42.4204 H         1 UNK         0.0600 
    177 H177       -2.6252  -12.4565  -43.9800 H         1 UNK         0.0600 
    178 H178       -2.0783  -13.6715  -42.8355 H         1 UNK         0.0600 
    179 H179        0.3854  -10.7264  -43.7637 H         1 UNK         0.3000 
    180 H180       -0.7472   -8.9711  -46.4923 H         1 UNK         0.0600 
    181 H181        1.4612   -9.0710  -44.3532 H         1 UNK         0.0600 
    182 H182       -0.1877   -8.4986  -44.0841 H         1 UNK         0.0600 
    183 H183        0.8733   -7.6358  -45.1818 H         1 UNK         0.0600 
    184 H184        1.7442  -10.5102  -46.8057 H         1 UNK         0.3000 
    185 H185        2.2457   -9.2828  -49.9903 H         1 UNK         0.0600 
    186 H186        3.3829   -7.2887  -49.0141 H         1 UNK         0.0600 
    187 H187        4.1174   -8.2935  -47.7707 H         1 UNK         0.0600 
    188 H188        4.5542   -8.5160  -49.4657 H         1 UNK         0.0600 
    189 H189        3.9753  -10.7053  -48.1516 H         1 UNK         0.3000 
    190 H190       -1.0854  -21.2677  -46.8192 H         1 UNK         0.3000 
    191 H191       -2.8923  -22.0411  -48.8306 H         1 UNK         0.0600 
    192 H192       -4.5732  -20.8539  -47.4330 H         1 UNK         0.0600 
    193 H193       -3.0750  -19.9433  -47.5164 H         1 UNK         0.0600 
    194 H194       -3.4675  -20.8545  -46.0626 H         1 UNK         0.0600 
    195 H195       -2.5363  -23.3143  -45.4866 H         1 UNK         0.3000 
    196 H196       -4.7239  -25.1360  -45.5991 H         1 UNK         0.0600 
    197 H197       -3.6238  -26.1607  -43.6074 H         1 UNK         0.0600 
    198 H198       -3.6865  -24.4094  -43.4735 H         1 UNK         0.0600 
    199 H199       -2.1749  -25.2068  -43.9004 H         1 UNK         0.0600 
    200 H200       -1.2357  -25.5742  -46.3529 H         1 UNK         0.3000 
    201 H201       -1.4168  -28.3748  -46.8899 H         1 UNK         0.0600 
    202 H202        0.6874  -27.2950  -46.1950 H         1 UNK         0.0600 
    203 H203        0.7123  -26.3106  -47.6560 H         1 UNK         0.0600 
    204 H204        0.9077  -28.0571  -47.7628 H         1 UNK         0.0600 
    205 H205       -1.2855  -25.5183  -49.0925 H         1 UNK         0.3000 
    206 H206       -1.3588  -27.1645  -51.4837 H         1 UNK         0.0600 
    207 H207       -0.0878  -25.0282  -51.3613 H         1 UNK         0.0600 
    208 H208       -1.3088  -24.9528  -52.6247 H         1 UNK         0.0600 
    209 H209       -1.5832  -24.1371  -51.0912 H         1 UNK         0.0600 
    210 H210       -3.7496  -25.7509  -49.4671 H         1 UNK         0.3000 
    211 H211       -5.9569  -25.7102  -49.4061 H         1 UNK         0.0600 
    212 H212       -6.2194  -26.6288  -52.3143 H         1 UNK         0.0600 
    213 H213       -7.4858  -26.5224  -51.1073 H         1 UNK         0.0600 
    214 H214       -6.2071  -27.7139  -50.9223 H         1 UNK         0.0600 
    215 H215       -6.8466  -23.7716  -49.3027 H         1 UNK         0.3000 
    216 H216       -5.6179  -21.5532  -50.3211 H         1 UNK         0.0600 
    217 H217       -7.5616  -20.2983  -49.3305 H         1 UNK         0.0600 
    218 H218       -6.9629  -21.5533  -48.2593 H         1 UNK         0.0600 
    219 H219       -8.4498  -21.8091  -49.1759 H         1 UNK         0.0600 
    220 H220       -8.4267  -23.1758  -51.7210 H         1 UNK         0.3000 
    221 H221       -9.1121  -21.1296  -53.6261 H         1 UNK         0.0600 
    222 H222       -9.7627  -24.1262  -53.5644 H         1 UNK         0.0600 
    223 H223      -10.7430  -22.8372  -52.8646 H         1 UNK         0.0600 
    224 H224      -10.5328  -22.9349  -54.6055 H         1 UNK         0.0600 
    225 H225       -6.8134  -23.8291  -53.6502 H         1 UNK         0.3000 
    226 H226       -6.3051  -23.6591  -56.5454 H         1 UNK         0.0600 
    227 H227       -6.2656  -25.8753  -55.4273 H         1 UNK         0.0600 
    228 H228       -4.6782  -25.4760  -56.0687 H         1 UNK         0.0600 
    229 H229       -4.9879  -25.3284  -54.3446 H         1 UNK         0.0600 
    230 H230       -4.7660  -22.7780  -53.4424 H         1 UNK         0.3000 
    231 H231       -2.3900  -21.6084  -54.5288 H         1 UNK         0.0600 
    232 H232       -2.6559  -22.3421  -52.1448 H         1 UNK         0.0600 
    233 H233       -3.8322  -21.0596  -51.8749 H         1 UNK         0.0600 
    234 H234       -2.1606  -20.6584  -52.2421 H         1 UNK         0.0600 
    235 H235       -5.6478  -20.4430  -54.2142 H         1 UNK         0.3000 
    236 H236       -6.7767  -18.6034  -54.6502 H         1 UNK         0.0600 
    237 H237       -6.0205  -16.9783  -56.3389 H         1 UNK         0.0600 
    238 H238       -4.3699  -17.5748  -56.2485 H         1 UNK         0.0600 
    239 H239       -5.6496  -18.6044  -56.8900 H         1 UNK         0.0600 
    240 H240       -5.6105  -18.8764  -52.2183 H         1 UNK         0.3000 
    241 H241       -5.3973  -16.2337  -51.1302 H         1 UNK         0.0600 
    242 H242       -6.6065  -16.5510  -49.2338 H         1 UNK         0.3800 
    243 H243       -6.5312  -18.0021  -48.2760 H         1 UNK         0.3800 
    244 H244       -2.8374  -17.9352  -51.1179 H         1 UNK         0.0800 
    245 H245       -3.0601  -16.5198  -52.0951 H         1 UNK         0.0800 
    246 H246       -2.7634  -17.8593  -48.4506 H         1 UNK         0.0800 
    247 H247       -1.8858  -16.5547  -47.7047 H         1 UNK         0.0800 
@<TRIPOS>BOND
     1    1    2 1    
     2    1  127 1    
     3    1  128 1    
     4    1  129 1    
     5    2    3 2    
     6    2    4 am   BACKBONE|DICT|INTERRES
     7    4    5 1    
     8    4  130 1    
     9    5    6 1    
    10    5   65 1    
    11    5  131 1    
    12    6    7 1    
    13    6  132 1    
    14    6  133 1    
    15    7    8 1    
    16    8    9 1    
    17    8  134 1    
    18    8  135 1    
    19    9   10 ar   
    20    9   14 ar   
    21   10   11 ar   
    22   10  136 1    
    23   11   12 ar   
    24   11  126 1    
    25   12   13 ar   
    26   12  137 1    
    27   13   14 ar   
    28   13   15 1    
    29   14  138 1    
    30   15   16 1    
    31   15  139 1    
    32   15  140 1    
    33   16   17 1    
    34   17   18 1    
    35   17  141 1    
    36   17  142 1    
    37   18   19 1    
    38   18   67 1    
    39   18  143 1    
    40   19   20 am   BACKBONE|DICT|INTERRES
    41   19  144 1    
    42   20   21 2    
    43   20   22 1    
    44   22   23 1    
    45   22   24 1    
    46   22  145 1    
    47   23  146 1    
    48   23  147 1    
    49   23  148 1    
    50   24   25 am   BACKBONE|DICT|INTERRES
    51   24  149 1    
    52   25   26 2    
    53   25   27 1    
    54   27   28 1    
    55   27   29 1    
    56   27  150 1    
    57   28  151 1    
    58   28  152 1    
    59   28  153 1    
    60   29   30 am   BACKBONE|DICT|INTERRES
    61   29  154 1    
    62   30   31 2    
    63   30   32 1    
    64   32   33 1    
    65   32   34 1    
    66   32  155 1    
    67   33  156 1    
    68   33  157 1    
    69   33  158 1    
    70   34   35 am   BACKBONE|DICT|INTERRES
    71   34  159 1    
    72   35   36 2    
    73   35   37 1    
    74   37   38 1    
    75   37   39 1    
    76   37  160 1    
    77   38  161 1    
    78   38  162 1    
    79   38  163 1    
    80   39   40 am   BACKBONE|DICT|INTERRES
    81   39  164 1    
    82   40   41 2    
    83   40   42 1    
    84   42   43 1    
    85   42   44 1    
    86   42  165 1    
    87   43  166 1    
    88   43  167 1    
    89   43  168 1    
    90   44   45 am   BACKBONE|DICT|INTERRES
    91   44  169 1    
    92   45   46 2    
    93   45   47 1    
    94   47   48 1    
    95   47   49 1    
    96   47  170 1    
    97   48  171 1    
    98   48  172 1    
    99   48  173 1    
   100   49   50 am   BACKBONE|DICT|INTERRES
   101   49  174 1    
   102   50   51 2    
   103   50   52 1    
   104   52   53 1    
   105   52   54 1    
   106   52  175 1    
   107   53  176 1    
   108   53  177 1    
   109   53  178 1    
   110   54   55 am   BACKBONE|DICT|INTERRES
   111   54  179 1    
   112   55   56 2    
   113   55   57 1    
   114   57   58 1    
   115   57   59 1    
   116   57  180 1    
   117   58  181 1    
   118   58  182 1    
   119   58  183 1    
   120   59   60 am   BACKBONE|DICT|INTERRES
   121   59  184 1    
   122   60   61 2    
   123   60   62 1    
   124   62   63 1    
   125   62   64 1    
   126   62  185 1    
   127   63  186 1    
   128   63  187 1    
   129   63  188 1    
   130   64   65 am   BACKBONE|DICT|INTERRES
   131   64  189 1    
   132   65   66 2    
   133   67   68 2    
   134   67   69 am   BACKBONE|DICT|INTERRES
   135   69   70 1    
   136   69  190 1    
   137   70   71 1    
   138   70   72 1    
   139   70  191 1    
   140   71  192 1    
   141   71  193 1    
   142   71  194 1    
   143   72   73 2    
   144   72   74 am   BACKBONE|DICT|INTERRES
   145   74   75 1    
   146   74  195 1    
   147   75   76 1    
   148   75   77 1    
   149   75  196 1    
   150   76  197 1    
   151   76  198 1    
   152   76  199 1    
   153   77   78 2    
   154   77   79 am   BACKBONE|DICT|INTERRES
   155   79   80 1    
   156   79  200 1    
   157   80   81 1    
   158   80   82 1    
   159   80  201 1    
   160   81  202 1    
   161   81  203 1    
   162   81  204 1    
   163   82   83 2    
   164   82   84 am   BACKBONE|DICT|INTERRES
   165   84   85 1    
   166   84  205 1    
   167   85   86 1    
   168   85   87 1    
   169   85  206 1    
   170   86  207 1    
   171   86  208 1    
   172   86  209 1    
   173   87   88 2    
   174   87   89 am   BACKBONE|DICT|INTERRES
   175   89   90 1    
   176   89  210 1    
   177   90   91 1    
   178   90   92 1    
   179   90  211 1    
   180   91  212 1    
   181   91  213 1    
   182   91  214 1    
   183   92   93 2    
   184   92   94 am   BACKBONE|DICT|INTERRES
   185   94   95 1    
   186   94  215 1    
   187   95   96 1    
   188   95   97 1    
   189   95  216 1    
   190   96  217 1    
   191   96  218 1    
   192   96  219 1    
   193   97   98 2    
   194   97   99 am   BACKBONE|DICT|INTERRES
   195   99  100 1    
   196   99  220 1    
   197  100  101 1    
   198  100  102 1    
   199  100  221 1    
   200  101  222 1    
   201  101  223 1    
   202  101  224 1    
   203  102  103 2    
   204  102  104 am   BACKBONE|DICT|INTERRES
   205  104  105 1    
   206  104  225 1    
   207  105  106 1    
   208  105  107 1    
   209  105  226 1    
   210  106  227 1    
   211  106  228 1    
   212  106  229 1    
   213  107  108 2    
   214  107  109 am   BACKBONE|DICT|INTERRES
   215  109  110 1    
   216  109  230 1    
   217  110  111 1    
   218  110  112 1    
   219  110  231 1    
   220  111  232 1    
   221  111  233 1    
   222  111  234 1    
   223  112  113 2    
   224  112  114 am   BACKBONE|DICT|INTERRES
   225  114  115 1    
   226  114  235 1    
   227  115  116 1    
   228  115  117 1    
   229  115  236 1    
   230  116  237 1    
   231  116  238 1    
   232  116  239 1    
   233  117  118 2    
   234  117  119 am   BACKBONE|DICT|INTERRES
   235  119  120 1    
   236  119  240 1    
   237  120  121 1    
   238  120  124 1    
   239  120  241 1    
   240  121  122 am   BACKBONE|DICT|INTERRES
   241  121  123 2    
   242  122  242 1    
   243  122  243 1    
   244  124  125 1    
   245  124  244 1    
   246  124  245 1    
   247  125  126 1    
   248  126  246 1    
   249  126  247 1    
@<TRIPOS>SUBSTRUCTURE
     1 UNK         1 GROUP             0       ****    0 ROOT    
