@<TRIPOS>MOLECULE
3R540
247   249    1
SMALL
USER_CHARGES


@<TRIPOS>ATOM
      1 CA         -3.9089  -16.9353  -49.0032 C.3       0 UNK        -0.1800 
      2 C          -2.4162  -17.2170  -49.1506 C.2       0 UNK         0.5000 
      3 O          -2.0280  -18.3770  -49.2332 O.2       0 UNK        -0.5000 
      4 N          -1.5421  -16.2044  -49.1961 N.am      1 UNK        -0.5000 
      5 CA         -1.8317  -14.7691  -49.0955 C.3       1 UNK         0.1400 
      6 C6         -0.6790  -13.9064  -49.6727 C.3       23 UNK        -0.0398 
      7 S7          0.9745  -14.2977  -48.9852 S.3       23 UNK        -0.2404 
      8 C8          1.8753  -14.8829  -50.4570 C.3       23 UNK        -0.0205 
      9 C9          1.4893  -16.3035  -50.8426 C.ar      23 UNK        -0.0193 
     10 C10         0.4396  -16.5341  -51.7366 C.ar      23 UNK        -0.1150 
     11 C11         0.0785  -17.8366  -52.0921 C.ar      23 UNK        -0.0193 
     12 C12         0.7936  -18.9131  -51.5634 C.ar      23 UNK        -0.1150 
     13 C13         1.8483  -18.6983  -50.6720 C.ar      23 UNK        -0.0193 
     14 C14         2.1913  -17.3910  -50.3141 C.ar      23 UNK        -0.1150 
     15 C15         2.6096  -19.8835  -50.0945 C.3       23 UNK        -0.0205 
     16 S16         2.2960  -20.1127  -48.3151 S.3       23 UNK        -0.2404 
     17 C17         0.4721  -20.2099  -48.2411 C.3       23 UNK        -0.0398 
     18 CA         -0.0649  -21.4307  -47.4511 C.3       11 UNK         0.1400 
     19 N           0.5699  -21.6071  -46.1462 N.am      11 UNK        -0.5000 
     20 C           1.0833  -22.7684  -45.7229 C.2       10 UNK         0.5000 
     21 O           0.9359  -23.8405  -46.3106 O.2       10 UNK        -0.5000 
     22 CA          1.9497  -22.7299  -44.4561 C.3       10 UNK         0.1400 
     23 CB          3.3767  -22.2814  -44.8087 C.3       10 UNK        -0.1800 
     24 N           1.4052  -21.8668  -43.4088 N.am      10 UNK        -0.5000 
     25 C           0.4374  -22.2532  -42.5673 C.2       9 UNK         0.5000 
     26 O          -0.1398  -23.3378  -42.6468 O.2       9 UNK        -0.5000 
     27 CA          0.0737  -21.2907  -41.4224 C.3       9 UNK         0.1400 
     28 CB          1.1290  -21.3551  -40.3075 C.3       9 UNK        -0.1800 
     29 N          -0.0842  -19.9050  -41.8557 N.am      9 UNK        -0.5000 
     30 C          -1.0940  -19.4601  -42.6144 C.2       8 UNK         0.5000 
     31 O          -1.9932  -20.1768  -43.0536 O.2       8 UNK        -0.5000 
     32 CA         -1.0645  -17.9648  -42.9820 C.3       8 UNK         0.1400 
     33 CB         -1.4765  -17.0821  -41.7952 C.3       8 UNK        -0.1800 
     34 N           0.2433  -17.5517  -43.4838 N.am      8 UNK        -0.5000 
     35 C           0.8003  -18.0386  -44.6000 C.2       7 UNK         0.5000 
     36 O           0.2297  -18.8291  -45.3503 O.2       7 UNK        -0.5000 
     37 CA          2.2385  -17.5947  -44.9124 C.3       7 UNK         0.1400 
     38 CB          2.2360  -16.2854  -45.7169 C.3       7 UNK        -0.1800 
     39 N           3.0460  -17.4351  -43.7000 N.am      7 UNK        -0.5000 
     40 C           3.4248  -18.4497  -42.9083 C.2       6 UNK         0.5000 
     41 O           3.1451  -19.6266  -43.1258 O.2       6 UNK        -0.5000 
     42 CA          4.1996  -18.0847  -41.6302 C.3       6 UNK         0.1400 
     43 CB          5.6566  -17.7237  -41.9565 C.3       6 UNK        -0.1800 
     44 N           3.5743  -16.9840  -40.8992 N.am      6 UNK        -0.5000 
     45 C           2.3589  -17.0375  -40.3356 C.2       5 UNK         0.5000 
     46 O           1.6534  -18.0461  -40.3214 O.2       5 UNK        -0.5000 
     47 CA          1.8206  -15.7237  -39.7359 C.3       5 UNK         0.1400 
     48 CB          2.2418  -15.5903  -38.2651 C.3       5 UNK        -0.1800 
     49 N           2.2426  -14.5273  -40.4737 N.am      5 UNK        -0.5000 
     50 C           1.9676  -14.2942  -41.7633 C.2       4 UNK         0.5000 
     51 O           1.3359  -15.0770  -42.4812 O.2       4 UNK        -0.5000 
     52 CA          2.5274  -12.9985  -42.3647 C.3       4 UNK         0.1400 
     53 CB          4.0397  -13.1134  -42.6208 C.3       4 UNK        -0.1800 
     54 N           1.8390  -12.7765  -43.6260 N.am      4 UNK        -0.5000 
     55 C           1.5172  -11.6020  -44.1721 C.2       3 UNK         0.5000 
     56 O           1.8709  -10.5136  -43.7170 O.2       3 UNK        -0.5000 
     57 CA          0.6402  -11.6545  -45.4404 C.3       3 UNK         0.1400 
     58 CB          1.4898  -11.3894  -46.6927 C.3       3 UNK        -0.1800 
     59 N          -0.0689  -12.9278  -45.6143 N.am      3 UNK        -0.5000 
     60 C          -1.0912  -13.3533  -44.8555 C.2       2 UNK         0.5000 
     61 O          -1.5416  -12.7108  -43.9060 O.2       2 UNK        -0.5000 
     62 CA         -1.6985  -14.7275  -45.2219 C.3       2 UNK         0.1400 
     63 CB         -3.1362  -14.9060  -44.6908 C.3       2 UNK        -0.1800 
     64 N          -1.6245  -15.0320  -46.6579 N.am      2 UNK        -0.5000 
     65 C          -2.1709  -14.3218  -47.6587 C.2       1 UNK         0.5000 
     66 O          -2.8979  -13.3423  -47.4946 O.2       1 UNK        -0.5000 
     67 C          -1.5867  -21.3394  -47.2830 C.2       11 UNK         0.5000 
     68 O          -2.3027  -22.1702  -47.8432 O.2       11 UNK        -0.5000 
     69 N          -2.0643  -20.3350  -46.5329 N.am      12 UNK        -0.5000 
     70 CA         -3.4852  -19.9741  -46.4739 C.3       12 UNK         0.1400 
     71 CB         -3.6694  -18.6318  -45.7559 C.3       12 UNK        -0.1800 
     72 C          -4.3589  -21.0681  -45.8411 C.2       12 UNK         0.5000 
     73 O          -5.3967  -21.4160  -46.4053 O.2       12 UNK        -0.5000 
     74 N          -3.8848  -21.6410  -44.7266 N.am      13 UNK        -0.5000 
     75 CA         -4.5044  -22.7769  -44.0381 C.3       13 UNK         0.1400 
     76 CB         -3.8205  -22.9732  -42.6777 C.3       13 UNK        -0.1800 
     77 C          -4.4809  -24.0876  -44.8535 C.2       13 UNK         0.5000 
     78 O          -5.2672  -24.9896  -44.5645 O.2       13 UNK        -0.5000 
     79 N          -3.6171  -24.1587  -45.8752 N.am      14 UNK        -0.5000 
     80 CA         -3.5332  -25.2434  -46.8521 C.3       14 UNK         0.1400 
     81 CB         -2.0504  -25.5410  -47.1414 C.3       14 UNK        -0.1800 
     82 C          -4.3208  -24.9026  -48.1354 C.2       14 UNK         0.5000 
     83 O          -3.9336  -25.3366  -49.2193 O.2       14 UNK        -0.5000 
     84 N          -5.4020  -24.1187  -48.0018 N.am      15 UNK        -0.5000 
     85 CA         -6.3130  -23.6727  -49.0629 C.3       15 UNK         0.1400 
     86 CB         -7.0926  -24.8685  -49.6506 C.3       15 UNK        -0.1800 
     87 C          -5.6066  -22.8281  -50.1428 C.2       15 UNK         0.5000 
     88 O          -5.8541  -23.0149  -51.3336 O.2       15 UNK        -0.5000 
     89 N          -4.7230  -21.9258  -49.6946 N.am      16 UNK        -0.5000 
     90 CA         -3.8450  -21.0730  -50.5020 C.3       16 UNK         0.1400 
     91 CB         -4.6541  -20.0642  -51.3394 C.3       16 UNK        -0.1800 
     92 C          -2.8481  -21.9018  -51.3340 C.2       16 UNK         0.5000 
     93 O          -2.7598  -21.7396  -52.5526 O.2       16 UNK        -0.5000 
     94 N          -2.1345  -22.7958  -50.6370 N.am      17 UNK        -0.5000 
     95 CA         -1.1229  -23.7263  -51.1473 C.3       17 UNK         0.1400 
     96 CB          0.0986  -22.9556  -51.6887 C.3       17 UNK        -0.1800 
     97 C          -1.6812  -24.7680  -52.1431 C.2       17 UNK         0.5000 
     98 O          -0.9782  -25.1644  -53.0734 O.2       17 UNK        -0.5000 
     99 N          -2.9259  -25.2011  -51.8950 N.am      18 UNK        -0.5000 
    100 CA        -3.6895  -26.2693  -52.5484 C.3       18 UNK         0.1400 
    101 CB        -3.2874  -27.6175  -51.9171 C.3       18 UNK        -0.1800 
    102 C         -3.6020  -26.2999  -54.0955 C.2       18 UNK         0.5000 
    103 O         -3.0272  -27.2377  -54.6497 O.2       18 UNK        -0.5000 
    104 N         -4.1464  -25.3174  -54.8226 N.am      19 UNK        -0.5000 
    105 CA        -4.8516  -24.1217  -54.3767 C.3       19 UNK         0.1400 
    106 CB        -6.3548  -24.4224  -54.2237 C.3       19 UNK        -0.1800 
    107 C         -4.5736  -23.0527  -55.4394 C.2       19 UNK         0.5000 
    108 O         -5.2565  -23.0138  -56.4646 O.2       19 UNK        -0.5000 
    109 N         -3.5181  -22.2628  -55.2201 N.am      20 UNK        -0.5000 
    110 CA        -3.0296  -21.2560  -56.1615 C.3       20 UNK         0.1400 
    111 CB        -1.5415  -20.9983  -55.8824 C.3       20 UNK        -0.1800 
    112 C         -3.8325  -19.9443  -56.1060 C.2       20 UNK         0.5000 
    113 O         -3.8616  -19.2192  -57.1017 O.2       20 UNK        -0.5000 
    114 N         -4.4604  -19.6643  -54.9527 N.am      21 UNK        -0.5000 
    115 CA        -5.2723  -18.4876  -54.6025 C.3       21 UNK         0.1400 
    116 CB        -6.4934  -18.3396  -55.5303 C.3       21 UNK        -0.1800 
    117 C         -4.4663  -17.1766  -54.5114 C.2       21 UNK         0.5000 
    118 O         -4.5236  -16.5017  -53.4836 O.2       21 UNK        -0.5000 
    119 N         -3.7121  -16.8646  -55.5707 N.am      22 UNK        -0.5000 
    120 CA        -2.7554  -15.7500  -55.6915 C.3       22 UNK         0.1400 
    121 C         -3.3957  -14.3282  -55.7232 C.2       22 UNK         0.5000 
    122 N         -4.6955  -14.1934  -55.9557 N.am      22 UNK        -0.7600 
    123 O         -2.7026  -13.3262  -55.5674 O.2       22 UNK        -0.5000 
    124 C124       -1.5727  -15.8478  -54.6857 C.3       23 UNK        -0.0398 
    125 S125       -0.7533  -17.4840  -54.7126 S.3       23 UNK        -0.2404 
    126 C126       -1.0930  -18.0899  -53.0287 C.3       23 UNK        -0.0205 
    127 H127       -4.2750  -16.3403  -49.8397 H         1 UNK         0.0600 
    128 H128       -4.1212  -16.4104  -48.0726 H         1 UNK         0.0600 
    129 H129       -4.4713  -17.8686  -48.9903 H         1 UNK         0.0600 
    130 H130       -0.5659  -16.4283  -49.3349 H         1 UNK         0.3000 
    131 H131       -2.7146  -14.5614  -49.7026 H         1 UNK         0.0600 
    132 H132       -0.6578  -14.0146  -50.7560 H         1 UNK         0.0800 
    133 H133       -0.8724  -12.8445  -49.5075 H         1 UNK         0.0800 
    134 H134        1.7079  -14.2007  -51.2919 H         1 UNK         0.0800 
    135 H135        2.9451  -14.8406  -50.2470 H         1 UNK         0.0800 
    136 H136       -0.1029  -15.7005  -52.1550 H         1 UNK         0.1150 
    137 H137        0.5192  -19.9218  -51.8372 H         1 UNK         0.1150 
    138 H138        3.0024  -17.2226  -49.6195 H         1 UNK         0.1150 
    139 H139        3.6787  -19.7296  -50.2462 H         1 UNK         0.0800 
    140 H140        2.3581  -20.8036  -50.6229 H         1 UNK         0.0800 
    141 H141        0.0658  -20.2455  -49.2520 H         1 UNK         0.0800 
    142 H142        0.1208  -19.2665  -47.8240 H         1 UNK         0.0800 
    143 H143        0.1305  -22.3050  -48.0762 H         1 UNK         0.0600 
    144 H144        0.6982  -20.7629  -45.6000 H         1 UNK         0.3000 
    145 H145        2.0156  -23.7489  -44.0681 H         1 UNK         0.0600 
    146 H146        4.0194  -22.2774  -43.9282 H         1 UNK         0.0600 
    147 H147        3.8275  -22.9547  -45.5387 H         1 UNK         0.0600 
    148 H148        3.3896  -21.2791  -45.2392 H         1 UNK         0.0600 
    149 H149        1.8726  -20.9742  -43.2656 H         1 UNK         0.3000 
    150 H150       -0.8790  -21.6219  -41.0033 H         1 UNK         0.0600 
    151 H151        1.2649  -22.3780  -39.9542 H         1 UNK         0.0600 
    152 H152        0.8322  -20.7509  -39.4500 H         1 UNK         0.0600 
    153 H153        2.0989  -20.9921  -40.6504 H         1 UNK         0.0600 
    154 H154        0.6077  -19.2422  -41.5188 H         1 UNK         0.3000 
    155 H155       -1.7821  -17.7948  -43.7829 H         1 UNK         0.0600 
    156 H156       -2.4963  -17.3078  -41.4817 H         1 UNK         0.0600 
    157 H157       -1.4417  -16.0243  -42.0567 H         1 UNK         0.0600 
    158 H158       -0.8295  -17.2341  -40.9324 H         1 UNK         0.0600 
    159 H159        0.7510  -16.8563  -42.9451 H         1 UNK         0.3000 
    160 H160        2.6977  -18.3718  -45.5275 H         1 UNK         0.0600 
    161 H161        1.7787  -15.4675  -45.1609 H         1 UNK         0.0600 
    162 H162        1.6785  -16.4035  -46.6473 H         1 UNK         0.0600 
    163 H163        3.2489  -15.9845  -45.9846 H         1 UNK         0.0600 
    164 H164        3.2639  -16.4913  -43.4190 H         1 UNK         0.3000 
    165 H165        4.2027  -18.9626  -40.9805 H         1 UNK         0.0600 
    166 H166        6.2313  -17.5472  -41.0471 H         1 UNK         0.0600 
    167 H167        6.1470  -18.5345  -42.4970 H         1 UNK         0.0600 
    168 H168        5.7244  -16.8281  -42.5752 H         1 UNK         0.0600 
    169 H169        4.0823  -16.1131  -40.8603 H         1 UNK         0.3000 
    170 H170        0.7306  -15.7673  -39.7746 H         1 UNK         0.0600 
    171 H171        1.9219  -16.4587  -37.6874 H         1 UNK         0.0600 
    172 H172        3.3244  -15.5076  -38.1614 H         1 UNK         0.0600 
    173 H173        1.7913  -14.7114  -37.8036 H         1 UNK         0.0600 
    174 H174        2.7712  -13.8421  -39.9531 H         1 UNK         0.3000 
    175 H175        2.3222  -12.1765  -41.6757 H         1 UNK         0.0600 
    176 H176        4.2728  -13.9422  -43.2907 H         1 UNK         0.0600 
    177 H177        4.4316  -12.2014  -43.0715 H         1 UNK         0.0600 
    178 H178        4.5871  -13.2750  -41.6916 H         1 UNK         0.0600 
    179 H179        1.4387  -13.6172  -44.0200 H         1 UNK         0.3000 
    180 H180       -0.1036  -10.8596  -45.3564 H         1 UNK         0.0600 
    181 H181        0.8703  -11.3494  -47.5889 H         1 UNK         0.0600 
    182 H182        2.2429  -12.1648  -46.8391 H         1 UNK         0.0600 
    183 H183        2.0118  -10.4346  -46.6175 H         1 UNK         0.0600 
    184 H184        0.2310  -13.5047  -46.3869 H         1 UNK         0.3000 
    185 H185       -1.0721  -15.4661  -44.7237 H         1 UNK         0.0600 
    186 H186       -3.1635  -14.8315  -43.6032 H         1 UNK         0.0600 
    187 H187       -3.8113  -14.1465  -45.0858 H         1 UNK         0.0600 
    188 H188       -3.5412  -15.8810  -44.9551 H         1 UNK         0.0600 
    189 H189       -1.0508  -15.8230  -46.9143 H         1 UNK         0.3000 
    190 H190       -1.4048  -19.7156  -46.0722 H         1 UNK         0.3000 
    191 H191       -3.8203  -19.8397  -47.5038 H         1 UNK         0.0600 
    192 H192       -3.5909  -18.7375  -44.6751 H         1 UNK         0.0600 
    193 H193       -2.9326  -17.8999  -46.0865 H         1 UNK         0.0600 
    194 H194       -4.6571  -18.2192  -45.9639 H         1 UNK         0.0600 
    195 H195       -3.0486  -21.2522  -44.2977 H         1 UNK         0.3000 
    196 H196       -5.5518  -22.5265  -43.8584 H         1 UNK         0.0600 
    197 H197       -4.2830  -23.7873  -42.1184 H         1 UNK         0.0600 
    198 H198       -3.8934  -22.0746  -42.0648 H         1 UNK         0.0600 
    199 H199       -2.7645  -23.2132  -42.7955 H         1 UNK         0.0600 
    200 H200       -3.0492  -23.3468  -46.0800 H         1 UNK         0.3000 
    201 H201       -3.9780  -26.1507  -46.4392 H         1 UNK         0.0600 
    202 H202       -1.9436  -26.4071  -47.7954 H         1 UNK         0.0600 
    203 H203       -1.5057  -25.7608  -46.2231 H         1 UNK         0.0600 
    204 H204       -1.5544  -24.7011  -47.6279 H         1 UNK         0.0600 
    205 H205       -5.6055  -23.7579  -47.0799 H         1 UNK         0.3000 
    206 H206       -7.0362  -23.0099  -48.5858 H         1 UNK         0.0600 
    207 H207       -7.5929  -25.4367  -48.8667 H         1 UNK         0.0600 
    208 H208       -7.8615  -24.5295  -50.3458 H         1 UNK         0.0600 
    209 H209       -6.4401  -25.5512  -50.1958 H         1 UNK         0.0600 
    210 H210       -4.5598  -21.8971  -48.6965 H         1 UNK         0.3000 
    211 H211       -3.2463  -20.5024  -49.7960 H         1 UNK         0.0600 
    212 H212       -5.3354  -19.4888  -50.7134 H         1 UNK         0.0600 
    213 H213       -3.9888  -19.3541  -51.8321 H         1 UNK         0.0600 
    214 H214       -5.2448  -20.5584  -52.1105 H         1 UNK         0.0600 
    215 H215       -2.2994  -22.8327  -49.6345 H         1 UNK         0.3000 
    216 H216       -0.7863  -24.2989  -50.2818 H         1 UNK         0.0600 
    217 H217        0.9129  -23.6360  -51.9395 H         1 UNK         0.0600 
    218 H218       -0.1435  -22.3894  -52.5886 H         1 UNK         0.0600 
    219 H219        0.4790  -22.2591  -50.9428 H         1 UNK         0.0600 
    220 H220       -3.3690  -24.8408  -51.0553 H         1 UNK         0.3000 
    221 H221       -4.7349  -26.0986  -52.2918 H         1 UNK         0.0600 
    222 H222       -2.2336  -27.8427  -52.0856 H         1 UNK         0.0600 
    223 H223       -3.4592  -27.6139  -50.8405 H         1 UNK         0.0600 
    224 H224       -3.8725  -28.4379  -52.3343 H         1 UNK         0.0600 
    225 H225       -4.0387  -25.3660  -55.8261 H         1 UNK         0.3000 
    226 H226       -4.4607  -23.7625  -53.4264 H         1 UNK         0.0600 
    227 H227       -6.5418  -25.1358  -53.4220 H         1 UNK         0.0600 
    228 H228       -6.9057  -23.5138  -53.9775 H         1 UNK         0.0600 
    229 H229       -6.7837  -24.8301  -55.1397 H         1 UNK         0.0600 
    230 H230       -3.0419  -22.3070  -54.3216 H         1 UNK         0.3000 
    231 H231       -3.1161  -21.6484  -57.1770 H         1 UNK         0.0600 
    232 H232       -1.1435  -20.2281  -56.5445 H         1 UNK         0.0600 
    233 H233       -0.9507  -21.9006  -56.0402 H         1 UNK         0.0600 
    234 H234       -1.3762  -20.6693  -54.8571 H         1 UNK         0.0600 
    235 H235       -4.3245  -20.3281  -54.2029 H         1 UNK         0.3000 
    236 H236       -5.6618  -18.6807  -53.6030 H         1 UNK         0.0600 
    237 H237       -7.0909  -19.2513  -55.5407 H         1 UNK         0.0600 
    238 H238       -7.1414  -17.5307  -55.1908 H         1 UNK         0.0600 
    239 H239       -6.2077  -18.1155  -56.5581 H         1 UNK         0.0600 
    240 H240       -3.7264  -17.5202  -56.3478 H         1 UNK         0.3000 
    241 H241       -2.3253  -15.8667  -56.6866 H         1 UNK         0.0600 
    242 H242       -5.1031  -13.2720  -55.9863 H         1 UNK         0.3800 
    243 H243       -5.2753  -15.0052  -56.0955 H         1 UNK         0.3800 
    244 H244       -0.8123  -15.1024  -54.9233 H         1 UNK         0.0800 
    245 H245       -1.9173  -15.6104  -53.6789 H         1 UNK         0.0800 
    246 H246       -1.9935  -17.6300  -52.6202 H         1 UNK         0.0800 
    247 H247       -1.3096  -19.1572  -53.0815 H         1 UNK         0.0800 
@<TRIPOS>BOND
     1    1    2 1    
     2    1  127 1    
     3    1  128 1    
     4    1  129 1    
     5    2    3 2    
     6    2    4 am   BACKBONE|DICT|INTERRES
     7    4    5 1    
     8    4  130 1    
     9    5    6 1    
    10    5   65 1    
    11    5  131 1    
    12    6    7 1    
    13    6  132 1    
    14    6  133 1    
    15    7    8 1    
    16    8    9 1    
    17    8  134 1    
    18    8  135 1    
    19    9   10 ar   
    20    9   14 ar   
    21   10   11 ar   
    22   10  136 1    
    23   11   12 ar   
    24   11  126 1    
    25   12   13 ar   
    26   12  137 1    
    27   13   14 ar   
    28   13   15 1    
    29   14  138 1    
    30   15   16 1    
    31   15  139 1    
    32   15  140 1    
    33   16   17 1    
    34   17   18 1    
    35   17  141 1    
    36   17  142 1    
    37   18   19 1    
    38   18   67 1    
    39   18  143 1    
    40   19   20 am   BACKBONE|DICT|INTERRES
    41   19  144 1    
    42   20   21 2    
    43   20   22 1    
    44   22   23 1    
    45   22   24 1    
    46   22  145 1    
    47   23  146 1    
    48   23  147 1    
    49   23  148 1    
    50   24   25 am   BACKBONE|DICT|INTERRES
    51   24  149 1    
    52   25   26 2    
    53   25   27 1    
    54   27   28 1    
    55   27   29 1    
    56   27  150 1    
    57   28  151 1    
    58   28  152 1    
    59   28  153 1    
    60   29   30 am   BACKBONE|DICT|INTERRES
    61   29  154 1    
    62   30   31 2    
    63   30   32 1    
    64   32   33 1    
    65   32   34 1    
    66   32  155 1    
    67   33  156 1    
    68   33  157 1    
    69   33  158 1    
    70   34   35 am   BACKBONE|DICT|INTERRES
    71   34  159 1    
    72   35   36 2    
    73   35   37 1    
    74   37   38 1    
    75   37   39 1    
    76   37  160 1    
    77   38  161 1    
    78   38  162 1    
    79   38  163 1    
    80   39   40 am   BACKBONE|DICT|INTERRES
    81   39  164 1    
    82   40   41 2    
    83   40   42 1    
    84   42   43 1    
    85   42   44 1    
    86   42  165 1    
    87   43  166 1    
    88   43  167 1    
    89   43  168 1    
    90   44   45 am   BACKBONE|DICT|INTERRES
    91   44  169 1    
    92   45   46 2    
    93   45   47 1    
    94   47   48 1    
    95   47   49 1    
    96   47  170 1    
    97   48  171 1    
    98   48  172 1    
    99   48  173 1    
   100   49   50 am   BACKBONE|DICT|INTERRES
   101   49  174 1    
   102   50   51 2    
   103   50   52 1    
   104   52   53 1    
   105   52   54 1    
   106   52  175 1    
   107   53  176 1    
   108   53  177 1    
   109   53  178 1    
   110   54   55 am   BACKBONE|DICT|INTERRES
   111   54  179 1    
   112   55   56 2    
   113   55   57 1    
   114   57   58 1    
   115   57   59 1    
   116   57  180 1    
   117   58  181 1    
   118   58  182 1    
   119   58  183 1    
   120   59   60 am   BACKBONE|DICT|INTERRES
   121   59  184 1    
   122   60   61 2    
   123   60   62 1    
   124   62   63 1    
   125   62   64 1    
   126   62  185 1    
   127   63  186 1    
   128   63  187 1    
   129   63  188 1    
   130   64   65 am   BACKBONE|DICT|INTERRES
   131   64  189 1    
   132   65   66 2    
   133   67   68 2    
   134   67   69 am   BACKBONE|DICT|INTERRES
   135   69   70 1    
   136   69  190 1    
   137   70   71 1    
   138   70   72 1    
   139   70  191 1    
   140   71  192 1    
   141   71  193 1    
   142   71  194 1    
   143   72   73 2    
   144   72   74 am   BACKBONE|DICT|INTERRES
   145   74   75 1    
   146   74  195 1    
   147   75   76 1    
   148   75   77 1    
   149   75  196 1    
   150   76  197 1    
   151   76  198 1    
   152   76  199 1    
   153   77   78 2    
   154   77   79 am   BACKBONE|DICT|INTERRES
   155   79   80 1    
   156   79  200 1    
   157   80   81 1    
   158   80   82 1    
   159   80  201 1    
   160   81  202 1    
   161   81  203 1    
   162   81  204 1    
   163   82   83 2    
   164   82   84 am   BACKBONE|DICT|INTERRES
   165   84   85 1    
   166   84  205 1    
   167   85   86 1    
   168   85   87 1    
   169   85  206 1    
   170   86  207 1    
   171   86  208 1    
   172   86  209 1    
   173   87   88 2    
   174   87   89 am   BACKBONE|DICT|INTERRES
   175   89   90 1    
   176   89  210 1    
   177   90   91 1    
   178   90   92 1    
   179   90  211 1    
   180   91  212 1    
   181   91  213 1    
   182   91  214 1    
   183   92   93 2    
   184   92   94 am   BACKBONE|DICT|INTERRES
   185   94   95 1    
   186   94  215 1    
   187   95   96 1    
   188   95   97 1    
   189   95  216 1    
   190   96  217 1    
   191   96  218 1    
   192   96  219 1    
   193   97   98 2    
   194   97   99 am   BACKBONE|DICT|INTERRES
   195   99  100 1    
   196   99  220 1    
   197  100  101 1    
   198  100  102 1    
   199  100  221 1    
   200  101  222 1    
   201  101  223 1    
   202  101  224 1    
   203  102  103 2    
   204  102  104 am   BACKBONE|DICT|INTERRES
   205  104  105 1    
   206  104  225 1    
   207  105  106 1    
   208  105  107 1    
   209  105  226 1    
   210  106  227 1    
   211  106  228 1    
   212  106  229 1    
   213  107  108 2    
   214  107  109 am   BACKBONE|DICT|INTERRES
   215  109  110 1    
   216  109  230 1    
   217  110  111 1    
   218  110  112 1    
   219  110  231 1    
   220  111  232 1    
   221  111  233 1    
   222  111  234 1    
   223  112  113 2    
   224  112  114 am   BACKBONE|DICT|INTERRES
   225  114  115 1    
   226  114  235 1    
   227  115  116 1    
   228  115  117 1    
   229  115  236 1    
   230  116  237 1    
   231  116  238 1    
   232  116  239 1    
   233  117  118 2    
   234  117  119 am   BACKBONE|DICT|INTERRES
   235  119  120 1    
   236  119  240 1    
   237  120  121 1    
   238  120  124 1    
   239  120  241 1    
   240  121  122 am   BACKBONE|DICT|INTERRES
   241  121  123 2    
   242  122  242 1    
   243  122  243 1    
   244  124  125 1    
   245  124  244 1    
   246  124  245 1    
   247  125  126 1    
   248  126  246 1    
   249  126  247 1    
@<TRIPOS>SUBSTRUCTURE
     1 UNK         1 GROUP             0       ****    0 ROOT    
