@<TRIPOS>MOLECULE
3R540
247   249    1
SMALL
USER_CHARGES


@<TRIPOS>ATOM
      1 CA          7.0609   -9.7584  -46.1735 C.3       0 UNK        -0.1800 
      2 C           5.8919  -10.7330  -46.1903 C.2       0 UNK         0.5000 
      3 O           4.9856  -10.6183  -45.3642 O.2       0 UNK        -0.5000 
      4 N           5.9082  -11.6931  -47.1234 N.am      1 UNK        -0.5000 
      5 CA          4.8493  -12.6829  -47.3242 C.3       1 UNK         0.1400 
      6 C6          5.3935  -13.9707  -47.9917 C.3       23 UNK        -0.0398 
      7 S7          4.1959  -15.3525  -47.9612 S.3       23 UNK        -0.2404 
      8 C8          3.9185  -15.5769  -49.7429 C.3       23 UNK        -0.0205 
      9 C9          2.8764  -16.6440  -50.0294 C.ar      23 UNK        -0.0193 
     10 C10         1.5393  -16.2869  -50.2199 C.ar      23 UNK        -0.1150 
     11 C11         0.5851  -17.2520  -50.5573 C.ar      23 UNK        -0.0193 
     12 C12         0.9792  -18.5880  -50.6889 C.ar      23 UNK        -0.1150 
     13 C13         2.3121  -18.9604  -50.4813 C.ar      23 UNK        -0.0193 
     14 C14         3.2548  -17.9832  -50.1504 C.ar      23 UNK        -0.1150 
     15 C15         2.7483  -20.4097  -50.6461 C.3       23 UNK        -0.0205 
     16 S16         2.6879  -21.3290  -49.0755 S.3       23 UNK        -0.2404 
     17 C17         0.8917  -21.5519  -48.8842 C.3       23 UNK        -0.0398 
     18 CA          0.5226  -22.6514  -47.8607 C.3       11 UNK         0.1400 
     19 N           0.8775  -22.3049  -46.4785 N.am      11 UNK        -0.5000 
     20 C           0.7513  -23.1355  -45.4313 C.2       10 UNK         0.5000 
     21 O           0.4042  -24.3126  -45.5323 O.2       10 UNK        -0.5000 
     22 CA          0.9835  -22.5426  -44.0287 C.3       10 UNK         0.1400 
     23 CB          2.4787  -22.4921  -43.6818 C.3       10 UNK        -0.1800 
     24 N           0.3832  -21.2159  -43.8785 N.am      10 UNK        -0.5000 
     25 C          -0.9362  -20.9785  -43.9214 C.2       9 UNK         0.5000 
     26 O          -1.7825  -21.8667  -44.0145 O.2       9 UNK        -0.5000 
     27 CA         -1.3894  -19.5064  -43.9138 C.3       9 UNK         0.1400 
     28 CB         -1.4814  -18.9637  -42.4805 C.3       9 UNK        -0.1800 
     29 N          -0.5164  -18.6481  -44.7131 N.am      9 UNK        -0.5000 
     30 C          -0.3501  -18.7537  -46.0386 C.2       8 UNK         0.5000 
     31 O          -0.9778  -19.5442  -46.7422 O.2       8 UNK        -0.5000 
     32 CA          0.7378  -17.8701  -46.6737 C.3       8 UNK         0.1400 
     33 CB          0.1964  -16.4700  -46.9770 C.3       8 UNK        -0.1800 
     34 N           1.9260  -17.7616  -45.8286 N.am      8 UNK        -0.5000 
     35 C           2.7544  -18.7804  -45.5639 C.2       7 UNK         0.5000 
     36 O           2.6148  -19.9090  -46.0313 O.2       7 UNK        -0.5000 
     37 CA          3.8878  -18.5108  -44.5567 C.3       7 UNK         0.1400 
     38 CB          5.0873  -17.8339  -45.2347 C.3       7 UNK        -0.1800 
     39 N           3.4436  -17.6954  -43.4255 N.am      7 UNK        -0.5000 
     40 C           2.5795  -18.1143  -42.4906 C.2       6 UNK         0.5000 
     41 O           2.1158  -19.2536  -42.4534 O.2       6 UNK        -0.5000 
     42 CA          2.1221  -17.0715  -41.4516 C.3       6 UNK         0.1400 
     43 CB          3.0972  -17.0276  -40.2658 C.3       6 UNK        -0.1800 
     44 N           1.9677  -15.7213  -42.0054 N.am      6 UNK        -0.5000 
     45 C           1.1084  -15.3945  -42.9803 C.2       5 UNK         0.5000 
     46 O           0.3684  -16.2118  -43.5297 O.2       5 UNK        -0.5000 
     47 CA          1.1287  -13.9268  -43.4486 C.3       5 UNK         0.1400 
     48 CB          2.3830  -13.6607  -44.2975 C.3       5 UNK        -0.1800 
     49 N          -0.0633  -13.5628  -44.2231 N.am      5 UNK        -0.5000 
     50 C          -1.2932  -13.4296  -43.6999 C.2       4 UNK         0.5000 
     51 O          -1.5275  -13.5721  -42.4983 O.2       4 UNK        -0.5000 
     52 CA         -2.4593  -13.0445  -44.6382 C.3       4 UNK         0.1400 
     53 CB         -3.1314  -11.7448  -44.1624 C.3       4 UNK        -0.1800 
     54 N          -2.0417  -12.8555  -46.0274 N.am      4 UNK        -0.5000 
     55 C          -2.2141  -13.7343  -47.0237 C.2       3 UNK         0.5000 
     56 O          -2.8113  -14.8028  -46.8942 O.2       3 UNK        -0.5000 
     57 CA         -1.6127  -13.3673  -48.4022 C.3       3 UNK         0.1400 
     58 CB         -2.7230  -13.0308  -49.4098 C.3       3 UNK        -0.1800 
     59 N          -0.6372  -12.2672  -48.3800 N.am      3 UNK        -0.5000 
     60 C           0.5298  -12.3094  -47.7259 C.2       2 UNK         0.5000 
     61 O           0.8699  -13.2672  -47.0306 O.2       2 UNK        -0.5000 
     62 CA          1.4242  -11.0571  -47.7909 C.3       2 UNK         0.1400 
     63 CB          0.8705   -9.9570  -46.8713 C.3       2 UNK        -0.1800 
     64 N           2.7745  -11.3944  -47.3470 N.am      2 UNK        -0.5000 
     65 C           3.6734  -12.0437  -48.0933 C.2       1 UNK         0.5000 
     66 O           3.6036  -12.1359  -49.3204 O.2       1 UNK        -0.5000 
     67 C          -0.9713  -23.0092  -47.9905 C.2       11 UNK         0.5000 
     68 O          -1.2929  -24.0301  -48.5960 O.2       11 UNK        -0.5000 
     69 N          -1.8520  -22.1906  -47.3971 N.am      12 UNK        -0.5000 
     70 CA         -3.2983  -22.4117  -47.3664 C.3       12 UNK         0.1400 
     71 CB         -3.9973  -21.2008  -46.7312 C.3       12 UNK        -0.1800 
     72 C          -3.6918  -23.7107  -46.6424 C.2       12 UNK         0.5000 
     73 O          -4.5511  -24.4395  -47.1378 O.2       12 UNK        -0.5000 
     74 N          -3.0350  -23.9971  -45.5103 N.am      13 UNK        -0.5000 
     75 CA         -3.1960  -25.2351  -44.7490 C.3       13 UNK         0.1400 
     76 CB         -2.4419  -25.1280  -43.4151 C.3       13 UNK        -0.1800 
     77 C          -2.7444  -26.4737  -45.5430 C.2       13 UNK         0.5000 
     78 O          -3.4839  -27.4566  -45.5989 O.2       13 UNK        -0.5000 
     79 N          -1.5690  -26.3883  -46.1837 N.am      14 UNK        -0.5000 
     80 CA         -1.0125  -27.4328  -47.0490 C.3       14 UNK         0.1400 
     81 CB          0.4211  -27.0545  -47.4503 C.3       14 UNK        -0.1800 
     82 C          -1.8735  -27.7072  -48.2975 C.2       14 UNK         0.5000 
     83 O          -2.0087  -28.8617  -48.7036 O.2       14 UNK        -0.5000 
     84 N          -2.4686  -26.6467  -48.8580 N.am      15 UNK        -0.5000 
     85 CA         -3.4006  -26.6946  -49.9848 C.3       15 UNK         0.1400 
     86 CB         -3.4442  -25.3083  -50.6465 C.3       15 UNK        -0.1800 
     87 C          -4.8242  -27.1473  -49.5989 C.2       15 UNK         0.5000 
     88 O          -5.6620  -27.2826  -50.4900 O.2       15 UNK        -0.5000 
     89 N          -5.0921  -27.3466  -48.2990 N.am      16 UNK        -0.5000 
     90 CA         -6.3851  -27.7113  -47.7097 C.3       16 UNK         0.1400 
     91 CB         -6.7917  -29.1426  -48.1182 C.3       16 UNK        -0.1800 
     92 C          -7.4759  -26.6581  -47.9995 C.2       16 UNK         0.5000 
     93 O          -8.5803  -26.9998  -48.4249 O.2       16 UNK        -0.5000 
     94 N          -7.1128  -25.3869  -47.7814 N.am      17 UNK        -0.5000 
     95 CA         -7.8907  -24.1568  -47.9609 C.3       17 UNK         0.1400 
     96 CB         -9.2449  -24.2103  -47.2248 C.3       17 UNK        -0.1800 
     97 C          -8.0422  -23.6940  -49.4231 C.2       17 UNK         0.5000 
     98 O          -8.5274  -22.5830  -49.6430 O.2       17 UNK        -0.5000 
     99 N          -7.5755  -24.4823  -50.4025 N.am      18 UNK        -0.5000 
    100 CA        -7.5366  -24.1209  -51.8245 C.3       18 UNK         0.1400 
    101 CB        -7.5906  -25.4027  -52.6740 C.3       18 UNK        -0.1800 
    102 C         -6.3049  -23.2439  -52.1410 C.2       18 UNK         0.5000 
    103 O         -5.5008  -23.5819  -53.0104 O.2       18 UNK        -0.5000 
    104 N         -6.1616  -22.1444  -51.3905 N.am      19 UNK        -0.5000 
    105 CA        -4.9942  -21.2616  -51.3825 C.3       19 UNK         0.1400 
    106 CB        -5.0911  -20.3433  -50.1550 C.3       19 UNK        -0.1800 
    107 C         -4.8329  -20.4116  -52.6549 C.2       19 UNK         0.5000 
    108 O         -3.7303  -19.9308  -52.9141 O.2       19 UNK        -0.5000 
    109 N         -5.9357  -20.1899  -53.3868 N.am      20 UNK        -0.5000 
    110 CA        -6.0871  -19.4133  -54.6297 C.3       20 UNK         0.1400 
    111 CB        -5.2232  -20.0089  -55.7580 C.3       20 UNK        -0.1800 
    112 C         -5.8557  -17.8899  -54.5020 C.2       20 UNK         0.5000 
    113 O         -6.4023  -17.1372  -55.3086 O.2       20 UNK        -0.5000 
    114 N         -5.0784  -17.4700  -53.4957 N.am      21 UNK        -0.5000 
    115 CA        -4.6694  -16.1048  -53.1549 C.3       21 UNK         0.1400 
    116 CB        -5.8747  -15.3134  -52.6058 C.3       21 UNK        -0.1800 
    117 C         -3.9523  -15.3817  -54.3216 C.2       21 UNK         0.5000 
    118 O         -4.4752  -14.3895  -54.8296 O.2       21 UNK        -0.5000 
    119 N         -2.7799  -15.8418  -54.7817 N.am      22 UNK        -0.5000 
    120 CA        -1.9767  -16.9912  -54.3162 C.3       22 UNK         0.1400 
    121 C         -1.6581  -17.9946  -55.4649 C.2       22 UNK         0.5000 
    122 N         -2.2727  -17.8807  -56.6369 N.am      22 UNK        -0.7600 
    123 O         -0.8487  -18.9015  -55.2941 O.2       22 UNK        -0.5000 
    124 C124       -0.6922  -16.5314  -53.5763 C.3       23 UNK        -0.0398 
    125 S125       -1.0572  -15.5753  -52.0642 S.3       23 UNK        -0.2404 
    126 C126       -0.8691  -16.8511  -50.7765 C.3       23 UNK        -0.0205 
    127 H127        7.5704   -9.8005  -45.2108 H         1 UNK         0.0600 
    128 H128        6.7023   -8.7405  -46.3264 H         1 UNK         0.0600 
    129 H129        7.7886   -9.9836  -46.9535 H         1 UNK         0.0600 
    130 H130        6.6656  -11.7182  -47.7916 H         1 UNK         0.3000 
    131 H131        4.4771  -12.9790  -46.3407 H         1 UNK         0.0600 
    132 H132        6.2802  -14.3107  -47.4550 H         1 UNK         0.0800 
    133 H133        5.7246  -13.7723  -49.0125 H         1 UNK         0.0800 
    134 H134        3.6057  -14.6312  -50.1867 H         1 UNK         0.0800 
    135 H135        4.8611  -15.8434  -50.2234 H         1 UNK         0.0800 
    136 H136        1.2425  -15.2519  -50.1210 H         1 UNK         0.1150 
    137 H137        0.2495  -19.3397  -50.9547 H         1 UNK         0.1150 
    138 H138        4.2882  -18.2631  -50.0006 H         1 UNK         0.1150 
    139 H139        2.1344  -20.9106  -51.3961 H         1 UNK         0.0800 
    140 H140        3.7700  -20.4418  -51.0273 H         1 UNK         0.0800 
    141 H141        0.4856  -21.8017  -49.8664 H         1 UNK         0.0800 
    142 H142        0.4506  -20.5955  -48.6060 H         1 UNK         0.0800 
    143 H143        1.0850  -23.5513  -48.1190 H         1 UNK         0.0600 
    144 H144        1.2365  -21.3683  -46.3214 H         1 UNK         0.3000 
    145 H145        0.4993  -23.2049  -43.3081 H         1 UNK         0.0600 
    146 H146        2.9208  -23.4880  -43.7282 H         1 UNK         0.0600 
    147 H147        3.0363  -21.8565  -44.3681 H         1 UNK         0.0600 
    148 H148        2.6362  -22.1126  -42.6721 H         1 UNK         0.0600 
    149 H149        1.0178  -20.4372  -43.7393 H         1 UNK         0.3000 
    150 H150       -2.3870  -19.4626  -44.3548 H         1 UNK         0.0600 
    151 H151       -1.8284  -17.9302  -42.4711 H         1 UNK         0.0600 
    152 H152       -0.5181  -18.9977  -41.9730 H         1 UNK         0.0600 
    153 H153       -2.1844  -19.5501  -41.8877 H         1 UNK         0.0600 
    154 H154       -0.0185  -17.9105  -44.2207 H         1 UNK         0.3000 
    155 H155        1.0359  -18.3303  -47.6181 H         1 UNK         0.0600 
    156 H156       -0.6829  -16.5280  -47.6167 H         1 UNK         0.0600 
    157 H157        0.9418  -15.8667  -47.4933 H         1 UNK         0.0600 
    158 H158       -0.0967  -15.9372  -46.0735 H         1 UNK         0.0600 
    159 H159        2.0757  -16.8760  -45.3706 H         1 UNK         0.3000 
    160 H160        4.2203  -19.4776  -44.1723 H         1 UNK         0.0600 
    161 H161        5.3894  -18.3747  -46.1327 H         1 UNK         0.0600 
    162 H162        5.9488  -17.8036  -44.5676 H         1 UNK         0.0600 
    163 H163        4.8576  -16.8100  -45.5271 H         1 UNK         0.0600 
    164 H164        3.7808  -16.7456  -43.3817 H         1 UNK         0.3000 
    165 H165        1.1467  -17.3880  -41.0769 H         1 UNK         0.0600 
    166 H166        2.7354  -16.3623  -39.4816 H         1 UNK         0.0600 
    167 H167        3.2154  -18.0168  -39.8212 H         1 UNK         0.0600 
    168 H168        4.0867  -16.6837  -40.5692 H         1 UNK         0.0600 
    169 H169        2.5518  -15.0019  -41.6040 H         1 UNK         0.3000 
    170 H170        1.1671  -13.2873  -42.5644 H         1 UNK         0.0600 
    171 H171        2.4092  -12.6284  -44.6455 H         1 UNK         0.0600 
    172 H172        3.2947  -13.8277  -43.7230 H         1 UNK         0.0600 
    173 H173        2.4245  -14.3124  -45.1714 H         1 UNK         0.0600 
    174 H174        0.0644  -13.4858  -45.2268 H         1 UNK         0.3000 
    175 H175       -3.1962  -13.8476  -44.5743 H         1 UNK         0.0600 
    176 H176       -2.4347  -10.9056  -44.1695 H         1 UNK         0.0600 
    177 H177       -3.9775  -11.4837  -44.7983 H         1 UNK         0.0600 
    178 H178       -3.5132  -11.8467  -43.1457 H         1 UNK         0.0600 
    179 H179       -1.5382  -12.0053  -46.2312 H         1 UNK         0.3000 
    180 H180       -1.0903  -14.2550  -48.7637 H         1 UNK         0.0600 
    181 H181       -2.3146  -12.8716  -50.4081 H         1 UNK         0.0600 
    182 H182       -3.2697  -12.1327  -49.1203 H         1 UNK         0.0600 
    183 H183       -3.4442  -13.8459  -49.4853 H         1 UNK         0.0600 
    184 H184       -0.8755  -11.4435  -48.9137 H         1 UNK         0.3000 
    185 H185        1.4531  -10.6901  -48.8189 H         1 UNK         0.0600 
    186 H186        0.7964  -10.2952  -45.8366 H         1 UNK         0.0600 
    187 H187        1.5086   -9.0732  -46.8883 H         1 UNK         0.0600 
    188 H188       -0.1247   -9.6421  -47.1870 H         1 UNK         0.0600 
    189 H189        2.9496  -11.3232  -46.3541 H         1 UNK         0.3000 
    190 H190       -1.5113  -21.3363  -46.9624 H         1 UNK         0.3000 
    191 H191       -3.6361  -22.4984  -48.4007 H         1 UNK         0.0600 
    192 H192       -3.7091  -21.0680  -45.6891 H         1 UNK         0.0600 
    193 H193       -5.0813  -21.3188  -46.7565 H         1 UNK         0.0600 
    194 H194       -3.7554  -20.2803  -47.2630 H         1 UNK         0.0600 
    195 H195       -2.3875  -23.3099  -45.1339 H         1 UNK         0.3000 
    196 H196       -4.2588  -25.3523  -44.5270 H         1 UNK         0.0600 
    197 H197       -2.5685  -26.0338  -42.8211 H         1 UNK         0.0600 
    198 H198       -2.8129  -24.2935  -42.8198 H         1 UNK         0.0600 
    199 H199       -1.3725  -24.9801  -43.5654 H         1 UNK         0.0600 
    200 H200       -1.0047  -25.5512  -46.0641 H         1 UNK         0.3000 
    201 H201       -0.9701  -28.3565  -46.4683 H         1 UNK         0.0600 
    202 H202        1.0578  -26.9376  -46.5731 H         1 UNK         0.0600 
    203 H203        0.4487  -26.1188  -48.0094 H         1 UNK         0.0600 
    204 H204        0.8689  -27.8263  -48.0774 H         1 UNK         0.0600 
    205 H205       -2.2381  -25.7212  -48.5068 H         1 UNK         0.3000 
    206 H206       -3.0209  -27.4085  -50.7183 H         1 UNK         0.0600 
    207 H207       -4.0605  -25.3271  -51.5452 H         1 UNK         0.0600 
    208 H208       -3.8592  -24.5543  -49.9765 H         1 UNK         0.0600 
    209 H209       -2.4492  -24.9804  -50.9473 H         1 UNK         0.0600 
    210 H210       -4.3444  -27.1901  -47.6343 H         1 UNK         0.3000 
    211 H211       -6.2385  -27.7085  -46.6287 H         1 UNK         0.0600 
    212 H212       -7.0009  -29.2188  -49.1855 H         1 UNK         0.0600 
    213 H213       -7.6898  -29.4587  -47.5865 H         1 UNK         0.0600 
    214 H214       -6.0047  -29.8578  -47.8789 H         1 UNK         0.0600 
    215 H215       -6.1499  -25.2192  -47.4899 H         1 UNK         0.3000 
    216 H216       -7.2972  -23.3811  -47.4747 H         1 UNK         0.0600 
    217 H217       -9.7183  -23.2279  -47.2125 H         1 UNK         0.0600 
    218 H218       -9.1198  -24.5219  -46.1878 H         1 UNK         0.0600 
    219 H219       -9.9440  -24.8967  -47.7026 H         1 UNK         0.0600 
    220 H220       -7.1625  -25.3714  -50.1538 H         1 UNK         0.3000 
    221 H221       -8.4237  -23.5325  -52.0678 H         1 UNK         0.0600 
    222 H222       -6.7002  -26.0164  -52.5383 H         1 UNK         0.0600 
    223 H223       -8.4590  -26.0103  -52.4187 H         1 UNK         0.0600 
    224 H224       -7.6623  -25.1630  -53.7355 H         1 UNK         0.0600 
    225 H225       -6.8883  -21.9491  -50.7104 H         1 UNK         0.3000 
    226 H226       -4.1022  -21.8836  -51.2810 H         1 UNK         0.0600 
    227 H227       -5.2637  -20.9171  -49.2462 H         1 UNK         0.0600 
    228 H228       -4.1701  -19.7753  -50.0160 H         1 UNK         0.0600 
    229 H229       -5.9090  -19.6278  -50.2509 H         1 UNK         0.0600 
    230 H230       -6.7901  -20.6037  -53.0414 H         1 UNK         0.3000 
    231 H231       -7.1311  -19.5342  -54.9225 H         1 UNK         0.0600 
    232 H232       -4.1577  -19.9235  -55.5451 H         1 UNK         0.0600 
    233 H233       -5.4499  -21.0639  -55.9117 H         1 UNK         0.0600 
    234 H234       -5.4066  -19.4958  -56.7028 H         1 UNK         0.0600 
    235 H235       -4.6263  -18.2051  -52.9629 H         1 UNK         0.3000 
    236 H236       -3.9503  -16.1861  -52.3398 H         1 UNK         0.0600 
    237 H237       -6.6555  -15.1863  -53.3564 H         1 UNK         0.0600 
    238 H238       -6.3167  -15.8173  -51.7463 H         1 UNK         0.0600 
    239 H239       -5.5703  -14.3190  -52.2771 H         1 UNK         0.0600 
    240 H240       -2.3572  -15.3387  -55.5476 H         1 UNK         0.3000 
    241 H241       -2.5381  -17.5899  -53.6042 H         1 UNK         0.0600 
    242 H242       -2.0573  -18.5361  -57.3719 H         1 UNK         0.3800 
    243 H243       -2.9599  -17.1609  -56.7952 H         1 UNK         0.3800 
    244 H244       -0.0687  -17.3854  -53.3070 H         1 UNK         0.0800 
    245 H245       -0.0804  -15.9112  -54.2329 H         1 UNK         0.0800 
    246 H246       -1.4796  -17.7167  -51.0392 H         1 UNK         0.0800 
    247 H247       -1.2764  -16.4645  -49.8433 H         1 UNK         0.0800 
@<TRIPOS>BOND
     1    1    2 1    
     2    1  127 1    
     3    1  128 1    
     4    1  129 1    
     5    2    3 2    
     6    2    4 am   BACKBONE|DICT|INTERRES
     7    4    5 1    
     8    4  130 1    
     9    5    6 1    
    10    5   65 1    
    11    5  131 1    
    12    6    7 1    
    13    6  132 1    
    14    6  133 1    
    15    7    8 1    
    16    8    9 1    
    17    8  134 1    
    18    8  135 1    
    19    9   10 ar   
    20    9   14 ar   
    21   10   11 ar   
    22   10  136 1    
    23   11   12 ar   
    24   11  126 1    
    25   12   13 ar   
    26   12  137 1    
    27   13   14 ar   
    28   13   15 1    
    29   14  138 1    
    30   15   16 1    
    31   15  139 1    
    32   15  140 1    
    33   16   17 1    
    34   17   18 1    
    35   17  141 1    
    36   17  142 1    
    37   18   19 1    
    38   18   67 1    
    39   18  143 1    
    40   19   20 am   BACKBONE|DICT|INTERRES
    41   19  144 1    
    42   20   21 2    
    43   20   22 1    
    44   22   23 1    
    45   22   24 1    
    46   22  145 1    
    47   23  146 1    
    48   23  147 1    
    49   23  148 1    
    50   24   25 am   BACKBONE|DICT|INTERRES
    51   24  149 1    
    52   25   26 2    
    53   25   27 1    
    54   27   28 1    
    55   27   29 1    
    56   27  150 1    
    57   28  151 1    
    58   28  152 1    
    59   28  153 1    
    60   29   30 am   BACKBONE|DICT|INTERRES
    61   29  154 1    
    62   30   31 2    
    63   30   32 1    
    64   32   33 1    
    65   32   34 1    
    66   32  155 1    
    67   33  156 1    
    68   33  157 1    
    69   33  158 1    
    70   34   35 am   BACKBONE|DICT|INTERRES
    71   34  159 1    
    72   35   36 2    
    73   35   37 1    
    74   37   38 1    
    75   37   39 1    
    76   37  160 1    
    77   38  161 1    
    78   38  162 1    
    79   38  163 1    
    80   39   40 am   BACKBONE|DICT|INTERRES
    81   39  164 1    
    82   40   41 2    
    83   40   42 1    
    84   42   43 1    
    85   42   44 1    
    86   42  165 1    
    87   43  166 1    
    88   43  167 1    
    89   43  168 1    
    90   44   45 am   BACKBONE|DICT|INTERRES
    91   44  169 1    
    92   45   46 2    
    93   45   47 1    
    94   47   48 1    
    95   47   49 1    
    96   47  170 1    
    97   48  171 1    
    98   48  172 1    
    99   48  173 1    
   100   49   50 am   BACKBONE|DICT|INTERRES
   101   49  174 1    
   102   50   51 2    
   103   50   52 1    
   104   52   53 1    
   105   52   54 1    
   106   52  175 1    
   107   53  176 1    
   108   53  177 1    
   109   53  178 1    
   110   54   55 am   BACKBONE|DICT|INTERRES
   111   54  179 1    
   112   55   56 2    
   113   55   57 1    
   114   57   58 1    
   115   57   59 1    
   116   57  180 1    
   117   58  181 1    
   118   58  182 1    
   119   58  183 1    
   120   59   60 am   BACKBONE|DICT|INTERRES
   121   59  184 1    
   122   60   61 2    
   123   60   62 1    
   124   62   63 1    
   125   62   64 1    
   126   62  185 1    
   127   63  186 1    
   128   63  187 1    
   129   63  188 1    
   130   64   65 am   BACKBONE|DICT|INTERRES
   131   64  189 1    
   132   65   66 2    
   133   67   68 2    
   134   67   69 am   BACKBONE|DICT|INTERRES
   135   69   70 1    
   136   69  190 1    
   137   70   71 1    
   138   70   72 1    
   139   70  191 1    
   140   71  192 1    
   141   71  193 1    
   142   71  194 1    
   143   72   73 2    
   144   72   74 am   BACKBONE|DICT|INTERRES
   145   74   75 1    
   146   74  195 1    
   147   75   76 1    
   148   75   77 1    
   149   75  196 1    
   150   76  197 1    
   151   76  198 1    
   152   76  199 1    
   153   77   78 2    
   154   77   79 am   BACKBONE|DICT|INTERRES
   155   79   80 1    
   156   79  200 1    
   157   80   81 1    
   158   80   82 1    
   159   80  201 1    
   160   81  202 1    
   161   81  203 1    
   162   81  204 1    
   163   82   83 2    
   164   82   84 am   BACKBONE|DICT|INTERRES
   165   84   85 1    
   166   84  205 1    
   167   85   86 1    
   168   85   87 1    
   169   85  206 1    
   170   86  207 1    
   171   86  208 1    
   172   86  209 1    
   173   87   88 2    
   174   87   89 am   BACKBONE|DICT|INTERRES
   175   89   90 1    
   176   89  210 1    
   177   90   91 1    
   178   90   92 1    
   179   90  211 1    
   180   91  212 1    
   181   91  213 1    
   182   91  214 1    
   183   92   93 2    
   184   92   94 am   BACKBONE|DICT|INTERRES
   185   94   95 1    
   186   94  215 1    
   187   95   96 1    
   188   95   97 1    
   189   95  216 1    
   190   96  217 1    
   191   96  218 1    
   192   96  219 1    
   193   97   98 2    
   194   97   99 am   BACKBONE|DICT|INTERRES
   195   99  100 1    
   196   99  220 1    
   197  100  101 1    
   198  100  102 1    
   199  100  221 1    
   200  101  222 1    
   201  101  223 1    
   202  101  224 1    
   203  102  103 2    
   204  102  104 am   BACKBONE|DICT|INTERRES
   205  104  105 1    
   206  104  225 1    
   207  105  106 1    
   208  105  107 1    
   209  105  226 1    
   210  106  227 1    
   211  106  228 1    
   212  106  229 1    
   213  107  108 2    
   214  107  109 am   BACKBONE|DICT|INTERRES
   215  109  110 1    
   216  109  230 1    
   217  110  111 1    
   218  110  112 1    
   219  110  231 1    
   220  111  232 1    
   221  111  233 1    
   222  111  234 1    
   223  112  113 2    
   224  112  114 am   BACKBONE|DICT|INTERRES
   225  114  115 1    
   226  114  235 1    
   227  115  116 1    
   228  115  117 1    
   229  115  236 1    
   230  116  237 1    
   231  116  238 1    
   232  116  239 1    
   233  117  118 2    
   234  117  119 am   BACKBONE|DICT|INTERRES
   235  119  120 1    
   236  119  240 1    
   237  120  121 1    
   238  120  124 1    
   239  120  241 1    
   240  121  122 am   BACKBONE|DICT|INTERRES
   241  121  123 2    
   242  122  242 1    
   243  122  243 1    
   244  124  125 1    
   245  124  244 1    
   246  124  245 1    
   247  125  126 1    
   248  126  246 1    
   249  126  247 1    
@<TRIPOS>SUBSTRUCTURE
     1 UNK         1 GROUP             0       ****    0 ROOT    
