@<TRIPOS>MOLECULE
3R540
247   249    1
SMALL
USER_CHARGES


@<TRIPOS>ATOM
      1 CA          7.3252  -13.0832  -46.7355 C.3       0 UNK        -0.1800 
      2 C           6.4248  -14.2449  -47.1299 C.2       0 UNK         0.5000 
      3 O           6.9048  -15.3714  -47.2538 O.2       0 UNK        -0.5000 
      4 N           5.1270  -13.9726  -47.3190 N.am      1 UNK        -0.5000 
      5 CA          4.0607  -14.9192  -47.6743 C.3       1 UNK         0.1400 
      6 C6          2.6955  -14.1944  -47.7639 C.3       23 UNK        -0.0398 
      7 S7          2.6286  -13.0415  -49.1791 S.3       23 UNK        -0.2404 
      8 C8          0.8818  -13.1664  -49.7101 C.3       23 UNK        -0.0205 
      9 C9          0.4819  -14.4351  -50.4684 C.ar      23 UNK        -0.0193 
     10 C10        -0.7479  -14.4496  -51.1352 C.ar      23 UNK        -0.1150 
     11 C11        -1.1828  -15.5890  -51.8201 C.ar      23 UNK        -0.0193 
     12 C12        -0.3850  -16.7354  -51.8232 C.ar      23 UNK        -0.1150 
     13 C13         0.8385  -16.7423  -51.1516 C.ar      23 UNK        -0.0193 
     14 C14         1.2755  -15.5879  -50.5012 C.ar      23 UNK        -0.1150 
     15 C15         1.6831  -18.0018  -51.0863 C.3       23 UNK        -0.0205 
     16 S16         1.5880  -18.7497  -49.4301 S.3       23 UNK        -0.2404 
     17 C17        -0.1245  -19.3704  -49.4316 C.3       23 UNK        -0.0398 
     18 CA         -0.3412  -20.4457  -48.3421 C.3       11 UNK         0.1400 
     19 N          -0.4840  -19.8814  -46.9942 N.am      11 UNK        -0.5000 
     20 C          -0.5077  -20.6194  -45.8739 C.2       10 UNK         0.5000 
     21 O          -0.3133  -21.8341  -45.8545 O.2       10 UNK        -0.5000 
     22 CA         -0.8842  -19.9053  -44.5650 C.3       10 UNK         0.1400 
     23 CB          0.3356  -19.2544  -43.9001 C.3       10 UNK        -0.1800 
     24 N          -1.9469  -18.9207  -44.7696 N.am      10 UNK        -0.5000 
     25 C          -3.2248  -19.2519  -45.0072 C.2       9 UNK         0.5000 
     26 O          -3.6379  -20.4109  -44.9938 O.2       9 UNK        -0.5000 
     27 CA         -4.1969  -18.1143  -45.3682 C.3       9 UNK         0.1400 
     28 CB         -4.9075  -17.5747  -44.1192 C.3       9 UNK        -0.1800 
     29 N          -3.5406  -17.0181  -46.0808 N.am      9 UNK        -0.5000 
     30 C          -3.1130  -17.1079  -47.3492 C.2       8 UNK         0.5000 
     31 O          -3.2360  -18.1217  -48.0356 O.2       8 UNK        -0.5000 
     32 CA         -2.3842  -15.8820  -47.9320 C.3       8 UNK         0.1400 
     33 CB         -3.3982  -14.8846  -48.5119 C.3       8 UNK        -0.1800 
     34 N          -1.5468  -15.1818  -46.9579 N.am      8 UNK        -0.5000 
     35 C          -0.5469  -15.7245  -46.2513 C.2       7 UNK         0.5000 
     36 O          -0.1955  -16.8997  -46.3608 O.2       7 UNK        -0.5000 
     37 CA          0.1638  -14.8085  -45.2336 C.3       7 UNK         0.1400 
     38 CB         -0.0937  -13.3014  -45.4572 C.3       7 UNK        -0.1800 
     39 N          -0.1310  -15.1485  -43.8420 N.am      7 UNK        -0.5000 
     40 C          -1.3371  -15.2644  -43.2644 C.2       6 UNK         0.5000 
     41 O          -2.4007  -15.2354  -43.8847 O.2       6 UNK        -0.5000 
     42 CA         -1.3679  -15.4099  -41.7276 C.3       6 UNK         0.1400 
     43 CB         -1.6598  -16.8589  -41.3113 C.3       6 UNK        -0.1800 
     44 N          -0.1293  -14.9759  -41.0767 N.am      6 UNK        -0.5000 
     45 C           0.2834  -13.7044  -40.9673 C.2       5 UNK         0.5000 
     46 O          -0.3831  -12.7354  -41.3313 O.2       5 UNK        -0.5000 
     47 CA          1.6885  -13.4812  -40.3710 C.3       5 UNK         0.1400 
     48 CB          1.5897  -13.1306  -38.8785 C.3       5 UNK        -0.1800 
     49 N           2.5815  -14.6346  -40.5337 N.am      5 UNK        -0.5000 
     50 C           3.0685  -15.0635  -41.7058 C.2       4 UNK         0.5000 
     51 O           2.8162  -14.5284  -42.7865 O.2       4 UNK        -0.5000 
     52 CA          3.9140  -16.3424  -41.6584 C.3       4 UNK         0.1400 
     53 CB          3.0118  -17.5756  -41.8331 C.3       4 UNK        -0.1800 
     54 N           4.9111  -16.3436  -42.7264 N.am      4 UNK        -0.5000 
     55 C           6.2024  -16.6704  -42.5670 C.2       3 UNK         0.5000 
     56 O           6.7098  -16.9023  -41.4675 O.2       3 UNK        -0.5000 
     57 CA          7.0687  -16.7802  -43.8464 C.3       3 UNK         0.1400 
     58 CB          8.3435  -17.6242  -43.6419 C.3       3 UNK        -0.1800 
     59 N           6.3207  -17.2606  -45.0122 N.am      3 UNK        -0.5000 
     60 C           5.5915  -18.3838  -45.1132 C.2       2 UNK         0.5000 
     61 O           5.6094  -19.2841  -44.2724 O.2       2 UNK        -0.5000 
     62 CA          4.6587  -18.5141  -46.3419 C.3       2 UNK         0.1400 
     63 CB          3.2858  -19.0859  -45.9354 C.3       2 UNK        -0.1800 
     64 N           4.4850  -17.2725  -47.1149 N.am      2 UNK        -0.5000 
     65 C           4.0016  -16.0979  -46.6786 C.2       1 UNK         0.5000 
     66 O           3.6042  -15.9021  -45.5298 O.2       1 UNK        -0.5000 
     67 C          -1.5219  -21.3704  -48.7027 C.2       11 UNK         0.5000 
     68 O          -1.2848  -22.4587  -49.2237 O.2       11 UNK        -0.5000 
     69 N          -2.7578  -20.9591  -48.3824 N.am      12 UNK        -0.5000 
     70 CA         -3.9634  -21.7740  -48.5546 C.3       12 UNK         0.1400 
     71 CB         -5.2115  -20.9403  -48.2336 C.3       12 UNK        -0.1800 
     72 C          -3.9306  -23.0668  -47.7188 C.2       12 UNK         0.5000 
     73 O          -4.2519  -24.1336  -48.2412 O.2       12 UNK        -0.5000 
     74 N          -3.4982  -22.9649  -46.4534 N.am      13 UNK        -0.5000 
     75 CA         -3.3005  -24.1025  -45.5531 C.3       13 UNK         0.1400 
     76 CB         -2.9772  -23.6001  -44.1385 C.3       13 UNK        -0.1800 
     77 C          -2.2177  -25.0762  -46.0542 C.2       13 UNK         0.5000 
     78 O          -2.4527  -26.2850  -46.0664 O.2       13 UNK        -0.5000 
     79 N          -1.0770  -24.5369  -46.5094 N.am      14 UNK        -0.5000 
     80 CA          0.0237  -25.2937  -47.1151 C.3       14 UNK         0.1400 
     81 CB          1.2208  -24.3602  -47.3494 C.3       14 UNK        -0.1800 
     82 C          -0.3772  -26.0029  -48.4237 C.2       14 UNK         0.5000 
     83 O           0.1021  -27.1050  -48.6910 O.2       14 UNK        -0.5000 
     84 N          -1.2857  -25.3822  -49.1867 N.am      15 UNK        -0.5000 
     85 CA         -1.9041  -25.9257  -50.3961 C.3       15 UNK         0.1400 
     86 CB         -2.3442  -24.7560  -51.2926 C.3       15 UNK        -0.1800 
     87 C          -3.0768  -26.8922  -50.1099 C.2       15 UNK         0.5000 
     88 O          -3.7727  -27.2761  -51.0496 O.2       15 UNK        -0.5000 
     89 N          -3.2827  -27.2720  -48.8389 N.am      16 UNK        -0.5000 
     90 CA         -4.2907  -28.2128  -48.3390 C.3       16 UNK         0.1400 
     91 CB         -4.0603  -29.6293  -48.9075 C.3       16 UNK        -0.1800 
     92 C          -5.7342  -27.7037  -48.5255 C.2       16 UNK         0.5000 
     93 O          -6.6126  -28.4595  -48.9446 O.2       16 UNK        -0.5000 
     94 N          -5.9411  -26.4212  -48.1965 N.am      17 UNK        -0.5000 
     95 CA         -7.1984  -25.6669  -48.2451 C.3       17 UNK         0.1400 
     96 CB         -8.2978  -26.3242  -47.3837 C.3       17 UNK        -0.1800 
     97 C          -7.6672  -25.3283  -49.6747 C.2       17 UNK         0.5000 
     98 O          -8.8354  -24.9859  -49.8689 O.2       17 UNK        -0.5000 
     99 N          -6.7468  -25.3865  -50.6459 N.am      18 UNK        -0.5000 
    100 CA        -6.9354  -24.8569  -51.9951 C.3       18 UNK         0.1400 
    101 CB        -5.9187  -25.5183  -52.9372 C.3       18 UNK        -0.1800 
    102 C         -6.7841  -23.3226  -52.0102 C.2       18 UNK         0.5000 
    103 O         -6.3221  -22.7309  -51.0318 O.2       18 UNK        -0.5000 
    104 N         -7.1652  -22.7036  -53.1349 N.am      19 UNK        -0.5000 
    105 CA        -7.1563  -21.2504  -53.3289 C.3       19 UNK         0.1400 
    106 CB        -7.8929  -20.9162  -54.6355 C.3       19 UNK        -0.1800 
    107 C         -5.7545  -20.6091  -53.3315 C.2       19 UNK         0.5000 
    108 O         -5.6542  -19.4100  -53.0784 O.2       19 UNK        -0.5000 
    109 N         -4.7129  -21.3957  -53.6510 N.am      20 UNK        -0.5000 
    110 CA        -3.2881  -21.0226  -53.6674 C.3       20 UNK         0.1400 
    111 CB        -2.7685  -20.8414  -52.2271 C.3       20 UNK        -0.1800 
    112 C         -2.9571  -19.8125  -54.5722 C.2       20 UNK         0.5000 
    113 O         -2.0105  -19.0747  -54.2963 O.2       20 UNK        -0.5000 
    114 N         -3.7612  -19.6342  -55.6318 N.am      21 UNK        -0.5000 
    115 CA        -3.7602  -18.5177  -56.5844 C.3       21 UNK         0.1400 
    116 CB        -2.4289  -18.4475  -57.3624 C.3       21 UNK        -0.1800 
    117 C         -4.1614  -17.1566  -55.9688 C.2       21 UNK         0.5000 
    118 O         -3.9297  -16.1217  -56.5963 O.2       21 UNK        -0.5000 
    119 N         -4.7789  -17.1659  -54.7787 N.am      22 UNK        -0.5000 
    120 CA        -5.2759  -15.9660  -54.0841 C.3       22 UNK         0.1400 
    121 C         -6.6585  -15.4597  -54.5917 C.2       22 UNK         0.5000 
    122 N         -7.3562  -16.1760  -55.4653 N.am      22 UNK        -0.7600 
    123 O         -7.1038  -14.3869  -54.1929 O.2       22 UNK        -0.5000 
    124 C124       -5.2937  -16.1490  -52.5417 C.3       23 UNK        -0.0398 
    125 S125       -3.7206  -16.6949  -51.7863 S.3       23 UNK        -0.2404 
    126 C126       -2.5095  -15.5805  -52.5615 C.3       23 UNK        -0.0205 
    127 H127        8.1139  -12.9524  -47.4761 H         1 UNK         0.0600 
    128 H128        7.7916  -13.2820  -45.7707 H         1 UNK         0.0600 
    129 H129        6.7712  -12.1474  -46.6594 H         1 UNK         0.0600 
    130 H130        4.8163  -13.0194  -47.1983 H         1 UNK         0.3000 
    131 H131        4.2992  -15.3234  -48.6602 H         1 UNK         0.0600 
    132 H132        1.8801  -14.9136  -47.8491 H         1 UNK         0.0800 
    133 H133        2.5083  -13.6265  -46.8516 H         1 UNK         0.0800 
    134 H134        0.6763  -12.3052  -50.3477 H         1 UNK         0.0800 
    135 H135        0.2344  -13.0601  -48.8398 H         1 UNK         0.0800 
    136 H136       -1.3711  -13.5664  -51.1200 H         1 UNK         0.1150 
    137 H137       -0.7292  -17.6242  -52.3345 H         1 UNK         0.1150 
    138 H138        2.2306  -15.6206  -50.0032 H         1 UNK         0.1150 
    139 H139        1.3722  -18.7248  -51.8422 H         1 UNK         0.0800 
    140 H140        2.7224  -17.7539  -51.3063 H         1 UNK         0.0800 
    141 H141       -0.3181  -19.7802  -50.4243 H         1 UNK         0.0800 
    142 H142       -0.8155  -18.5358  -49.3057 H         1 UNK         0.0800 
    143 H143        0.5439  -21.0857  -48.3254 H         1 UNK         0.0600 
    144 H144       -0.5943  -18.8759  -46.9216 H         1 UNK         0.3000 
    145 H145       -1.2537  -20.6707  -43.8792 H         1 UNK         0.0600 
    146 H146        0.6353  -18.3363  -44.4021 H         1 UNK         0.0600 
    147 H147        1.1918  -19.9302  -43.9016 H         1 UNK         0.0600 
    148 H148        0.1290  -19.0147  -42.8597 H         1 UNK         0.0600 
    149 H149       -1.6638  -17.9565  -44.8763 H         1 UNK         0.3000 
    150 H150       -4.9616  -18.5330  -46.0252 H         1 UNK         0.0600 
    151 H151       -4.2091  -17.1203  -43.4188 H         1 UNK         0.0600 
    152 H152       -5.6510  -16.8228  -44.3838 H         1 UNK         0.0600 
    153 H153       -5.4277  -18.3746  -43.5908 H         1 UNK         0.0600 
    154 H154       -3.3421  -16.1787  -45.5470 H         1 UNK         0.3000 
    155 H155       -1.7388  -16.2321  -48.7404 H         1 UNK         0.0600 
    156 H156       -4.0088  -14.4314  -47.7302 H         1 UNK         0.0600 
    157 H157       -2.8978  -14.0832  -49.0552 H         1 UNK         0.0600 
    158 H158       -4.0779  -15.3742  -49.2091 H         1 UNK         0.0600 
    159 H159       -1.7876  -14.2192  -46.7740 H         1 UNK         0.3000 
    160 H160        1.2295  -14.9851  -45.3596 H         1 UNK         0.0600 
    161 H161       -1.1293  -13.0248  -45.2560 H         1 UNK         0.0600 
    162 H162        0.1408  -13.0004  -46.4777 H         1 UNK         0.0600 
    163 H163        0.5359  -12.7036  -44.7976 H         1 UNK         0.0600 
    164 H164        0.6836  -15.1881  -43.2435 H         1 UNK         0.3000 
    165 H165       -2.1852  -14.7827  -41.3657 H         1 UNK         0.0600 
    166 H166       -1.8681  -16.9229  -40.2432 H         1 UNK         0.0600 
    167 H167       -2.5281  -17.2602  -41.8331 H         1 UNK         0.0600 
    168 H168       -0.8162  -17.5129  -41.5222 H         1 UNK         0.0600 
    169 H169        0.4770  -15.7025  -40.7271 H         1 UNK         0.3000 
    170 H170        2.1338  -12.6316  -40.8932 H         1 UNK         0.0600 
    171 H171        0.9540  -12.2578  -38.7234 H         1 UNK         0.0600 
    172 H172        1.1665  -13.9519  -38.2987 H         1 UNK         0.0600 
    173 H173        2.5694  -12.8945  -38.4626 H         1 UNK         0.0600 
    174 H174        2.8263  -15.1320  -39.6891 H         1 UNK         0.3000 
    175 H175        4.3967  -16.3926  -40.6804 H         1 UNK         0.0600 
    176 H176        2.4941  -17.5556  -42.7928 H         1 UNK         0.0600 
    177 H177        3.5926  -18.4973  -41.7894 H         1 UNK         0.0600 
    178 H178        2.2554  -17.6297  -41.0494 H         1 UNK         0.0600 
    179 H179        4.5548  -16.1155  -43.6506 H         1 UNK         0.3000 
    180 H180        7.3813  -15.7631  -44.0861 H         1 UNK         0.0600 
    181 H181        8.1080  -18.6467  -43.3453 H         1 UNK         0.0600 
    182 H182        8.9780  -17.1955  -42.8654 H         1 UNK         0.0600 
    183 H183        8.9369  -17.6681  -44.5552 H         1 UNK         0.0600 
    184 H184        6.2824  -16.6131  -45.7930 H         1 UNK         0.3000 
    185 H185        5.1346  -19.2300  -47.0132 H         1 UNK         0.0600 
    186 H186        3.3832  -20.0758  -45.4885 H         1 UNK         0.0600 
    187 H187        2.7961  -18.4437  -45.2051 H         1 UNK         0.0600 
    188 H188        2.6206  -19.1853  -46.7904 H         1 UNK         0.0600 
    189 H189        4.8448  -17.3115  -48.0584 H         1 UNK         0.3000 
    190 H190       -2.8889  -20.0163  -48.0265 H         1 UNK         0.3000 
    191 H191       -4.0204  -22.0663  -49.6038 H         1 UNK         0.0600 
    192 H192       -5.2317  -20.6252  -47.1912 H         1 UNK         0.0600 
    193 H193       -6.1188  -21.5162  -48.4201 H         1 UNK         0.0600 
    194 H194       -5.2598  -20.0479  -48.8582 H         1 UNK         0.0600 
    195 H195       -3.3045  -22.0440  -46.0726 H         1 UNK         0.3000 
    196 H196       -4.2428  -24.6525  -45.5065 H         1 UNK         0.0600 
    197 H197       -2.8583  -24.4342  -43.4460 H         1 UNK         0.0600 
    198 H198       -3.7773  -22.9683  -43.7524 H         1 UNK         0.0600 
    199 H199       -2.0541  -23.0213  -44.1160 H         1 UNK         0.0600 
    200 H200       -0.9415  -23.5323  -46.4256 H         1 UNK         0.3000 
    201 H201        0.3272  -26.0636  -46.4029 H         1 UNK         0.0600 
    202 H202        1.5584  -23.9096  -46.4159 H         1 UNK         0.0600 
    203 H203        0.9721  -23.5535  -48.0392 H         1 UNK         0.0600 
    204 H204        2.0655  -24.9055  -47.7719 H         1 UNK         0.0600 
    205 H205       -1.5748  -24.4453  -48.9234 H         1 UNK         0.3000 
    206 H206       -1.1496  -26.4954  -50.9419 H         1 UNK         0.0600 
    207 H207       -1.5284  -24.0511  -51.4532 H         1 UNK         0.0600 
    208 H208       -2.6500  -25.1130  -52.2756 H         1 UNK         0.0600 
    209 H209       -3.1811  -24.2077  -50.8582 H         1 UNK         0.0600 
    210 H210       -2.6913  -26.8650  -48.1241 H         1 UNK         0.3000 
    211 H211       -4.1341  -28.2710  -47.2610 H         1 UNK         0.0600 
    212 H212       -4.2556  -29.6760  -49.9791 H         1 UNK         0.0600 
    213 H213       -4.7177  -30.3537  -48.4255 H         1 UNK         0.0600 
    214 H214       -3.0355  -29.9597  -48.7381 H         1 UNK         0.0600 
    215 H215       -5.1297  -25.8523  -47.9696 H         1 UNK         0.3000 
    216 H216       -6.9708  -24.7042  -47.7851 H         1 UNK         0.0600 
    217 H217       -9.1537  -25.6580  -47.2701 H         1 UNK         0.0600 
    218 H218       -7.9320  -26.5523  -46.3826 H         1 UNK         0.0600 
    219 H219       -8.6658  -27.2490  -47.8279 H         1 UNK         0.0600 
    220 H220       -5.8062  -25.6535  -50.3928 H         1 UNK         0.3000 
    221 H221       -7.9412  -25.1085  -52.3380 H         1 UNK         0.0600 
    222 H222       -4.8984  -25.2369  -52.6831 H         1 UNK         0.0600 
    223 H223       -5.9862  -26.6056  -52.8907 H         1 UNK         0.0600 
    224 H224       -6.0906  -25.2281  -53.9741 H         1 UNK         0.0600 
    225 H225       -7.5291  -23.2552  -53.8986 H         1 UNK         0.3000 
    226 H226       -7.7110  -20.8015  -52.5022 H         1 UNK         0.0600 
    227 H227       -8.9218  -21.2758  -54.6117 H         1 UNK         0.0600 
    228 H228       -7.9326  -19.8381  -54.7983 H         1 UNK         0.0600 
    229 H229       -7.4006  -21.3612  -55.5011 H         1 UNK         0.0600 
    230 H230       -4.9141  -22.3607  -53.8695 H         1 UNK         0.3000 
    231 H231       -2.7562  -21.8703  -54.1012 H         1 UNK         0.0600 
    232 H232       -1.6921  -20.6700  -52.2153 H         1 UNK         0.0600 
    233 H233       -2.9546  -21.7344  -51.6327 H         1 UNK         0.0600 
    234 H234       -3.2429  -19.9964  -51.7263 H         1 UNK         0.0600 
    235 H235       -4.5054  -20.3054  -55.7568 H         1 UNK         0.3000 
    236 H236       -4.5425  -18.7508  -57.3079 H         1 UNK         0.0600 
    237 H237       -2.4975  -17.7434  -58.1923 H         1 UNK         0.0600 
    238 H238       -1.6041  -18.1211  -56.7287 H         1 UNK         0.0600 
    239 H239       -2.1660  -19.4176  -57.7841 H         1 UNK         0.0600 
    240 H240       -4.9333  -18.0452  -54.2942 H         1 UNK         0.3000 
    241 H241       -4.5889  -15.1479  -54.3040 H         1 UNK         0.0600 
    242 H242       -8.2469  -15.8336  -55.7902 H         1 UNK         0.3800 
    243 H243       -7.0034  -17.0569  -55.8017 H         1 UNK         0.3800 
    244 H244       -5.5756  -15.2132  -52.0559 H         1 UNK         0.0800 
    245 H245       -6.0599  -16.8728  -52.2601 H         1 UNK         0.0800 
    246 H246       -2.9182  -14.5696  -52.5957 H         1 UNK         0.0800 
    247 H247       -2.3422  -15.8904  -53.5941 H         1 UNK         0.0800 
@<TRIPOS>BOND
     1    1    2 1    
     2    1  127 1    
     3    1  128 1    
     4    1  129 1    
     5    2    3 2    
     6    2    4 am   BACKBONE|DICT|INTERRES
     7    4    5 1    
     8    4  130 1    
     9    5    6 1    
    10    5   65 1    
    11    5  131 1    
    12    6    7 1    
    13    6  132 1    
    14    6  133 1    
    15    7    8 1    
    16    8    9 1    
    17    8  134 1    
    18    8  135 1    
    19    9   10 ar   
    20    9   14 ar   
    21   10   11 ar   
    22   10  136 1    
    23   11   12 ar   
    24   11  126 1    
    25   12   13 ar   
    26   12  137 1    
    27   13   14 ar   
    28   13   15 1    
    29   14  138 1    
    30   15   16 1    
    31   15  139 1    
    32   15  140 1    
    33   16   17 1    
    34   17   18 1    
    35   17  141 1    
    36   17  142 1    
    37   18   19 1    
    38   18   67 1    
    39   18  143 1    
    40   19   20 am   BACKBONE|DICT|INTERRES
    41   19  144 1    
    42   20   21 2    
    43   20   22 1    
    44   22   23 1    
    45   22   24 1    
    46   22  145 1    
    47   23  146 1    
    48   23  147 1    
    49   23  148 1    
    50   24   25 am   BACKBONE|DICT|INTERRES
    51   24  149 1    
    52   25   26 2    
    53   25   27 1    
    54   27   28 1    
    55   27   29 1    
    56   27  150 1    
    57   28  151 1    
    58   28  152 1    
    59   28  153 1    
    60   29   30 am   BACKBONE|DICT|INTERRES
    61   29  154 1    
    62   30   31 2    
    63   30   32 1    
    64   32   33 1    
    65   32   34 1    
    66   32  155 1    
    67   33  156 1    
    68   33  157 1    
    69   33  158 1    
    70   34   35 am   BACKBONE|DICT|INTERRES
    71   34  159 1    
    72   35   36 2    
    73   35   37 1    
    74   37   38 1    
    75   37   39 1    
    76   37  160 1    
    77   38  161 1    
    78   38  162 1    
    79   38  163 1    
    80   39   40 am   BACKBONE|DICT|INTERRES
    81   39  164 1    
    82   40   41 2    
    83   40   42 1    
    84   42   43 1    
    85   42   44 1    
    86   42  165 1    
    87   43  166 1    
    88   43  167 1    
    89   43  168 1    
    90   44   45 am   BACKBONE|DICT|INTERRES
    91   44  169 1    
    92   45   46 2    
    93   45   47 1    
    94   47   48 1    
    95   47   49 1    
    96   47  170 1    
    97   48  171 1    
    98   48  172 1    
    99   48  173 1    
   100   49   50 am   BACKBONE|DICT|INTERRES
   101   49  174 1    
   102   50   51 2    
   103   50   52 1    
   104   52   53 1    
   105   52   54 1    
   106   52  175 1    
   107   53  176 1    
   108   53  177 1    
   109   53  178 1    
   110   54   55 am   BACKBONE|DICT|INTERRES
   111   54  179 1    
   112   55   56 2    
   113   55   57 1    
   114   57   58 1    
   115   57   59 1    
   116   57  180 1    
   117   58  181 1    
   118   58  182 1    
   119   58  183 1    
   120   59   60 am   BACKBONE|DICT|INTERRES
   121   59  184 1    
   122   60   61 2    
   123   60   62 1    
   124   62   63 1    
   125   62   64 1    
   126   62  185 1    
   127   63  186 1    
   128   63  187 1    
   129   63  188 1    
   130   64   65 am   BACKBONE|DICT|INTERRES
   131   64  189 1    
   132   65   66 2    
   133   67   68 2    
   134   67   69 am   BACKBONE|DICT|INTERRES
   135   69   70 1    
   136   69  190 1    
   137   70   71 1    
   138   70   72 1    
   139   70  191 1    
   140   71  192 1    
   141   71  193 1    
   142   71  194 1    
   143   72   73 2    
   144   72   74 am   BACKBONE|DICT|INTERRES
   145   74   75 1    
   146   74  195 1    
   147   75   76 1    
   148   75   77 1    
   149   75  196 1    
   150   76  197 1    
   151   76  198 1    
   152   76  199 1    
   153   77   78 2    
   154   77   79 am   BACKBONE|DICT|INTERRES
   155   79   80 1    
   156   79  200 1    
   157   80   81 1    
   158   80   82 1    
   159   80  201 1    
   160   81  202 1    
   161   81  203 1    
   162   81  204 1    
   163   82   83 2    
   164   82   84 am   BACKBONE|DICT|INTERRES
   165   84   85 1    
   166   84  205 1    
   167   85   86 1    
   168   85   87 1    
   169   85  206 1    
   170   86  207 1    
   171   86  208 1    
   172   86  209 1    
   173   87   88 2    
   174   87   89 am   BACKBONE|DICT|INTERRES
   175   89   90 1    
   176   89  210 1    
   177   90   91 1    
   178   90   92 1    
   179   90  211 1    
   180   91  212 1    
   181   91  213 1    
   182   91  214 1    
   183   92   93 2    
   184   92   94 am   BACKBONE|DICT|INTERRES
   185   94   95 1    
   186   94  215 1    
   187   95   96 1    
   188   95   97 1    
   189   95  216 1    
   190   96  217 1    
   191   96  218 1    
   192   96  219 1    
   193   97   98 2    
   194   97   99 am   BACKBONE|DICT|INTERRES
   195   99  100 1    
   196   99  220 1    
   197  100  101 1    
   198  100  102 1    
   199  100  221 1    
   200  101  222 1    
   201  101  223 1    
   202  101  224 1    
   203  102  103 2    
   204  102  104 am   BACKBONE|DICT|INTERRES
   205  104  105 1    
   206  104  225 1    
   207  105  106 1    
   208  105  107 1    
   209  105  226 1    
   210  106  227 1    
   211  106  228 1    
   212  106  229 1    
   213  107  108 2    
   214  107  109 am   BACKBONE|DICT|INTERRES
   215  109  110 1    
   216  109  230 1    
   217  110  111 1    
   218  110  112 1    
   219  110  231 1    
   220  111  232 1    
   221  111  233 1    
   222  111  234 1    
   223  112  113 2    
   224  112  114 am   BACKBONE|DICT|INTERRES
   225  114  115 1    
   226  114  235 1    
   227  115  116 1    
   228  115  117 1    
   229  115  236 1    
   230  116  237 1    
   231  116  238 1    
   232  116  239 1    
   233  117  118 2    
   234  117  119 am   BACKBONE|DICT|INTERRES
   235  119  120 1    
   236  119  240 1    
   237  120  121 1    
   238  120  124 1    
   239  120  241 1    
   240  121  122 am   BACKBONE|DICT|INTERRES
   241  121  123 2    
   242  122  242 1    
   243  122  243 1    
   244  124  125 1    
   245  124  244 1    
   246  124  245 1    
   247  125  126 1    
   248  126  246 1    
   249  126  247 1    
@<TRIPOS>SUBSTRUCTURE
     1 UNK         1 GROUP             0       ****    0 ROOT    
