@<TRIPOS>MOLECULE
3R540
247   249    1
SMALL
USER_CHARGES


@<TRIPOS>ATOM
      1 CA          3.5149  -12.3525  -50.3554 C.3       0 UNK        -0.1800 
      2 C           2.1629  -11.7373  -49.9993 C.2       0 UNK         0.5000 
      3 O           1.5280  -11.1348  -50.8628 O.2       0 UNK        -0.5000 
      4 N           1.6758  -11.8639  -48.7583 N.am      1 UNK        -0.5000 
      5 CA          2.3469  -12.4670  -47.6040 C.3       1 UNK         0.1400 
      6 C6          1.3300  -12.9582  -46.5452 C.3       23 UNK        -0.0398 
      7 S7          0.5069  -14.4920  -47.0765 S.3       23 UNK        -0.2404 
      8 C8         -1.0808  -13.8764  -47.7166 C.3       23 UNK        -0.0205 
      9 C9         -1.9067  -15.0019  -48.3237 C.ar      23 UNK        -0.0193 
     10 C10        -1.5515  -15.5353  -49.5651 C.ar      23 UNK        -0.1150 
     11 C11        -2.3149  -16.5504  -50.1480 C.ar      23 UNK        -0.0193 
     12 C12        -3.4324  -17.0485  -49.4709 C.ar      23 UNK        -0.1150 
     13 C13        -3.8098  -16.5153  -48.2355 C.ar      23 UNK        -0.0193 
     14 C14        -3.0395  -15.4932  -47.6675 C.ar      23 UNK        -0.1150 
     15 C15        -5.0905  -16.9868  -47.5557 C.3       23 UNK        -0.0205 
     16 S16        -4.8115  -17.5772  -45.8571 S.3       23 UNK        -0.2404 
     17 C17        -4.8431  -19.3936  -46.0205 C.3       23 UNK        -0.0398 
     18 CA         -3.7873  -20.0232  -46.9663 C.3       11 UNK         0.1400 
     19 N          -2.4257  -19.5199  -46.7554 N.am      11 UNK        -0.5000 
     20 C          -1.3685  -19.8545  -47.5124 C.2       10 UNK         0.5000 
     21 O          -1.4350  -20.5774  -48.5068 O.2       10 UNK        -0.5000 
     22 CA          0.0062  -19.3547  -47.0457 C.3       10 UNK         0.1400 
     23 CB          0.2688  -17.9328  -47.5471 C.3       10 UNK        -0.1800 
     24 N           0.1253  -19.4004  -45.5898 N.am      10 UNK        -0.5000 
     25 C           0.3042  -20.5320  -44.8946 C.2       9 UNK         0.5000 
     26 O           0.4270  -21.6400  -45.4165 O.2       9 UNK        -0.5000 
     27 CA          0.3072  -20.4178  -43.3597 C.3       9 UNK         0.1400 
     28 CB          1.7236  -20.1299  -42.8432 C.3       9 UNK        -0.1800 
     29 N          -0.6285  -19.4053  -42.8627 N.am      9 UNK        -0.5000 
     30 C          -1.9605  -19.5320  -42.9631 C.2       8 UNK         0.5000 
     31 O          -2.5112  -20.5012  -43.4852 O.2       8 UNK        -0.5000 
     32 CA         -2.8387  -18.3918  -42.4216 C.3       8 UNK         0.1400 
     33 CB         -3.0825  -18.5753  -40.9166 C.3       8 UNK        -0.1800 
     34 N          -2.3437  -17.0372  -42.6588 N.am      8 UNK        -0.5000 
     35 C          -1.9212  -16.5094  -43.8139 C.2       7 UNK         0.5000 
     36 O          -1.7225  -17.1613  -44.8383 O.2       7 UNK        -0.5000 
     37 CA         -1.6562  -14.9912  -43.8139 C.3       7 UNK         0.1400 
     38 CB         -2.9626  -14.1799  -43.7128 C.3       7 UNK        -0.1800 
     39 N          -0.6732  -14.5827  -42.8050 N.am      7 UNK        -0.5000 
     40 C          -0.7560  -14.6543  -41.4668 C.2       6 UNK         0.5000 
     41 O          -1.7966  -14.9014  -40.8539 O.2       6 UNK        -0.5000 
     42 CA          0.5754  -14.4903  -40.7000 C.3       6 UNK         0.1400 
     43 CB          0.5497  -15.1710  -39.3162 C.3       6 UNK        -0.1800 
     44 N           1.7410  -14.9494  -41.4696 N.am      6 UNK        -0.5000 
     45 C           1.9342  -16.1664  -42.0099 C.2       5 UNK         0.5000 
     46 O           1.1356  -17.0987  -41.9026 O.2       5 UNK        -0.5000 
     47 CA          3.2010  -16.3638  -42.8676 C.3       5 UNK         0.1400 
     48 CB          2.8289  -16.3787  -44.3602 C.3       5 UNK        -0.1800 
     49 N           4.2206  -15.3356  -42.6467 N.am      5 UNK        -0.5000 
     50 C           5.0005  -15.2591  -41.5600 C.2       4 UNK         0.5000 
     51 O           4.9904  -16.0923  -40.6533 O.2       4 UNK        -0.5000 
     52 CA          5.9362  -14.0388  -41.4553 C.3       4 UNK         0.1400 
     53 CB          7.3399  -14.3961  -41.9674 C.3       4 UNK        -0.1800 
     54 N           5.4710  -12.8379  -42.1580 N.am      4 UNK        -0.5000 
     55 C           4.3371  -12.1652  -41.9266 C.2       3 UNK         0.5000 
     56 O           3.4608  -12.5589  -41.1568 O.2       3 UNK        -0.5000 
     57 CA          4.1283  -10.8376  -42.6848 C.3       3 UNK         0.1400 
     58 CB          4.8400   -9.6785  -41.9626 C.3       3 UNK        -0.1800 
     59 N           4.4722  -10.8627  -44.1143 N.am      3 UNK        -0.5000 
     60 C           5.6596  -11.0414  -44.7108 C.2       2 UNK         0.5000 
     61 O           6.7070  -11.2524  -44.0966 O.2       2 UNK        -0.5000 
     62 CA          5.6586  -11.0139  -46.2554 C.3       2 UNK         0.1400 
     63 CB          6.9971  -11.4800  -46.8569 C.3       2 UNK        -0.1800 
     64 N           4.5825  -11.8332  -46.8218 N.am      2 UNK        -0.5000 
     65 C           3.3133  -11.4411  -46.9869 C.2       1 UNK         0.5000 
     66 O           2.8916  -10.3357  -46.6411 O.2       1 UNK        -0.5000 
     67 C          -3.8343  -21.5612  -46.8403 C.2       11 UNK         0.5000 
     68 O          -4.3987  -22.2329  -47.7051 O.2       11 UNK        -0.5000 
     69 N          -3.2029  -22.0850  -45.7782 N.am      12 UNK        -0.5000 
     70 CA         -3.0566  -23.5128  -45.5089 C.3       12 UNK         0.1400 
     71 CB         -2.4281  -23.7209  -44.1232 C.3       12 UNK        -0.1800 
     72 C          -2.2433  -24.2372  -46.5920 C.2       12 UNK         0.5000 
     73 O          -2.6697  -25.2978  -47.0430 O.2       12 UNK        -0.5000 
     74 N          -1.1188  -23.6445  -47.0200 N.am      13 UNK        -0.5000 
     75 CA         -0.2714  -24.1662  -48.0945 C.3       13 UNK         0.1400 
     76 CB          1.0048  -23.3207  -48.2151 C.3       13 UNK        -0.1800 
     77 C          -1.0029  -24.2474  -49.4459 C.2       13 UNK         0.5000 
     78 O          -0.9217  -25.2777  -50.1141 O.2       13 UNK        -0.5000 
     79 N          -1.7395  -23.1842  -49.7997 N.am      14 UNK        -0.5000 
     80 CA         -2.5639  -23.1038  -51.0073 C.3       14 UNK         0.1400 
     81 CB         -3.1449  -21.6873  -51.1295 C.3       14 UNK        -0.1800 
     82 C          -3.6887  -24.1552  -51.0460 C.2       14 UNK         0.5000 
     83 O          -3.9728  -24.7026  -52.1148 O.2       14 UNK        -0.5000 
     84 N          -4.2912  -24.4252  -49.8803 N.am      15 UNK        -0.5000 
     85 CA         -5.2994  -25.4637  -49.6886 C.3       15 UNK         0.1400 
     86 CB         -6.0424  -25.2214  -48.3660 C.3       15 UNK        -0.1800 
     87 C          -4.6924  -26.8773  -49.7319 C.2       15 UNK         0.5000 
     88 O          -5.2193  -27.7360  -50.4385 O.2       15 UNK        -0.5000 
     89 N          -3.5877  -27.0923  -49.0024 N.am      16 UNK        -0.5000 
     90 CA         -2.8806  -28.3730  -48.8962 C.3       16 UNK         0.1400 
     91 CB         -1.7879  -28.2726  -47.8214 C.3       16 UNK        -0.1800 
     92 C          -2.2790  -28.8546  -50.2277 C.2       16 UNK         0.5000 
     93 O          -2.3026  -30.0538  -50.5068 O.2       16 UNK        -0.5000 
     94 N          -1.7865  -27.9109  -51.0407 N.am      17 UNK        -0.5000 
     95 CA         -1.3030  -28.1535  -52.4011 C.3       17 UNK         0.1400 
     96 CB         -0.4720  -26.9408  -52.8509 C.3       17 UNK        -0.1800 
     97 C          -2.4343  -28.4216  -53.4149 C.2       17 UNK         0.5000 
     98 O          -2.1425  -28.8435  -54.5345 O.2       17 UNK        -0.5000 
     99 N          -3.6881  -28.1357  -53.0254 N.am      18 UNK        -0.5000 
    100 CA        -4.9069  -28.1490  -53.8428 C.3       18 UNK         0.1400 
    101 CB        -5.2482  -29.5795  -54.3084 C.3       18 UNK        -0.1800 
    102 C         -4.8561  -27.1294  -55.0010 C.2       18 UNK         0.5000 
    103 O         -5.4968  -27.3304  -56.0343 O.2       18 UNK        -0.5000 
    104 N         -4.0841  -26.0529  -54.8049 N.am      19 UNK        -0.5000 
    105 CA        -3.8821  -24.9816  -55.7733 C.3       19 UNK         0.1400 
    106 CB        -2.5249  -24.3126  -55.5005 C.3       19 UNK        -0.1800 
    107 C         -5.0127  -23.9456  -55.7092 C.2       19 UNK         0.5000 
    108 O         -5.4056  -23.4184  -56.7503 O.2       19 UNK        -0.5000 
    109 N         -5.4948  -23.6670  -54.4856 N.am      20 UNK        -0.5000 
    110 CA        -6.5014  -22.6516  -54.1459 C.3       20 UNK         0.1400 
    111 CB        -7.8892  -23.0587  -54.6821 C.3       20 UNK        -0.1800 
    112 C         -6.0781  -21.2272  -54.5736 C.2       20 UNK         0.5000 
    113 O         -6.9118  -20.4245  -54.9996 O.2       20 UNK        -0.5000 
    114 N         -4.7687  -20.9600  -54.4725 N.am      21 UNK        -0.5000 
    115 CA        -4.1154  -19.7036  -54.8281 C.3       21 UNK         0.1400 
    116 CB        -2.5961  -19.8807  -54.6739 C.3       21 UNK        -0.1800 
    117 C         -4.6041  -18.5122  -53.9850 C.2       21 UNK         0.5000 
    118 O         -5.0068  -18.6901  -52.8329 O.2       21 UNK        -0.5000 
    119 N         -4.5208  -17.3188  -54.5833 N.am      22 UNK        -0.5000 
    120 CA        -4.8941  -16.0157  -54.0027 C.3       22 UNK         0.1400 
    121 C         -6.4290  -15.7787  -53.8522 C.2       22 UNK         0.5000 
    122 N         -7.2948  -16.6541  -54.3492 N.am      22 UNK        -0.7600 
    123 O         -6.8478  -14.7620  -53.3052 O.2       22 UNK        -0.5000 
    124 C124       -4.1261  -15.6686  -52.6956 C.3       23 UNK        -0.0398 
    125 S125       -2.3096  -15.8498  -52.8312 S.3       23 UNK        -0.2404 
    126 C126       -1.9539  -17.0778  -51.5288 C.3       23 UNK        -0.0205 
    127 H127        3.5083  -13.4295  -50.1885 H         1 UNK         0.0600 
    128 H128        4.3163  -11.9062  -49.7674 H         1 UNK         0.0600 
    129 H129        3.7447  -12.1840  -51.4078 H         1 UNK         0.0600 
    130 H130        0.7972  -11.4144  -48.5481 H         1 UNK         0.3000 
    131 H131        2.9274  -13.3313  -47.9321 H         1 UNK         0.0600 
    132 H132        1.8315  -13.1838  -45.6025 H         1 UNK         0.0800 
    133 H133        0.5893  -12.1899  -46.3154 H         1 UNK         0.0800 
    134 H134       -0.8987  -13.1175  -48.4782 H         1 UNK         0.0800 
    135 H135       -1.6313  -13.3858  -46.9125 H         1 UNK         0.0800 
    136 H136       -0.6876  -15.1476  -50.0866 H         1 UNK         0.1150 
    137 H137       -4.0301  -17.8257  -49.9270 H         1 UNK         0.1150 
    138 H138       -3.3323  -15.0740  -46.7168 H         1 UNK         0.1150 
    139 H139       -5.7833  -16.1455  -47.5162 H         1 UNK         0.0800 
    140 H140       -5.5891  -17.7607  -48.1410 H         1 UNK         0.0800 
    141 H141       -5.8458  -19.6821  -46.3407 H         1 UNK         0.0800 
    142 H142       -4.7311  -19.7898  -45.0097 H         1 UNK         0.0800 
    143 H143       -4.0613  -19.7728  -47.9929 H         1 UNK         0.0600 
    144 H144       -2.2915  -18.8705  -45.9880 H         1 UNK         0.3000 
    145 H145        0.7686  -20.0062  -47.4774 H         1 UNK         0.0600 
    146 H146       -0.4870  -17.2407  -47.1783 H         1 UNK         0.0600 
    147 H147        0.2438  -17.8913  -48.6365 H         1 UNK         0.0600 
    148 H148        1.2454  -17.5707  -47.2263 H         1 UNK         0.0600 
    149 H149       -0.0853  -18.5443  -45.0912 H         1 UNK         0.3000 
    150 H150       -0.0035  -21.3838  -42.9558 H         1 UNK         0.0600 
    151 H151        2.4037  -20.9415  -43.1047 H         1 UNK         0.0600 
    152 H152        1.7386  -20.0277  -41.7580 H         1 UNK         0.0600 
    153 H153        2.1294  -19.2157  -43.2741 H         1 UNK         0.0600 
    154 H154       -0.2295  -18.5680  -42.4493 H         1 UNK         0.3000 
    155 H155       -3.8020  -18.4632  -42.9298 H         1 UNK         0.0600 
    156 H156       -2.1619  -18.4504  -40.3446 H         1 UNK         0.0600 
    157 H157       -3.4736  -19.5704  -40.7000 H         1 UNK         0.0600 
    158 H158       -3.8089  -17.8532  -40.5434 H         1 UNK         0.0600 
    159 H159       -2.3913  -16.4001  -41.8688 H         1 UNK         0.3000 
    160 H160       -1.2081  -14.7572  -44.7781 H         1 UNK         0.0600 
    161 H161       -2.7694  -13.1121  -43.8141 H         1 UNK         0.0600 
    162 H162       -3.4781  -14.3385  -42.7659 H         1 UNK         0.0600 
    163 H163       -3.6579  -14.4615  -44.5036 H         1 UNK         0.0600 
    164 H164        0.2445  -14.3864  -43.1760 H         1 UNK         0.3000 
    165 H165        0.7098  -13.4192  -40.5434 H         1 UNK         0.0600 
    166 H166        1.4986  -15.0395  -38.7961 H         1 UNK         0.0600 
    167 H167       -0.2283  -14.7439  -38.6826 H         1 UNK         0.0600 
    168 H168        0.3566  -16.2414  -39.3963 H         1 UNK         0.0600 
    169 H169        2.4701  -14.2525  -41.5827 H         1 UNK         0.3000 
    170 H170        3.6241  -17.3364  -42.6082 H         1 UNK         0.0600 
    171 H171        2.0702  -17.1329  -44.5732 H         1 UNK         0.0600 
    172 H172        2.4295  -15.4181  -44.6850 H         1 UNK         0.0600 
    173 H173        3.6950  -16.6090  -44.9807 H         1 UNK         0.0600 
    174 H174        4.3055  -14.6129  -43.3458 H         1 UNK         0.3000 
    175 H175        6.0141  -13.7844  -40.3965 H         1 UNK         0.0600 
    176 H176        7.7369  -15.2700  -41.4489 H         1 UNK         0.0600 
    177 H177        8.0398  -13.5765  -41.8036 H         1 UNK         0.0600 
    178 H178        7.3317  -14.6213  -43.0347 H         1 UNK         0.0600 
    179 H179        6.1204  -12.4160  -42.8185 H         1 UNK         0.3000 
    180 H180        3.0575  -10.6304  -42.6492 H         1 UNK         0.0600 
    181 H181        5.9224   -9.8095  -41.9467 H         1 UNK         0.0600 
    182 H182        4.5070   -9.6026  -40.9266 H         1 UNK         0.0600 
    183 H183        4.6249   -8.7240  -42.4430 H         1 UNK         0.0600 
    184 H184        3.6927  -10.6902  -44.7394 H         1 UNK         0.3000 
    185 H185        5.5093   -9.9738  -46.5533 H         1 UNK         0.0600 
    186 H186        7.8218  -10.8547  -46.5123 H         1 UNK         0.0600 
    187 H187        7.2266  -12.5099  -46.5803 H         1 UNK         0.0600 
    188 H188        6.9821  -11.4202  -47.9454 H         1 UNK         0.0600 
    189 H189        4.8452  -12.7704  -47.0921 H         1 UNK         0.3000 
    190 H190       -2.8021  -21.4562  -45.0863 H         1 UNK         0.3000 
    191 H191       -4.0566  -23.9510  -45.4967 H         1 UNK         0.0600 
    192 H192       -1.4388  -23.2674  -44.0566 H         1 UNK         0.0600 
    193 H193       -2.3196  -24.7827  -43.8987 H         1 UNK         0.0600 
    194 H194       -3.0486  -23.2848  -43.3402 H         1 UNK         0.0600 
    195 H195       -0.8059  -22.7919  -46.5677 H         1 UNK         0.3000 
    196 H196        0.0229  -25.1806  -47.8182 H         1 UNK         0.0600 
    197 H197        1.6537  -23.7037  -49.0037 H         1 UNK         0.0600 
    198 H198        1.5772  -23.3369  -47.2877 H         1 UNK         0.0600 
    199 H199        0.7788  -22.2810  -48.4518 H         1 UNK         0.0600 
    200 H200       -1.7273  -22.3593  -49.2050 H         1 UNK         0.3000 
    201 H201       -1.9158  -23.2854  -51.8670 H         1 UNK         0.0600 
    202 H202       -2.3544  -20.9436  -51.2312 H         1 UNK         0.0600 
    203 H203       -3.7400  -21.4194  -50.2560 H         1 UNK         0.0600 
    204 H204       -3.7918  -21.5988  -52.0006 H         1 UNK         0.0600 
    205 H205       -4.0254  -23.8902  -49.0614 H         1 UNK         0.3000 
    206 H206       -6.0262  -25.3875  -50.5004 H         1 UNK         0.0600 
    207 H207       -6.5312  -24.2469  -48.3636 H         1 UNK         0.0600 
    208 H208       -6.8153  -25.9746  -48.2083 H         1 UNK         0.0600 
    209 H209       -5.3688  -25.2565  -47.5095 H         1 UNK         0.0600 
    210 H210       -3.2308  -26.3377  -48.4187 H         1 UNK         0.3000 
    211 H211       -3.6052  -29.1233  -48.5736 H         1 UNK         0.0600 
    212 H212       -1.0567  -27.5009  -48.0648 H         1 UNK         0.0600 
    213 H213       -1.2502  -29.2159  -47.7184 H         1 UNK         0.0600 
    214 H214       -2.2146  -28.0348  -46.8469 H         1 UNK         0.0600 
    215 H215       -1.7356  -26.9522  -50.7060 H         1 UNK         0.3000 
    216 H216       -0.6539  -29.0314  -52.3899 H         1 UNK         0.0600 
    217 H217       -0.0644  -27.0907  -53.8515 H         1 UNK         0.0600 
    218 H218        0.3705  -26.7698  -52.1805 H         1 UNK         0.0600 
    219 H219       -1.0719  -26.0297  -52.8735 H         1 UNK         0.0600 
    220 H220       -3.8258  -27.8276  -52.0704 H         1 UNK         0.3000 
    221 H221       -5.7131  -27.8163  -53.1878 H         1 UNK         0.0600 
    222 H222       -6.2315  -29.6128  -54.7787 H         1 UNK         0.0600 
    223 H223       -5.2689  -30.2722  -53.4670 H         1 UNK         0.0600 
    224 H224       -4.5270  -29.9542  -55.0350 H         1 UNK         0.0600 
    225 H225       -3.6524  -25.9331  -53.8972 H         1 UNK         0.3000 
    226 H226       -3.8603  -25.4033  -56.7806 H         1 UNK         0.0600 
    227 H227       -1.7085  -25.0292  -55.5944 H         1 UNK         0.0600 
    228 H228       -2.3354  -23.5084  -56.2126 H         1 UNK         0.0600 
    229 H229       -2.4776  -23.8832  -54.4989 H         1 UNK         0.0600 
    230 H230       -5.0821  -24.1562  -53.6970 H         1 UNK         0.3000 
    231 H231       -6.5614  -22.6342  -53.0566 H         1 UNK         0.0600 
    232 H232       -8.1595  -24.0620  -54.3527 H         1 UNK         0.0600 
    233 H233       -7.9237  -23.0428  -55.7717 H         1 UNK         0.0600 
    234 H234       -8.6625  -22.3800  -54.3207 H         1 UNK         0.0600 
    235 H235       -4.1693  -21.6869  -54.1158 H         1 UNK         0.3000 
    236 H236       -4.3402  -19.5030  -55.8777 H         1 UNK         0.0600 
    237 H237       -2.2261  -20.6939  -55.2988 H         1 UNK         0.0600 
    238 H238       -2.0639  -18.9761  -54.9713 H         1 UNK         0.0600 
    239 H239       -2.3185  -20.0959  -53.6416 H         1 UNK         0.0600 
    240 H240       -4.1735  -17.2773  -55.5308 H         1 UNK         0.3000 
    241 H241       -4.5834  -15.2842  -54.7493 H         1 UNK         0.0600 
    242 H242       -8.2833  -16.4810  -54.2557 H         1 UNK         0.3800 
    243 H243       -6.9746  -17.5046  -54.7861 H         1 UNK         0.3800 
    244 H244       -4.5035  -16.2786  -51.8762 H         1 UNK         0.0800 
    245 H245       -4.3230  -14.6352  -52.4061 H         1 UNK         0.0800 
    246 H246       -0.8919  -17.3256  -51.5528 H         1 UNK         0.0800 
    247 H247       -2.4896  -18.0036  -51.7440 H         1 UNK         0.0800 
@<TRIPOS>BOND
     1    1    2 1    
     2    1  127 1    
     3    1  128 1    
     4    1  129 1    
     5    2    3 2    
     6    2    4 am   BACKBONE|DICT|INTERRES
     7    4    5 1    
     8    4  130 1    
     9    5    6 1    
    10    5   65 1    
    11    5  131 1    
    12    6    7 1    
    13    6  132 1    
    14    6  133 1    
    15    7    8 1    
    16    8    9 1    
    17    8  134 1    
    18    8  135 1    
    19    9   10 ar   
    20    9   14 ar   
    21   10   11 ar   
    22   10  136 1    
    23   11   12 ar   
    24   11  126 1    
    25   12   13 ar   
    26   12  137 1    
    27   13   14 ar   
    28   13   15 1    
    29   14  138 1    
    30   15   16 1    
    31   15  139 1    
    32   15  140 1    
    33   16   17 1    
    34   17   18 1    
    35   17  141 1    
    36   17  142 1    
    37   18   19 1    
    38   18   67 1    
    39   18  143 1    
    40   19   20 am   BACKBONE|DICT|INTERRES
    41   19  144 1    
    42   20   21 2    
    43   20   22 1    
    44   22   23 1    
    45   22   24 1    
    46   22  145 1    
    47   23  146 1    
    48   23  147 1    
    49   23  148 1    
    50   24   25 am   BACKBONE|DICT|INTERRES
    51   24  149 1    
    52   25   26 2    
    53   25   27 1    
    54   27   28 1    
    55   27   29 1    
    56   27  150 1    
    57   28  151 1    
    58   28  152 1    
    59   28  153 1    
    60   29   30 am   BACKBONE|DICT|INTERRES
    61   29  154 1    
    62   30   31 2    
    63   30   32 1    
    64   32   33 1    
    65   32   34 1    
    66   32  155 1    
    67   33  156 1    
    68   33  157 1    
    69   33  158 1    
    70   34   35 am   BACKBONE|DICT|INTERRES
    71   34  159 1    
    72   35   36 2    
    73   35   37 1    
    74   37   38 1    
    75   37   39 1    
    76   37  160 1    
    77   38  161 1    
    78   38  162 1    
    79   38  163 1    
    80   39   40 am   BACKBONE|DICT|INTERRES
    81   39  164 1    
    82   40   41 2    
    83   40   42 1    
    84   42   43 1    
    85   42   44 1    
    86   42  165 1    
    87   43  166 1    
    88   43  167 1    
    89   43  168 1    
    90   44   45 am   BACKBONE|DICT|INTERRES
    91   44  169 1    
    92   45   46 2    
    93   45   47 1    
    94   47   48 1    
    95   47   49 1    
    96   47  170 1    
    97   48  171 1    
    98   48  172 1    
    99   48  173 1    
   100   49   50 am   BACKBONE|DICT|INTERRES
   101   49  174 1    
   102   50   51 2    
   103   50   52 1    
   104   52   53 1    
   105   52   54 1    
   106   52  175 1    
   107   53  176 1    
   108   53  177 1    
   109   53  178 1    
   110   54   55 am   BACKBONE|DICT|INTERRES
   111   54  179 1    
   112   55   56 2    
   113   55   57 1    
   114   57   58 1    
   115   57   59 1    
   116   57  180 1    
   117   58  181 1    
   118   58  182 1    
   119   58  183 1    
   120   59   60 am   BACKBONE|DICT|INTERRES
   121   59  184 1    
   122   60   61 2    
   123   60   62 1    
   124   62   63 1    
   125   62   64 1    
   126   62  185 1    
   127   63  186 1    
   128   63  187 1    
   129   63  188 1    
   130   64   65 am   BACKBONE|DICT|INTERRES
   131   64  189 1    
   132   65   66 2    
   133   67   68 2    
   134   67   69 am   BACKBONE|DICT|INTERRES
   135   69   70 1    
   136   69  190 1    
   137   70   71 1    
   138   70   72 1    
   139   70  191 1    
   140   71  192 1    
   141   71  193 1    
   142   71  194 1    
   143   72   73 2    
   144   72   74 am   BACKBONE|DICT|INTERRES
   145   74   75 1    
   146   74  195 1    
   147   75   76 1    
   148   75   77 1    
   149   75  196 1    
   150   76  197 1    
   151   76  198 1    
   152   76  199 1    
   153   77   78 2    
   154   77   79 am   BACKBONE|DICT|INTERRES
   155   79   80 1    
   156   79  200 1    
   157   80   81 1    
   158   80   82 1    
   159   80  201 1    
   160   81  202 1    
   161   81  203 1    
   162   81  204 1    
   163   82   83 2    
   164   82   84 am   BACKBONE|DICT|INTERRES
   165   84   85 1    
   166   84  205 1    
   167   85   86 1    
   168   85   87 1    
   169   85  206 1    
   170   86  207 1    
   171   86  208 1    
   172   86  209 1    
   173   87   88 2    
   174   87   89 am   BACKBONE|DICT|INTERRES
   175   89   90 1    
   176   89  210 1    
   177   90   91 1    
   178   90   92 1    
   179   90  211 1    
   180   91  212 1    
   181   91  213 1    
   182   91  214 1    
   183   92   93 2    
   184   92   94 am   BACKBONE|DICT|INTERRES
   185   94   95 1    
   186   94  215 1    
   187   95   96 1    
   188   95   97 1    
   189   95  216 1    
   190   96  217 1    
   191   96  218 1    
   192   96  219 1    
   193   97   98 2    
   194   97   99 am   BACKBONE|DICT|INTERRES
   195   99  100 1    
   196   99  220 1    
   197  100  101 1    
   198  100  102 1    
   199  100  221 1    
   200  101  222 1    
   201  101  223 1    
   202  101  224 1    
   203  102  103 2    
   204  102  104 am   BACKBONE|DICT|INTERRES
   205  104  105 1    
   206  104  225 1    
   207  105  106 1    
   208  105  107 1    
   209  105  226 1    
   210  106  227 1    
   211  106  228 1    
   212  106  229 1    
   213  107  108 2    
   214  107  109 am   BACKBONE|DICT|INTERRES
   215  109  110 1    
   216  109  230 1    
   217  110  111 1    
   218  110  112 1    
   219  110  231 1    
   220  111  232 1    
   221  111  233 1    
   222  111  234 1    
   223  112  113 2    
   224  112  114 am   BACKBONE|DICT|INTERRES
   225  114  115 1    
   226  114  235 1    
   227  115  116 1    
   228  115  117 1    
   229  115  236 1    
   230  116  237 1    
   231  116  238 1    
   232  116  239 1    
   233  117  118 2    
   234  117  119 am   BACKBONE|DICT|INTERRES
   235  119  120 1    
   236  119  240 1    
   237  120  121 1    
   238  120  124 1    
   239  120  241 1    
   240  121  122 am   BACKBONE|DICT|INTERRES
   241  121  123 2    
   242  122  242 1    
   243  122  243 1    
   244  124  125 1    
   245  124  244 1    
   246  124  245 1    
   247  125  126 1    
   248  126  246 1    
   249  126  247 1    
@<TRIPOS>SUBSTRUCTURE
     1 UNK         1 GROUP             0       ****    0 ROOT    
