@<TRIPOS>MOLECULE
3R540
247   249    1
SMALL
USER_CHARGES


@<TRIPOS>ATOM
      1 CA          4.4242  -12.1120  -48.7490 C.3       0 UNK        -0.1800 
      2 C           3.5326  -12.8007  -47.7269 C.2       0 UNK         0.5000 
      3 O           3.9411  -12.9904  -46.5803 O.2       0 UNK        -0.5000 
      4 N           2.3035  -13.1544  -48.1232 N.am      1 UNK        -0.5000 
      5 CA          1.2916  -13.8498  -47.3153 C.3       1 UNK         0.1400 
      6 C6          0.2891  -14.6368  -48.2040 C.3       23 UNK        -0.0398 
      7 S7         -0.6469  -13.6098  -49.3963 S.3       23 UNK        -0.2404 
      8 C8          0.1339  -14.0221  -50.9896 C.3       23 UNK        -0.0205 
      9 C9         -0.1107  -15.4658  -51.4044 C.ar      23 UNK        -0.0193 
     10 C10        -1.3868  -15.8845  -51.7904 C.ar      23 UNK        -0.1150 
     11 C11        -1.6149  -17.2067  -52.1846 C.ar      23 UNK        -0.0193 
     12 C12        -0.5464  -18.1101  -52.1993 C.ar      23 UNK        -0.1150 
     13 C13         0.7377  -17.7023  -51.8201 C.ar      23 UNK        -0.0193 
     14 C14         0.9456  -16.3791  -51.4224 C.ar      23 UNK        -0.1150 
     15 C15         1.9198  -18.6636  -51.8675 C.3       23 UNK        -0.0205 
     16 S16         1.6281  -20.2452  -51.0135 S.3       23 UNK        -0.2404 
     17 C17         1.2720  -19.7272  -49.2994 C.3       23 UNK        -0.0398 
     18 CA          0.1140  -20.5534  -48.6851 C.3       11 UNK         0.1400 
     19 N           0.2377  -20.6737  -47.2303 N.am      11 UNK        -0.5000 
     20 C           0.6970  -21.7673  -46.6064 C.2       10 UNK         0.5000 
     21 O           1.1491  -22.7474  -47.1993 O.2       10 UNK        -0.5000 
     22 CA          0.6486  -21.8049  -45.0633 C.3       10 UNK         0.1400 
     23 CB          2.0626  -21.6431  -44.4836 C.3       10 UNK        -0.1800 
     24 N          -0.2394  -20.8237  -44.4363 N.am      10 UNK        -0.5000 
     25 C          -1.5587  -20.7036  -44.6415 C.2       9 UNK         0.5000 
     26 O          -2.2088  -21.4241  -45.3998 O.2       9 UNK        -0.5000 
     27 CA         -2.2634  -19.5310  -43.9370 C.3       9 UNK         0.1400 
     28 CB         -2.7516  -19.9606  -42.5468 C.3       9 UNK        -0.1800 
     29 N          -1.4468  -18.3180  -43.8171 N.am      9 UNK        -0.5000 
     30 C          -0.8568  -17.6748  -44.8370 C.2       8 UNK         0.5000 
     31 O          -0.8533  -18.0822  -45.9982 O.2       8 UNK        -0.5000 
     32 CA         -0.0970  -16.3861  -44.4968 C.3       8 UNK         0.1400 
     33 CB         -1.0376  -15.3095  -43.9336 C.3       8 UNK        -0.1800 
     34 N           0.9827  -16.6450  -43.5546 N.am      8 UNK        -0.5000 
     35 C           2.0571  -17.4051  -43.8056 C.2       7 UNK         0.5000 
     36 O           2.3277  -17.8736  -44.9111 O.2       7 UNK        -0.5000 
     37 CA          2.9623  -17.7234  -42.6032 C.3       7 UNK         0.1400 
     38 CB          4.0073  -16.6150  -42.4027 C.3       7 UNK        -0.1800 
     39 N           2.2040  -17.9157  -41.3638 N.am      7 UNK        -0.5000 
     40 C           1.3330  -18.9133  -41.1476 C.2       6 UNK         0.5000 
     41 O           1.0754  -19.7916  -41.9698 O.2       6 UNK        -0.5000 
     42 CA          0.5979  -18.9019  -39.7963 C.3       6 UNK         0.1400 
     43 CB          1.4918  -19.4711  -38.6843 C.3       6 UNK        -0.1800 
     44 N           0.1481  -17.5609  -39.4228 N.am      6 UNK        -0.5000 
     45 C          -0.8259  -16.8903  -40.0536 C.2       5 UNK         0.5000 
     46 O          -1.4686  -17.3439  -41.0009 O.2       5 UNK        -0.5000 
     47 CA         -1.0842  -15.4488  -39.5752 C.3       5 UNK         0.1400 
     48 CB         -1.9758  -15.4419  -38.3245 C.3       5 UNK        -0.1800 
     49 N           0.1494  -14.7011  -39.3038 N.am      5 UNK        -0.5000 
     50 C           1.0766  -14.4300  -40.2304 C.2       4 UNK         0.5000 
     51 O           0.9956  -14.8065  -41.4024 O.2       4 UNK        -0.5000 
     52 CA          2.3128  -13.6393  -39.7837 C.3       4 UNK         0.1400 
     53 CB          3.3013  -14.5494  -39.0299 C.3       4 UNK        -0.1800 
     54 N           2.9253  -13.1022  -40.9922 N.am      4 UNK        -0.5000 
     55 C           3.8759  -12.1690  -41.0842 C.2       3 UNK         0.5000 
     56 O           4.4216  -11.6416  -40.1143 O.2       3 UNK        -0.5000 
     57 CA          4.2690  -11.7413  -42.5132 C.3       3 UNK         0.1400 
     58 CB          5.4207  -12.6139  -43.0358 C.3       3 UNK        -0.1800 
     59 N           3.1576  -11.7992  -43.4707 N.am      3 UNK        -0.5000 
     60 C           2.0737  -11.0062  -43.4309 C.2       2 UNK         0.5000 
     61 O           1.9016  -10.1470  -42.5653 O.2       2 UNK        -0.5000 
     62 CA          1.0065  -11.1831  -44.5296 C.3       2 UNK         0.1400 
     63 CB          0.6375   -9.8411  -45.1894 C.3       2 UNK        -0.1800 
     64 N           1.4238  -12.1305  -45.5623 N.am      2 UNK        -0.5000 
     65 C           0.6150  -12.9292  -46.2657 C.2       1 UNK         0.5000 
     66 O          -0.6059  -12.9532  -46.1090 O.2       1 UNK        -0.5000 
     67 C          -1.2762  -20.0321  -49.0993 C.2       11 UNK         0.5000 
     68 O          -1.7623  -20.4150  -50.1601 O.2       11 UNK        -0.5000 
     69 N          -1.9200  -19.2009  -48.2680 N.am      12 UNK        -0.5000 
     70 CA         -3.2325  -18.6185  -48.5495 C.3       12 UNK         0.1400 
     71 CB         -3.4372  -17.3768  -47.6678 C.3       12 UNK        -0.1800 
     72 C          -4.4085  -19.5981  -48.3735 C.2       12 UNK         0.5000 
     73 O          -5.4877  -19.3157  -48.8960 O.2       12 UNK        -0.5000 
     74 N          -4.2085  -20.7013  -47.6368 N.am      13 UNK        -0.5000 
     75 CA         -5.2644  -21.6611  -47.3114 C.3       13 UNK         0.1400 
     76 CB         -5.8360  -21.3452  -45.9188 C.3       13 UNK        -0.1800 
     77 C          -4.7855  -23.1169  -47.3933 C.2       13 UNK         0.5000 
     78 O          -5.4619  -23.9351  -48.0199 O.2       13 UNK        -0.5000 
     79 N          -3.6449  -23.4259  -46.7612 N.am      14 UNK        -0.5000 
     80 CA         -3.1052  -24.7812  -46.6220 C.3       14 UNK         0.1400 
     81 CB         -1.8257  -24.7315  -45.7769 C.3       14 UNK        -0.1800 
     82 C          -2.8254  -25.4686  -47.9707 C.2       14 UNK         0.5000 
     83 O          -2.3049  -24.8271  -48.8857 O.2       14 UNK        -0.5000 
     84 N          -3.1793  -26.7596  -48.0560 N.am      15 UNK        -0.5000 
     85 CA         -3.0422  -27.6370  -49.2258 C.3       15 UNK         0.1400 
     86 CB         -1.5535  -27.9373  -49.5019 C.3       15 UNK        -0.1800 
     87 C          -3.7861  -27.0990  -50.4669 C.2       15 UNK         0.5000 
     88 O          -3.2268  -27.0920  -51.5633 O.2       15 UNK        -0.5000 
     89 N          -5.0222  -26.6174  -50.2578 N.am      16 UNK        -0.5000 
     90 CA         -5.8742  -25.9341  -51.2428 C.3       16 UNK         0.1400 
     91 CB         -6.3319  -26.9060  -52.3507 C.3       16 UNK        -0.1800 
     92 C          -5.1970  -24.6628  -51.7951 C.2       16 UNK         0.5000 
     93 O          -5.1531  -24.4487  -53.0087 O.2       16 UNK        -0.5000 
     94 N          -4.6369  -23.8736  -50.8678 N.am      17 UNK        -0.5000 
     95 CA         -3.8000  -22.6935  -51.0855 C.3       17 UNK         0.1400 
     96 CB         -4.6556  -21.5270  -51.6067 C.3       17 UNK        -0.1800 
     97 C          -2.5878  -23.0114  -51.9828 C.2       17 UNK         0.5000 
     98 O          -2.4580  -22.4536  -53.0733 O.2       17 UNK        -0.5000 
     99 N          -1.7740  -23.9783  -51.5318 N.am      18 UNK        -0.5000 
    100 CA        -0.6059  -24.5490  -52.2153 C.3       18 UNK         0.1400 
    101 CB         0.5612  -23.5435  -52.1934 C.3       18 UNK        -0.1800 
    102 C         -0.9269  -25.0700  -53.6351 C.2       18 UNK         0.5000 
    103 O         -0.1325  -24.8935  -54.5603 O.2       18 UNK        -0.5000 
    104 N         -2.1179  -25.6683  -53.7743 N.am      19 UNK        -0.5000 
    105 CA        -2.7687  -26.1579  -54.9920 C.3       19 UNK         0.1400 
    106 CB        -1.9595  -27.3140  -55.6142 C.3       19 UNK        -0.1800 
    107 C         -3.1234  -25.0692  -56.0312 C.2       19 UNK         0.5000 
    108 O         -3.5702  -25.4183  -57.1255 O.2       19 UNK        -0.5000 
    109 N         -2.9446  -23.7830  -55.6973 N.am      20 UNK        -0.5000 
    110 CA        -3.2341  -22.6535  -56.5821 C.3       20 UNK         0.1400 
    111 CB        -2.2298  -21.5243  -56.3039 C.3       20 UNK        -0.1800 
    112 C         -4.6788  -22.1434  -56.4358 C.2       20 UNK         0.5000 
    113 O         -5.1501  -21.4335  -57.3249 O.2       20 UNK        -0.5000 
    114 N         -5.3516  -22.5005  -55.3294 N.am      21 UNK        -0.5000 
    115 CA        -6.7355  -22.1560  -54.9760 C.3       21 UNK         0.1400 
    116 CB        -7.7259  -22.8121  -55.9602 C.3       21 UNK        -0.1800 
    117 C         -6.9995  -20.6430  -54.7886 C.2       21 UNK         0.5000 
    118 O         -8.1570  -20.2216  -54.8148 O.2       21 UNK        -0.5000 
    119 N         -5.9378  -19.8520  -54.5829 N.am      22 UNK        -0.5000 
    120 CA        -5.9934  -18.3968  -54.3621 C.3       22 UNK         0.1400 
    121 C         -6.4095  -17.9557  -52.9266 C.2       22 UNK         0.5000 
    122 N         -6.5617  -18.8599  -51.9684 N.am      22 UNK        -0.7600 
    123 O         -6.6023  -16.7684  -52.6803 O.2       22 UNK        -0.5000 
    124 C124       -4.6994  -17.6847  -54.8457 C.3       23 UNK        -0.0398 
    125 S125       -3.1288  -18.3847  -54.2208 S.3       23 UNK        -0.2404 
    126 C126       -3.0230  -17.6548  -52.5547 C.3       23 UNK        -0.0205 
    127 H127        3.9321  -12.0163  -49.7171 H         1 UNK         0.0600 
    128 H128        5.3424  -12.6820  -48.8890 H         1 UNK         0.0600 
    129 H129        4.6905  -11.1139  -48.4013 H         1 UNK         0.0600 
    130 H130        2.0049  -12.9142  -49.0570 H         1 UNK         0.3000 
    131 H131        1.8228  -14.6009  -46.7269 H         1 UNK         0.0600 
    132 H132        0.8275  -15.4164  -48.7424 H         1 UNK         0.0800 
    133 H133       -0.4324  -15.1722  -47.5848 H         1 UNK         0.0800 
    134 H134       -0.2705  -13.3615  -51.7578 H         1 UNK         0.0800 
    135 H135        1.2020  -13.8074  -50.9380 H         1 UNK         0.0800 
    136 H136       -2.2040  -15.1770  -51.7716 H         1 UNK         0.1150 
    137 H137       -0.7187  -19.1348  -52.4996 H         1 UNK         0.1150 
    138 H138        1.9360  -16.0552  -51.1346 H         1 UNK         0.1150 
    139 H139        2.1534  -18.8716  -52.9122 H         1 UNK         0.0800 
    140 H140        2.8121  -18.2034  -51.4403 H         1 UNK         0.0800 
    141 H141        1.0699  -18.6564  -49.2420 H         1 UNK         0.0800 
    142 H142        2.1890  -19.8863  -48.7304 H         1 UNK         0.0800 
    143 H143        0.1597  -21.5592  -49.1096 H         1 UNK         0.0600 
    144 H144       -0.0930  -19.8955  -46.6718 H         1 UNK         0.3000 
    145 H145        0.2831  -22.7934  -44.7812 H         1 UNK         0.0600 
    146 H146        2.0716  -21.8263  -43.4093 H         1 UNK         0.0600 
    147 H147        2.7587  -22.3518  -44.9342 H         1 UNK         0.0600 
    148 H148        2.4546  -20.6408  -44.6581 H         1 UNK         0.0600 
    149 H149        0.1942  -20.2061  -43.7572 H         1 UNK         0.3000 
    150 H150       -3.1371  -19.2730  -44.5387 H         1 UNK         0.0600 
    151 H151       -3.3724  -20.8555  -42.6074 H         1 UNK         0.0600 
    152 H152       -3.3531  -19.1794  -42.0818 H         1 UNK         0.0600 
    153 H153       -1.9168  -20.1813  -41.8803 H         1 UNK         0.0600 
    154 H154       -1.3709  -17.9253  -42.8827 H         1 UNK         0.3000 
    155 H155        0.3452  -16.0062  -45.4176 H         1 UNK         0.0600 
    156 H156       -1.8319  -15.0773  -44.6441 H         1 UNK         0.0600 
    157 H157       -0.4992  -14.3833  -43.7333 H         1 UNK         0.0600 
    158 H158       -1.5106  -15.6194  -43.0028 H         1 UNK         0.0600 
    159 H159        0.8845  -16.2300  -42.6322 H         1 UNK         0.3000 
    160 H160        3.4884  -18.6552  -42.8216 H         1 UNK         0.0600 
    161 H161        3.5403  -15.6548  -42.1857 H         1 UNK         0.0600 
    162 H162        4.6145  -16.4863  -43.2996 H         1 UNK         0.0600 
    163 H163        4.6857  -16.8533  -41.5834 H         1 UNK         0.0600 
    164 H164        2.3255  -17.2201  -40.6447 H         1 UNK         0.3000 
    165 H165       -0.2805  -19.5443  -39.8889 H         1 UNK         0.0600 
    166 H166        0.9512  -19.5372  -37.7400 H         1 UNK         0.0600 
    167 H167        1.8312  -20.4772  -38.9343 H         1 UNK         0.0600 
    168 H168        2.3780  -18.8565  -38.5215 H         1 UNK         0.0600 
    169 H169        0.6262  -17.1116  -38.6559 H         1 UNK         0.3000 
    170 H170       -1.6180  -14.9303  -40.3747 H         1 UNK         0.0600 
    171 H171       -2.9068  -15.9806  -38.5063 H         1 UNK         0.0600 
    172 H172       -1.4834  -15.9148  -37.4740 H         1 UNK         0.0600 
    173 H173       -2.2419  -14.4250  -38.0358 H         1 UNK         0.0600 
    174 H174        0.2797  -14.3669  -38.3597 H         1 UNK         0.3000 
    175 H175        1.9951  -12.8136  -39.1442 H         1 UNK         0.0600 
    176 H176        3.6499  -15.3718  -39.6546 H         1 UNK         0.0600 
    177 H177        4.1768  -13.9944  -38.6936 H         1 UNK         0.0600 
    178 H178        2.8386  -14.9832  -38.1428 H         1 UNK         0.0600 
    179 H179        2.5033  -13.4615  -41.8400 H         1 UNK         0.3000 
    180 H180        4.6185  -10.7079  -42.4639 H         1 UNK         0.0600 
    181 H181        5.1243  -13.6594  -43.1283 H         1 UNK         0.0600 
    182 H182        6.2783  -12.5737  -42.3629 H         1 UNK         0.0600 
    183 H183        5.7599  -12.2745  -44.0149 H         1 UNK         0.0600 
    184 H184        3.2372  -12.4904  -44.2021 H         1 UNK         0.3000 
    185 H185        0.1216  -11.5755  -44.0242 H         1 UNK         0.0600 
    186 H186       -0.1634   -9.9663  -45.9183 H         1 UNK         0.0600 
    187 H187        0.2886   -9.1187  -44.4506 H         1 UNK         0.0600 
    188 H188        1.4926   -9.4014  -45.7037 H         1 UNK         0.0600 
    189 H189        2.4151  -12.1686  -45.7801 H         1 UNK         0.3000 
    190 H190       -1.4681  -18.8688  -47.4180 H         1 UNK         0.3000 
    191 H191       -3.2396  -18.2843  -49.5868 H         1 UNK         0.0600 
    192 H192       -3.4837  -17.6374  -46.6101 H         1 UNK         0.0600 
    193 H193       -2.6298  -16.6569  -47.8045 H         1 UNK         0.0600 
    194 H194       -4.3689  -16.8690  -47.9199 H         1 UNK         0.0600 
    195 H195       -3.2950  -20.8695  -47.2344 H         1 UNK         0.3000 
    196 H196       -6.0789  -21.5739  -48.0339 H         1 UNK         0.0600 
    197 H197       -6.6138  -22.0584  -45.6431 H         1 UNK         0.0600 
    198 H198       -6.2834  -20.3514  -45.8947 H         1 UNK         0.0600 
    199 H199       -5.0655  -21.3827  -45.1478 H         1 UNK         0.0600 
    200 H200       -3.1379  -22.6953  -46.2660 H         1 UNK         0.3000 
    201 H201       -3.8498  -25.3664  -46.0788 H         1 UNK         0.0600 
    202 H202       -2.0029  -24.2578  -44.8111 H         1 UNK         0.0600 
    203 H203       -1.0404  -24.1758  -46.2878 H         1 UNK         0.0600 
    204 H204       -1.4437  -25.7347  -45.5841 H         1 UNK         0.0600 
    205 H205       -3.6039  -27.1902  -47.2462 H         1 UNK         0.3000 
    206 H206       -3.5258  -28.5801  -48.9675 H         1 UNK         0.0600 
    207 H207       -1.0640  -28.3461  -48.6181 H         1 UNK         0.0600 
    208 H208       -1.4436  -28.6713  -50.3011 H         1 UNK         0.0600 
    209 H209       -1.0074  -27.0429  -49.8026 H         1 UNK         0.0600 
    210 H210       -5.3800  -26.6364  -49.3128 H         1 UNK         0.3000 
    211 H211       -6.7640  -25.5997  -50.7076 H         1 UNK         0.0600 
    212 H212       -5.4977  -27.2538  -52.9602 H         1 UNK         0.0600 
    213 H213       -7.0447  -26.4239  -53.0206 H         1 UNK         0.0600 
    214 H214       -6.8250  -27.7810  -51.9275 H         1 UNK         0.0600 
    215 H215       -4.7429  -24.1495  -49.8973 H         1 UNK         0.3000 
    216 H216       -3.4074  -22.4127  -50.1082 H         1 UNK         0.0600 
    217 H217       -4.0565  -20.6221  -51.7026 H         1 UNK         0.0600 
    218 H218       -5.4736  -21.3113  -50.9202 H         1 UNK         0.0600 
    219 H219       -5.0787  -21.7458  -52.5840 H         1 UNK         0.0600 
    220 H220       -1.9834  -24.3762  -50.6169 H         1 UNK         0.3000 
    221 H221       -0.3054  -25.4203  -51.6324 H         1 UNK         0.0600 
    222 H222        0.3327  -22.6487  -52.7737 H         1 UNK         0.0600 
    223 H223        0.7887  -23.2320  -51.1740 H         1 UNK         0.0600 
    224 H224        1.4693  -23.9825  -52.6077 H         1 UNK         0.0600 
    225 H225       -2.6594  -25.8174  -52.9272 H         1 UNK         0.3000 
    226 H226       -3.7236  -26.5684  -54.6615 H         1 UNK         0.0600 
    227 H227       -1.7431  -28.0852  -54.8749 H         1 UNK         0.0600 
    228 H228       -2.5138  -27.7902  -56.4236 H         1 UNK         0.0600 
    229 H229       -1.0118  -26.9689  -56.0282 H         1 UNK         0.0600 
    230 H230       -2.6088  -23.5503  -54.7673 H         1 UNK         0.3000 
    231 H231       -3.1008  -22.9618  -57.6212 H         1 UNK         0.0600 
    232 H232       -2.3339  -21.1288  -55.2942 H         1 UNK         0.0600 
    233 H233       -2.3758  -20.6925  -56.9942 H         1 UNK         0.0600 
    234 H234       -1.2031  -21.8707  -56.4228 H         1 UNK         0.0600 
    235 H235       -4.8818  -23.1018  -54.6602 H         1 UNK         0.3000 
    236 H236       -6.9128  -22.6056  -53.9986 H         1 UNK         0.0600 
    237 H237       -7.5332  -23.8806  -56.0576 H         1 UNK         0.0600 
    238 H238       -8.7546  -22.7010  -55.6155 H         1 UNK         0.0600 
    239 H239       -7.6652  -22.3674  -56.9538 H         1 UNK         0.0600 
    240 H240       -5.0163  -20.2648  -54.5723 H         1 UNK         0.3000 
    241 H241       -6.7947  -18.0148  -54.9978 H         1 UNK         0.0600 
    242 H242       -6.7990  -18.5657  -51.0331 H         1 UNK         0.3800 
    243 H243       -6.4100  -19.8347  -52.1604 H         1 UNK         0.3800 
    244 H244       -4.6562  -17.7543  -55.9334 H         1 UNK         0.0800 
    245 H245       -4.7313  -16.6143  -54.6351 H         1 UNK         0.0800 
    246 H246       -3.3609  -18.3985  -51.8350 H         1 UNK         0.0800 
    247 H247       -3.7130  -16.8142  -52.4734 H         1 UNK         0.0800 
@<TRIPOS>BOND
     1    1    2 1    
     2    1  127 1    
     3    1  128 1    
     4    1  129 1    
     5    2    3 2    
     6    2    4 am   BACKBONE|DICT|INTERRES
     7    4    5 1    
     8    4  130 1    
     9    5    6 1    
    10    5   65 1    
    11    5  131 1    
    12    6    7 1    
    13    6  132 1    
    14    6  133 1    
    15    7    8 1    
    16    8    9 1    
    17    8  134 1    
    18    8  135 1    
    19    9   10 ar   
    20    9   14 ar   
    21   10   11 ar   
    22   10  136 1    
    23   11   12 ar   
    24   11  126 1    
    25   12   13 ar   
    26   12  137 1    
    27   13   14 ar   
    28   13   15 1    
    29   14  138 1    
    30   15   16 1    
    31   15  139 1    
    32   15  140 1    
    33   16   17 1    
    34   17   18 1    
    35   17  141 1    
    36   17  142 1    
    37   18   19 1    
    38   18   67 1    
    39   18  143 1    
    40   19   20 am   BACKBONE|DICT|INTERRES
    41   19  144 1    
    42   20   21 2    
    43   20   22 1    
    44   22   23 1    
    45   22   24 1    
    46   22  145 1    
    47   23  146 1    
    48   23  147 1    
    49   23  148 1    
    50   24   25 am   BACKBONE|DICT|INTERRES
    51   24  149 1    
    52   25   26 2    
    53   25   27 1    
    54   27   28 1    
    55   27   29 1    
    56   27  150 1    
    57   28  151 1    
    58   28  152 1    
    59   28  153 1    
    60   29   30 am   BACKBONE|DICT|INTERRES
    61   29  154 1    
    62   30   31 2    
    63   30   32 1    
    64   32   33 1    
    65   32   34 1    
    66   32  155 1    
    67   33  156 1    
    68   33  157 1    
    69   33  158 1    
    70   34   35 am   BACKBONE|DICT|INTERRES
    71   34  159 1    
    72   35   36 2    
    73   35   37 1    
    74   37   38 1    
    75   37   39 1    
    76   37  160 1    
    77   38  161 1    
    78   38  162 1    
    79   38  163 1    
    80   39   40 am   BACKBONE|DICT|INTERRES
    81   39  164 1    
    82   40   41 2    
    83   40   42 1    
    84   42   43 1    
    85   42   44 1    
    86   42  165 1    
    87   43  166 1    
    88   43  167 1    
    89   43  168 1    
    90   44   45 am   BACKBONE|DICT|INTERRES
    91   44  169 1    
    92   45   46 2    
    93   45   47 1    
    94   47   48 1    
    95   47   49 1    
    96   47  170 1    
    97   48  171 1    
    98   48  172 1    
    99   48  173 1    
   100   49   50 am   BACKBONE|DICT|INTERRES
   101   49  174 1    
   102   50   51 2    
   103   50   52 1    
   104   52   53 1    
   105   52   54 1    
   106   52  175 1    
   107   53  176 1    
   108   53  177 1    
   109   53  178 1    
   110   54   55 am   BACKBONE|DICT|INTERRES
   111   54  179 1    
   112   55   56 2    
   113   55   57 1    
   114   57   58 1    
   115   57   59 1    
   116   57  180 1    
   117   58  181 1    
   118   58  182 1    
   119   58  183 1    
   120   59   60 am   BACKBONE|DICT|INTERRES
   121   59  184 1    
   122   60   61 2    
   123   60   62 1    
   124   62   63 1    
   125   62   64 1    
   126   62  185 1    
   127   63  186 1    
   128   63  187 1    
   129   63  188 1    
   130   64   65 am   BACKBONE|DICT|INTERRES
   131   64  189 1    
   132   65   66 2    
   133   67   68 2    
   134   67   69 am   BACKBONE|DICT|INTERRES
   135   69   70 1    
   136   69  190 1    
   137   70   71 1    
   138   70   72 1    
   139   70  191 1    
   140   71  192 1    
   141   71  193 1    
   142   71  194 1    
   143   72   73 2    
   144   72   74 am   BACKBONE|DICT|INTERRES
   145   74   75 1    
   146   74  195 1    
   147   75   76 1    
   148   75   77 1    
   149   75  196 1    
   150   76  197 1    
   151   76  198 1    
   152   76  199 1    
   153   77   78 2    
   154   77   79 am   BACKBONE|DICT|INTERRES
   155   79   80 1    
   156   79  200 1    
   157   80   81 1    
   158   80   82 1    
   159   80  201 1    
   160   81  202 1    
   161   81  203 1    
   162   81  204 1    
   163   82   83 2    
   164   82   84 am   BACKBONE|DICT|INTERRES
   165   84   85 1    
   166   84  205 1    
   167   85   86 1    
   168   85   87 1    
   169   85  206 1    
   170   86  207 1    
   171   86  208 1    
   172   86  209 1    
   173   87   88 2    
   174   87   89 am   BACKBONE|DICT|INTERRES
   175   89   90 1    
   176   89  210 1    
   177   90   91 1    
   178   90   92 1    
   179   90  211 1    
   180   91  212 1    
   181   91  213 1    
   182   91  214 1    
   183   92   93 2    
   184   92   94 am   BACKBONE|DICT|INTERRES
   185   94   95 1    
   186   94  215 1    
   187   95   96 1    
   188   95   97 1    
   189   95  216 1    
   190   96  217 1    
   191   96  218 1    
   192   96  219 1    
   193   97   98 2    
   194   97   99 am   BACKBONE|DICT|INTERRES
   195   99  100 1    
   196   99  220 1    
   197  100  101 1    
   198  100  102 1    
   199  100  221 1    
   200  101  222 1    
   201  101  223 1    
   202  101  224 1    
   203  102  103 2    
   204  102  104 am   BACKBONE|DICT|INTERRES
   205  104  105 1    
   206  104  225 1    
   207  105  106 1    
   208  105  107 1    
   209  105  226 1    
   210  106  227 1    
   211  106  228 1    
   212  106  229 1    
   213  107  108 2    
   214  107  109 am   BACKBONE|DICT|INTERRES
   215  109  110 1    
   216  109  230 1    
   217  110  111 1    
   218  110  112 1    
   219  110  231 1    
   220  111  232 1    
   221  111  233 1    
   222  111  234 1    
   223  112  113 2    
   224  112  114 am   BACKBONE|DICT|INTERRES
   225  114  115 1    
   226  114  235 1    
   227  115  116 1    
   228  115  117 1    
   229  115  236 1    
   230  116  237 1    
   231  116  238 1    
   232  116  239 1    
   233  117  118 2    
   234  117  119 am   BACKBONE|DICT|INTERRES
   235  119  120 1    
   236  119  240 1    
   237  120  121 1    
   238  120  124 1    
   239  120  241 1    
   240  121  122 am   BACKBONE|DICT|INTERRES
   241  121  123 2    
   242  122  242 1    
   243  122  243 1    
   244  124  125 1    
   245  124  244 1    
   246  124  245 1    
   247  125  126 1    
   248  126  246 1    
   249  126  247 1    
@<TRIPOS>SUBSTRUCTURE
     1 UNK         1 GROUP             0       ****    0 ROOT    
