@<TRIPOS>MOLECULE
3R540
247   249    1
SMALL
USER_CHARGES


@<TRIPOS>ATOM
      1 CA          1.3508   -9.0779  -49.5411 C.3       0 UNK        -0.1800 
      2 C           1.0122  -10.2617  -48.6460 C.2       0 UNK         0.5000 
      3 O           0.4991  -10.0682  -47.5440 O.2       0 UNK        -0.5000 
      4 N           1.2984  -11.4839  -49.1150 N.am      1 UNK        -0.5000 
      5 CA          1.0227  -12.7411  -48.4060 C.3       1 UNK         0.1400 
      6 C6          1.8350  -13.9142  -49.0122 C.3       23 UNK        -0.0398 
      7 S7          2.2643  -15.1986  -47.7893 S.3       23 UNK        -0.2404 
      8 C8          3.1383  -16.3984  -48.8517 C.3       23 UNK        -0.0205 
      9 C9          2.2937  -17.6083  -49.2434 C.ar      23 UNK        -0.0193 
     10 C10         0.9514  -17.4746  -49.6211 C.ar      23 UNK        -0.1150 
     11 C11         0.1937  -18.5964  -49.9651 C.ar      23 UNK        -0.0193 
     12 C12         0.7927  -19.8556  -49.9624 C.ar      23 UNK        -0.1150 
     13 C13         2.1290  -20.0093  -49.5893 C.ar      23 UNK        -0.0193 
     14 C14         2.8753  -18.8817  -49.2363 C.ar      23 UNK        -0.1150 
     15 C15         2.7506  -21.3991  -49.5513 C.3       23 UNK        -0.0205 
     16 S16         2.8024  -22.0858  -47.8624 S.3       23 UNK        -0.2404 
     17 C17         1.0574  -21.9349  -47.3473 C.3       23 UNK        -0.0398 
     18 CA          0.5559  -23.0814  -46.4417 C.3       11 UNK         0.1400 
     19 N           1.4144  -23.3204  -45.2801 N.am      11 UNK        -0.5000 
     20 C           1.4365  -24.4552  -44.5681 C.2       10 UNK         0.5000 
     21 O           0.7618  -25.4472  -44.8439 O.2       10 UNK        -0.5000 
     22 CA          2.3486  -24.4781  -43.3259 C.3       10 UNK         0.1400 
     23 CB          3.7646  -24.9358  -43.7066 C.3       10 UNK        -0.1800 
     24 N           2.4269  -23.1767  -42.6603 N.am      10 UNK        -0.5000 
     25 C           1.4143  -22.6035  -41.9948 C.2       9 UNK         0.5000 
     26 O           0.3312  -23.1537  -41.7961 O.2       9 UNK        -0.5000 
     27 CA          1.6348  -21.1595  -41.4991 C.3       9 UNK         0.1400 
     28 CB          2.1502  -21.1644  -40.0526 C.3       9 UNK        -0.1800 
     29 N           2.5428  -20.3631  -42.3329 N.am      9 UNK        -0.5000 
     30 C           2.3723  -20.0991  -43.6374 C.2       8 UNK         0.5000 
     31 O           1.4360  -20.5519  -44.2970 O.2       8 UNK        -0.5000 
     32 CA          3.4256  -19.1970  -44.3079 C.3       8 UNK         0.1400 
     33 CB          2.9052  -18.5533  -45.6059 C.3       8 UNK        -0.1800 
     34 N           3.8342  -18.1368  -43.3904 N.am      8 UNK        -0.5000 
     35 C           5.0461  -17.9853  -42.8408 C.2       7 UNK         0.5000 
     36 O           5.9878  -18.7503  -43.0497 O.2       7 UNK        -0.5000 
     37 CA          5.2507  -16.7806  -41.8959 C.3       7 UNK         0.1400 
     38 CB          6.0866  -15.6940  -42.5904 C.3       7 UNK        -0.1800 
     39 N           3.9958  -16.1802  -41.4386 N.am      7 UNK        -0.5000 
     40 C           3.1637  -16.7215  -40.5378 C.2       6 UNK         0.5000 
     41 O           3.4149  -17.7507  -39.9117 O.2       6 UNK        -0.5000 
     42 CA          1.8037  -16.0168  -40.3400 C.3       6 UNK         0.1400 
     43 CB          1.8624  -15.0616  -39.1387 C.3       6 UNK        -0.1800 
     44 N           1.3453  -15.2754  -41.5234 N.am      6 UNK        -0.5000 
     45 C           1.0827  -15.8324  -42.7138 C.2       5 UNK         0.5000 
     46 O           1.1800  -17.0423  -42.9255 O.2       5 UNK        -0.5000 
     47 CA          0.7381  -14.8695  -43.8654 C.3       5 UNK         0.1400 
     48 CB          1.9741  -14.0442  -44.2615 C.3       5 UNK        -0.1800 
     49 N           0.2726  -15.5908  -45.0486 N.am      5 UNK        -0.5000 
     50 C          -0.9436  -16.1276  -45.1877 C.2       4 UNK         0.5000 
     51 O          -1.8493  -16.0017  -44.3593 O.2       4 UNK        -0.5000 
     52 CA         -1.1889  -16.9374  -46.4690 C.3       4 UNK         0.1400 
     53 CB         -1.2865  -18.4397  -46.1234 C.3       4 UNK        -0.1800 
     54 N          -2.3676  -16.3652  -47.1318 N.am      4 UNK        -0.5000 
     55 C          -3.3967  -16.9460  -47.7661 C.2       3 UNK         0.5000 
     56 O          -3.5597  -18.1573  -47.8777 O.2       3 UNK        -0.5000 
     57 CA         -4.4483  -16.0155  -48.4033 C.3       3 UNK         0.1400 
     58 CB         -5.7336  -16.0002  -47.5615 C.3       3 UNK        -0.1800 
     59 N          -3.9860  -14.6390  -48.5910 N.am      3 UNK        -0.5000 
     60 C          -3.1053  -14.2499  -49.5224 C.2       2 UNK         0.5000 
     61 O          -2.6081  -15.0120  -50.3517 O.2       2 UNK        -0.5000 
     62 CA         -2.6892  -12.7631  -49.5314 C.3       2 UNK         0.1400 
     63 CB         -3.4426  -11.8817  -48.5088 C.3       2 UNK        -0.1800 
     64 N          -1.2412  -12.6065  -49.3646 N.am      2 UNK        -0.5000 
     65 C          -0.4892  -13.0610  -48.3484 C.2       1 UNK         0.5000 
     66 O          -0.9429  -13.6840  -47.3884 O.2       1 UNK        -0.5000 
     67 C          -0.8843  -22.7740  -45.9958 C.2       11 UNK         0.5000 
     68 O          -1.8289  -23.2190  -46.6463 O.2       11 UNK        -0.5000 
     69 N          -1.0263  -22.0385  -44.8824 N.am      12 UNK        -0.5000 
     70 CA         -2.2892  -21.5877  -44.2868 C.3       12 UNK         0.1400 
     71 CB         -1.9805  -20.6719  -43.0928 C.3       12 UNK        -0.1800 
     72 C          -3.2581  -22.7146  -43.8705 C.2       12 UNK         0.5000 
     73 O          -4.4368  -22.4393  -43.6476 O.2       12 UNK        -0.5000 
     74 N          -2.7684  -23.9605  -43.8051 N.am      13 UNK        -0.5000 
     75 CA         -3.5799  -25.1708  -43.6694 C.3       13 UNK         0.1400 
     76 CB         -2.6493  -26.3700  -43.4345 C.3       13 UNK        -0.1800 
     77 C          -4.4916  -25.4210  -44.8910 C.2       13 UNK         0.5000 
     78 O          -5.5913  -25.9494  -44.7234 O.2       13 UNK        -0.5000 
     79 N          -4.0281  -25.0224  -46.0839 N.am      14 UNK        -0.5000 
     80 CA         -4.7894  -25.0352  -47.3337 C.3       14 UNK         0.1400 
     81 CB         -3.9097  -25.6233  -48.4477 C.3       14 UNK        -0.1800 
     82 C          -5.2660  -23.6191  -47.7060 C.2       14 UNK         0.5000 
     83 O          -6.3586  -23.4744  -48.2556 O.2       14 UNK        -0.5000 
     84 N          -4.4476  -22.6038  -47.3903 N.am      15 UNK        -0.5000 
     85 CA         -4.6707  -21.1702  -47.5889 C.3       15 UNK         0.1400 
     86 CB         -5.7327  -20.6456  -46.5977 C.3       15 UNK        -0.1800 
     87 C          -4.9726  -20.8406  -49.0627 C.2       15 UNK         0.5000 
     88 O          -4.0840  -20.9746  -49.9020 O.2       15 UNK        -0.5000 
     89 N          -6.2247  -20.4793  -49.3723 N.am      16 UNK        -0.5000 
     90 CA         -6.7111  -20.2022  -50.7256 C.3       16 UNK         0.1400 
     91 CB         -8.1628  -19.7088  -50.6413 C.3       16 UNK        -0.1800 
     92 C          -6.5949  -21.3933  -51.7013 C.2       16 UNK         0.5000 
     93 O          -6.5754  -21.1750  -52.9118 O.2       16 UNK        -0.5000 
     94 N          -6.5088  -22.6207  -51.1694 N.am      17 UNK        -0.5000 
     95 CA         -6.3017  -23.8457  -51.9396 C.3       17 UNK         0.1400 
     96 CB         -7.0674  -24.9923  -51.2583 C.3       17 UNK        -0.1800 
     97 C          -4.8122  -24.2094  -52.1176 C.2       17 UNK         0.5000 
     98 O          -4.5291  -25.1836  -52.8163 O.2       17 UNK        -0.5000 
     99 N          -3.8831  -23.4664  -51.4908 N.am      18 UNK        -0.5000 
    100 CA        -2.4410  -23.7374  -51.5553 C.3       18 UNK         0.1400 
    101 CB        -1.7029  -22.9082  -50.4926 C.3       18 UNK        -0.1800 
    102 C         -1.8383  -23.4737  -52.9487 C.2       18 UNK         0.5000 
    103 O         -0.9393  -24.2026  -53.3700 O.2       18 UNK        -0.5000 
    104 N         -2.3577  -22.4547  -53.6402 N.am      19 UNK        -0.5000 
    105 CA        -2.0089  -22.0641  -55.0006 C.3       19 UNK         0.1400 
    106 CB        -0.6496  -21.3397  -55.0230 C.3       19 UNK        -0.1800 
    107 C         -3.1202  -21.1477  -55.5256 C.2       19 UNK         0.5000 
    108 O         -3.8116  -20.5133  -54.7266 O.2       19 UNK        -0.5000 
    109 N         -3.2543  -21.0552  -56.8551 N.am      20 UNK        -0.5000 
    110 CA        -4.2598  -20.2253  -57.5321 C.3       20 UNK         0.1400 
    111 CB        -4.2015  -20.4940  -59.0435 C.3       20 UNK        -0.1800 
    112 C         -4.1163  -18.7163  -57.2457 C.2       20 UNK         0.5000 
    113 O         -5.1180  -18.0000  -57.2210 O.2       20 UNK        -0.5000 
    114 N         -2.8774  -18.2718  -56.9932 N.am      21 UNK        -0.5000 
    115 CA        -2.5332  -16.9041  -56.6006 C.3       21 UNK         0.1400 
    116 CB        -1.0078  -16.7387  -56.6854 C.3       21 UNK        -0.1800 
    117 C         -3.0377  -16.5135  -55.1954 C.2       21 UNK         0.5000 
    118 O         -3.1507  -15.3206  -54.9109 O.2       21 UNK        -0.5000 
    119 N         -3.3285  -17.5089  -54.3479 N.am      22 UNK        -0.5000 
    120 CA        -3.8330  -17.3283  -52.9778 C.3       22 UNK         0.1400 
    121 C         -5.3626  -17.0471  -52.8997 C.2       22 UNK         0.5000 
    122 N         -6.1149  -17.1160  -53.9924 N.am      22 UNK        -0.7600 
    123 O         -5.8785  -16.7499  -51.8266 O.2       22 UNK        -0.5000 
    124 C124       -3.4395  -18.5167  -52.0641 C.3       23 UNK        -0.0398 
    125 S125       -1.6389  -18.8192  -52.0340 S.3       23 UNK        -0.2404 
    126 C126       -1.2830  -18.4627  -50.2911 C.3       23 UNK        -0.0205 
    127 H127        2.0505   -8.4129  -49.0349 H         1 UNK         0.0600 
    128 H128        0.4480   -8.5125  -49.7723 H         1 UNK         0.0600 
    129 H129        1.8032   -9.3955  -50.4809 H         1 UNK         0.0600 
    130 H130        1.7285  -11.5723  -50.0250 H         1 UNK         0.3000 
    131 H131        1.3552  -12.5945  -47.3762 H         1 UNK         0.0600 
    132 H132        1.3221  -14.3596  -49.8662 H         1 UNK         0.0800 
    133 H133        2.7837  -13.5415  -49.4016 H         1 UNK         0.0800 
    134 H134        3.5007  -15.9111  -49.7575 H         1 UNK         0.0800 
    135 H135        4.0266  -16.7264  -48.3100 H         1 UNK         0.0800 
    136 H136        0.4827  -16.5018  -49.6276 H         1 UNK         0.1150 
    137 H137        0.2072  -20.7198  -50.2366 H         1 UNK         0.1150 
    138 H138        3.9089  -19.0017  -48.9432 H         1 UNK         0.1150 
    139 H139        2.1983  -22.0822  -50.1987 H         1 UNK         0.0800 
    140 H140        3.7656  -21.3570  -49.9488 H         1 UNK         0.0800 
    141 H141        0.9377  -20.9634  -46.8645 H         1 UNK         0.0800 
    142 H142        0.4305  -21.9095  -48.2383 H         1 UNK         0.0800 
    143 H143        0.5302  -23.9937  -47.0419 H         1 UNK         0.0600 
    144 H144        1.9478  -22.5241  -44.9580 H         1 UNK         0.3000 
    145 H145        1.9330  -25.2006  -42.6201 H         1 UNK         0.0600 
    146 H146        4.4023  -25.0196  -42.8264 H         1 UNK         0.0600 
    147 H147        3.7419  -25.9160  -44.1848 H         1 UNK         0.0600 
    148 H148        4.2395  -24.2424  -44.4020 H         1 UNK         0.0600 
    149 H149        3.2864  -22.6584  -42.7660 H         1 UNK         0.3000 
    150 H150        0.6653  -20.6591  -41.5108 H         1 UNK         0.0600 
    151 H151        1.4966  -21.7511  -39.4056 H         1 UNK         0.0600 
    152 H152        2.1850  -20.1552  -39.6432 H         1 UNK         0.0600 
    153 H153        3.1514  -21.5911  -39.9832 H         1 UNK         0.0600 
    154 H154        3.3254  -19.9343  -41.8604 H         1 UNK         0.3000 
    155 H155        4.2735  -19.8350  -44.5634 H         1 UNK         0.0600 
    156 H156        3.6565  -17.9022  -46.0521 H         1 UNK         0.0600 
    157 H157        2.0091  -17.9581  -45.4306 H         1 UNK         0.0600 
    158 H158        2.6549  -19.3117  -46.3472 H         1 UNK         0.0600 
    159 H159        3.0819  -17.5160  -43.1091 H         1 UNK         0.3000 
    160 H160        5.8042  -17.1359  -41.0242 H         1 UNK         0.0600 
    161 H161        5.5783  -15.2963  -43.4699 H         1 UNK         0.0600 
    162 H162        7.0487  -16.0898  -42.9184 H         1 UNK         0.0600 
    163 H163        6.2925  -14.8627  -41.9159 H         1 UNK         0.0600 
    164 H164        3.7131  -15.3256  -41.8942 H         1 UNK         0.3000 
    165 H165        1.0648  -16.7920  -40.1261 H         1 UNK         0.0600 
    166 H166        2.5687  -14.2474  -39.3057 H         1 UNK         0.0600 
    167 H167        0.8853  -14.6234  -38.9344 H         1 UNK         0.0600 
    168 H168        2.1756  -15.5880  -38.2360 H         1 UNK         0.0600 
    169 H169        1.2530  -14.2752  -41.4175 H         1 UNK         0.3000 
    170 H170       -0.0491  -14.1921  -43.5284 H         1 UNK         0.0600 
    171 H171        2.3367  -13.4415  -43.4283 H         1 UNK         0.0600 
    172 H172        2.7964  -14.6819  -44.5898 H         1 UNK         0.0600 
    173 H173        1.7410  -13.3562  -45.0741 H         1 UNK         0.0600 
    174 H174        0.9546  -15.7283  -45.7813 H         1 UNK         0.3000 
    175 H175       -0.3446  -16.7951  -47.1439 H         1 UNK         0.0600 
    176 H176       -1.2911  -19.0584  -47.0207 H         1 UNK         0.0600 
    177 H177       -0.4300  -18.7600  -45.5285 H         1 UNK         0.0600 
    178 H178       -2.1850  -18.6612  -45.5473 H         1 UNK         0.0600 
    179 H179       -2.3558  -15.3515  -47.1255 H         1 UNK         0.3000 
    180 H180       -4.6920  -16.4304  -49.3834 H         1 UNK         0.0600 
    181 H181       -6.5120  -15.4059  -48.0405 H         1 UNK         0.0600 
    182 H182       -6.1294  -17.0090  -47.4361 H         1 UNK         0.0600 
    183 H183       -5.5581  -15.5898  -46.5663 H         1 UNK         0.0600 
    184 H184       -4.3383  -13.9505  -47.9422 H         1 UNK         0.3000 
    185 H185       -2.9289  -12.3889  -50.5277 H         1 UNK         0.0600 
    186 H186       -3.1385  -10.8388  -48.6004 H         1 UNK         0.0600 
    187 H187       -4.5200  -11.9136  -48.6762 H         1 UNK         0.0600 
    188 H188       -3.2522  -12.1868  -47.4793 H         1 UNK         0.0600 
    189 H189       -0.7691  -12.1181  -50.1116 H         1 UNK         0.3000 
    190 H190       -0.1802  -21.6750  -44.4542 H         1 UNK         0.3000 
    191 H191       -2.8027  -20.9936  -45.0440 H         1 UNK         0.0600 
    192 H192       -2.8901  -20.1993  -42.7203 H         1 UNK         0.0600 
    193 H193       -1.2891  -19.8741  -43.3658 H         1 UNK         0.0600 
    194 H194       -1.5425  -21.2301  -42.2660 H         1 UNK         0.0600 
    195 H195       -1.7807  -24.0911  -43.9702 H         1 UNK         0.3000 
    196 H196       -4.2200  -25.0539  -42.7925 H         1 UNK         0.0600 
    197 H197       -3.2217  -27.2892  -43.3039 H         1 UNK         0.0600 
    198 H198       -2.0466  -26.2316  -42.5366 H         1 UNK         0.0600 
    199 H199       -1.9691  -26.5218  -44.2739 H         1 UNK         0.0600 
    200 H200       -3.1211  -24.5691  -46.1234 H         1 UNK         0.3000 
    201 H201       -5.6752  -25.6659  -47.2353 H         1 UNK         0.0600 
    202 H202       -3.6360  -26.6547  -48.2252 H         1 UNK         0.0600 
    203 H203       -2.9877  -25.0567  -48.5767 H         1 UNK         0.0600 
    204 H204       -4.4324  -25.6267  -49.4039 H         1 UNK         0.0600 
    205 H205       -3.5226  -22.8424  -47.0407 H         1 UNK         0.3000 
    206 H206       -3.7235  -20.6843  -47.3540 H         1 UNK         0.0600 
    207 H207       -5.4105  -20.7976  -45.5684 H         1 UNK         0.0600 
    208 H208       -5.8907  -19.5738  -46.7242 H         1 UNK         0.0600 
    209 H209       -6.6946  -21.1452  -46.7163 H         1 UNK         0.0600 
    210 H210       -6.9060  -20.4339  -48.6291 H         1 UNK         0.3000 
    211 H211       -6.1022  -19.3945  -51.1311 H         1 UNK         0.0600 
    212 H212       -8.8203  -20.4654  -50.2112 H         1 UNK         0.0600 
    213 H213       -8.5485  -19.4607  -51.6310 H         1 UNK         0.0600 
    214 H214       -8.2380  -18.8082  -50.0315 H         1 UNK         0.0600 
    215 H215       -6.5315  -22.7228  -50.1594 H         1 UNK         0.3000 
    216 H216       -6.7203  -23.7212  -52.9404 H         1 UNK         0.0600 
    217 H217       -6.9996  -25.9110  -51.8423 H         1 UNK         0.0600 
    218 H218       -8.1260  -24.7528  -51.1561 H         1 UNK         0.0600 
    219 H219       -6.6766  -25.2085  -50.2646 H         1 UNK         0.0600 
    220 H220       -4.1640  -22.6517  -50.9535 H         1 UNK         0.3000 
    221 H221       -2.2895  -24.7932  -51.3206 H         1 UNK         0.0600 
    222 H222       -1.7580  -21.8425  -50.7150 H         1 UNK         0.0600 
    223 H223       -2.1209  -23.0614  -49.4982 H         1 UNK         0.0600 
    224 H224       -0.6476  -23.1798  -50.4493 H         1 UNK         0.0600 
    225 H225       -3.1105  -21.9093  -53.2377 H         1 UNK         0.3000 
    226 H226       -1.9651  -22.9572  -55.6271 H         1 UNK         0.0600 
    227 H227        0.1522  -21.9825  -54.6601 H         1 UNK         0.0600 
    228 H228       -0.3834  -21.0350  -56.0356 H         1 UNK         0.0600 
    229 H229       -0.6630  -20.4427  -54.4034 H         1 UNK         0.0600 
    230 H230       -2.6444  -21.5973  -57.4504 H         1 UNK         0.3000 
    231 H231       -5.2426  -20.5325  -57.1682 H         1 UNK         0.0600 
    232 H232       -4.9541  -19.9088  -59.5737 H         1 UNK         0.0600 
    233 H233       -4.3932  -21.5439  -59.2657 H         1 UNK         0.0600 
    234 H234       -3.2284  -20.2333  -59.4616 H         1 UNK         0.0600 
    235 H235       -2.1178  -18.9348  -57.0331 H         1 UNK         0.3000 
    236 H236       -2.9938  -16.2197  -57.3161 H         1 UNK         0.0600 
    237 H237       -0.4924  -17.4119  -55.9988 H         1 UNK         0.0600 
    238 H238       -0.6433  -16.9406  -57.6928 H         1 UNK         0.0600 
    239 H239       -0.7099  -15.7205  -56.4317 H         1 UNK         0.0600 
    240 H240       -3.2501  -18.4696  -54.6587 H         1 UNK         0.3000 
    241 H241       -3.3529  -16.4399  -52.5640 H         1 UNK         0.0600 
    242 H242       -7.1019  -16.9250  -53.9267 H         1 UNK         0.3800 
    243 H243       -5.7091  -17.3617  -54.8835 H         1 UNK         0.3800 
    244 H244       -3.9325  -19.4332  -52.3889 H         1 UNK         0.0800 
    245 H245       -3.7879  -18.3410  -51.0446 H         1 UNK         0.0800 
    246 H246       -1.6348  -17.4589  -50.0547 H         1 UNK         0.0800 
    247 H247       -1.8493  -19.1527  -49.6635 H         1 UNK         0.0800 
@<TRIPOS>BOND
     1    1    2 1    
     2    1  127 1    
     3    1  128 1    
     4    1  129 1    
     5    2    3 2    
     6    2    4 am   BACKBONE|DICT|INTERRES
     7    4    5 1    
     8    4  130 1    
     9    5    6 1    
    10    5   65 1    
    11    5  131 1    
    12    6    7 1    
    13    6  132 1    
    14    6  133 1    
    15    7    8 1    
    16    8    9 1    
    17    8  134 1    
    18    8  135 1    
    19    9   10 ar   
    20    9   14 ar   
    21   10   11 ar   
    22   10  136 1    
    23   11   12 ar   
    24   11  126 1    
    25   12   13 ar   
    26   12  137 1    
    27   13   14 ar   
    28   13   15 1    
    29   14  138 1    
    30   15   16 1    
    31   15  139 1    
    32   15  140 1    
    33   16   17 1    
    34   17   18 1    
    35   17  141 1    
    36   17  142 1    
    37   18   19 1    
    38   18   67 1    
    39   18  143 1    
    40   19   20 am   BACKBONE|DICT|INTERRES
    41   19  144 1    
    42   20   21 2    
    43   20   22 1    
    44   22   23 1    
    45   22   24 1    
    46   22  145 1    
    47   23  146 1    
    48   23  147 1    
    49   23  148 1    
    50   24   25 am   BACKBONE|DICT|INTERRES
    51   24  149 1    
    52   25   26 2    
    53   25   27 1    
    54   27   28 1    
    55   27   29 1    
    56   27  150 1    
    57   28  151 1    
    58   28  152 1    
    59   28  153 1    
    60   29   30 am   BACKBONE|DICT|INTERRES
    61   29  154 1    
    62   30   31 2    
    63   30   32 1    
    64   32   33 1    
    65   32   34 1    
    66   32  155 1    
    67   33  156 1    
    68   33  157 1    
    69   33  158 1    
    70   34   35 am   BACKBONE|DICT|INTERRES
    71   34  159 1    
    72   35   36 2    
    73   35   37 1    
    74   37   38 1    
    75   37   39 1    
    76   37  160 1    
    77   38  161 1    
    78   38  162 1    
    79   38  163 1    
    80   39   40 am   BACKBONE|DICT|INTERRES
    81   39  164 1    
    82   40   41 2    
    83   40   42 1    
    84   42   43 1    
    85   42   44 1    
    86   42  165 1    
    87   43  166 1    
    88   43  167 1    
    89   43  168 1    
    90   44   45 am   BACKBONE|DICT|INTERRES
    91   44  169 1    
    92   45   46 2    
    93   45   47 1    
    94   47   48 1    
    95   47   49 1    
    96   47  170 1    
    97   48  171 1    
    98   48  172 1    
    99   48  173 1    
   100   49   50 am   BACKBONE|DICT|INTERRES
   101   49  174 1    
   102   50   51 2    
   103   50   52 1    
   104   52   53 1    
   105   52   54 1    
   106   52  175 1    
   107   53  176 1    
   108   53  177 1    
   109   53  178 1    
   110   54   55 am   BACKBONE|DICT|INTERRES
   111   54  179 1    
   112   55   56 2    
   113   55   57 1    
   114   57   58 1    
   115   57   59 1    
   116   57  180 1    
   117   58  181 1    
   118   58  182 1    
   119   58  183 1    
   120   59   60 am   BACKBONE|DICT|INTERRES
   121   59  184 1    
   122   60   61 2    
   123   60   62 1    
   124   62   63 1    
   125   62   64 1    
   126   62  185 1    
   127   63  186 1    
   128   63  187 1    
   129   63  188 1    
   130   64   65 am   BACKBONE|DICT|INTERRES
   131   64  189 1    
   132   65   66 2    
   133   67   68 2    
   134   67   69 am   BACKBONE|DICT|INTERRES
   135   69   70 1    
   136   69  190 1    
   137   70   71 1    
   138   70   72 1    
   139   70  191 1    
   140   71  192 1    
   141   71  193 1    
   142   71  194 1    
   143   72   73 2    
   144   72   74 am   BACKBONE|DICT|INTERRES
   145   74   75 1    
   146   74  195 1    
   147   75   76 1    
   148   75   77 1    
   149   75  196 1    
   150   76  197 1    
   151   76  198 1    
   152   76  199 1    
   153   77   78 2    
   154   77   79 am   BACKBONE|DICT|INTERRES
   155   79   80 1    
   156   79  200 1    
   157   80   81 1    
   158   80   82 1    
   159   80  201 1    
   160   81  202 1    
   161   81  203 1    
   162   81  204 1    
   163   82   83 2    
   164   82   84 am   BACKBONE|DICT|INTERRES
   165   84   85 1    
   166   84  205 1    
   167   85   86 1    
   168   85   87 1    
   169   85  206 1    
   170   86  207 1    
   171   86  208 1    
   172   86  209 1    
   173   87   88 2    
   174   87   89 am   BACKBONE|DICT|INTERRES
   175   89   90 1    
   176   89  210 1    
   177   90   91 1    
   178   90   92 1    
   179   90  211 1    
   180   91  212 1    
   181   91  213 1    
   182   91  214 1    
   183   92   93 2    
   184   92   94 am   BACKBONE|DICT|INTERRES
   185   94   95 1    
   186   94  215 1    
   187   95   96 1    
   188   95   97 1    
   189   95  216 1    
   190   96  217 1    
   191   96  218 1    
   192   96  219 1    
   193   97   98 2    
   194   97   99 am   BACKBONE|DICT|INTERRES
   195   99  100 1    
   196   99  220 1    
   197  100  101 1    
   198  100  102 1    
   199  100  221 1    
   200  101  222 1    
   201  101  223 1    
   202  101  224 1    
   203  102  103 2    
   204  102  104 am   BACKBONE|DICT|INTERRES
   205  104  105 1    
   206  104  225 1    
   207  105  106 1    
   208  105  107 1    
   209  105  226 1    
   210  106  227 1    
   211  106  228 1    
   212  106  229 1    
   213  107  108 2    
   214  107  109 am   BACKBONE|DICT|INTERRES
   215  109  110 1    
   216  109  230 1    
   217  110  111 1    
   218  110  112 1    
   219  110  231 1    
   220  111  232 1    
   221  111  233 1    
   222  111  234 1    
   223  112  113 2    
   224  112  114 am   BACKBONE|DICT|INTERRES
   225  114  115 1    
   226  114  235 1    
   227  115  116 1    
   228  115  117 1    
   229  115  236 1    
   230  116  237 1    
   231  116  238 1    
   232  116  239 1    
   233  117  118 2    
   234  117  119 am   BACKBONE|DICT|INTERRES
   235  119  120 1    
   236  119  240 1    
   237  120  121 1    
   238  120  124 1    
   239  120  241 1    
   240  121  122 am   BACKBONE|DICT|INTERRES
   241  121  123 2    
   242  122  242 1    
   243  122  243 1    
   244  124  125 1    
   245  124  244 1    
   246  124  245 1    
   247  125  126 1    
   248  126  246 1    
   249  126  247 1    
@<TRIPOS>SUBSTRUCTURE
     1 UNK         1 GROUP             0       ****    0 ROOT    
