@<TRIPOS>MOLECULE
3R540
247   249    1
SMALL
USER_CHARGES


@<TRIPOS>ATOM
      1 CA          7.0610  -14.7077  -50.3732 C.3       0 UNK        -0.1800 
      2 C           6.2368  -14.6894  -49.0934 C.2       0 UNK         0.5000 
      3 O           6.6458  -15.2782  -48.0922 O.2       0 UNK        -0.5000 
      4 N           5.0767  -14.0233  -49.1250 N.am      1 UNK        -0.5000 
      5 CA          4.1828  -13.8487  -47.9774 C.3       1 UNK         0.1400 
      6 C6          2.7552  -13.4357  -48.4198 C.3       23 UNK        -0.0398 
      7 S7          1.7538  -14.8578  -48.9610 S.3       23 UNK        -0.2404 
      8 C8          2.1649  -14.9512  -50.7296 C.3       23 UNK        -0.0205 
      9 C9          1.3209  -15.9995  -51.4373 C.ar      23 UNK        -0.0193 
     10 C10         0.3960  -15.6191  -52.4159 C.ar      23 UNK        -0.1150 
     11 C11        -0.3702  -16.5831  -53.0769 C.ar      23 UNK        -0.0193 
     12 C12        -0.2083  -17.9305  -52.7505 C.ar      23 UNK        -0.1150 
     13 C13         0.7079  -18.3247  -51.7723 C.ar      23 UNK        -0.0193 
     14 C14         1.4745  -17.3544  -51.1220 C.ar      23 UNK        -0.1150 
     15 C15         0.8790  -19.8006  -51.4480 C.3       23 UNK        -0.0205 
     16 S16        -0.6514  -20.5267  -50.7848 S.3       23 UNK        -0.2404 
     17 C17        -0.5242  -20.1786  -48.9953 C.3       23 UNK        -0.0398 
     18 CA         -0.2534  -21.4695  -48.1835 C.3       11 UNK         0.1400 
     19 N           0.1285  -21.1977  -46.7945 N.am      11 UNK        -0.5000 
     20 C           0.5895  -22.1293  -45.9452 C.2       10 UNK         0.5000 
     21 O           0.7974  -23.2999  -46.2625 O.2       10 UNK        -0.5000 
     22 CA          0.8059  -21.7038  -44.4824 C.3       10 UNK         0.1400 
     23 CB          2.1402  -20.9619  -44.3174 C.3       10 UNK        -0.1800 
     24 N          -0.2930  -20.8867  -43.9673 N.am      10 UNK        -0.5000 
     25 C          -1.5572  -21.3162  -43.8396 C.2       9 UNK         0.5000 
     26 O          -1.9147  -22.4677  -44.0861 O.2       9 UNK        -0.5000 
     27 CA         -2.6105  -20.2767  -43.4156 C.3       9 UNK         0.1400 
     28 CB         -2.6013  -20.0792  -41.8929 C.3       9 UNK        -0.1800 
     29 N          -2.4352  -18.9856  -44.0814 N.am      9 UNK        -0.5000 
     30 C          -2.4938  -18.7935  -45.4071 C.2       8 UNK         0.5000 
     31 O          -2.7365  -19.6853  -46.2191 O.2       8 UNK        -0.5000 
     32 CA         -2.1532  -17.3817  -45.9147 C.3       8 UNK         0.1400 
     33 CB         -3.3284  -16.4129  -45.7117 C.3       8 UNK        -0.1800 
     34 N          -0.9551  -16.8526  -45.2642 N.am      8 UNK        -0.5000 
     35 C           0.2731  -17.3674  -45.4177 C.2       7 UNK         0.5000 
     36 O           0.5355  -18.2971  -46.1816 O.2       7 UNK        -0.5000 
     37 CA          1.3790  -16.7788  -44.5252 C.3       7 UNK         0.1400 
     38 CB          1.9875  -15.5215  -45.1593 C.3       7 UNK        -0.1800 
     39 N           0.8895  -16.4641  -43.1822 N.am      7 UNK        -0.5000 
     40 C           0.6142  -17.3934  -42.2546 C.2       6 UNK         0.5000 
     41 O           0.7629  -18.6006  -42.4384 O.2       6 UNK        -0.5000 
     42 CA          0.0416  -16.9022  -40.9107 C.3       6 UNK         0.1400 
     43 CB          1.1785  -16.5518  -39.9395 C.3       6 UNK        -0.1800 
     44 N          -0.8446  -15.7468  -41.0487 N.am      6 UNK        -0.5000 
     45 C          -1.9854  -15.7337  -41.7517 C.2       5 UNK         0.5000 
     46 O          -2.4509  -16.7267  -42.3094 O.2       5 UNK        -0.5000 
     47 CA         -2.7028  -14.3779  -41.9016 C.3       5 UNK         0.1400 
     48 CB         -3.8549  -14.2688  -40.8922 C.3       5 UNK        -0.1800 
     49 N          -1.8269  -13.2082  -41.7607 N.am      5 UNK        -0.5000 
     50 C          -0.7716  -12.9320  -42.5381 C.2       4 UNK         0.5000 
     51 O          -0.3678  -13.6733  -43.4401 O.2       4 UNK        -0.5000 
     52 CA         -0.0163  -11.6351  -42.2217 C.3       4 UNK         0.1400 
     53 CB          0.9509  -11.8380  -41.0424 C.3       4 UNK        -0.1800 
     54 N           0.7387  -11.2430  -43.4035 N.am      4 UNK        -0.5000 
     55 C           1.0312   -9.9922  -43.7751 C.2       3 UNK         0.5000 
     56 O           0.7020   -8.9920  -43.1343 O.2       3 UNK        -0.5000 
     57 CA          1.8348   -9.8601  -45.0862 C.3       3 UNK         0.1400 
     58 CB          2.3599   -8.4321  -45.3466 C.3       3 UNK        -0.1800 
     59 N           2.9140  -10.8528  -45.1691 N.am      3 UNK        -0.5000 
     60 C           3.9892  -10.9592  -44.3712 C.2       2 UNK         0.5000 
     61 O           4.2628  -10.1571  -43.4778 O.2       2 UNK        -0.5000 
     62 CA          4.9041  -12.1864  -44.5775 C.3       2 UNK         0.1400 
     63 CB          4.9421  -13.0444  -43.3009 C.3       2 UNK        -0.1800 
     64 N           4.4971  -13.0458  -45.6935 N.am      2 UNK        -0.5000 
     65 C           4.7626  -12.8191  -46.9859 C.2       1 UNK         0.5000 
     66 O           5.3838  -11.8372  -47.3988 O.2       1 UNK        -0.5000 
     67 C          -1.4321  -22.4643  -48.2642 C.2       11 UNK         0.5000 
     68 O          -1.3435  -23.4404  -49.0080 O.2       11 UNK        -0.5000 
     69 N          -2.4844  -22.2315  -47.4667 N.am      12 UNK        -0.5000 
     70 CA         -3.6591  -23.0990  -47.3627 C.3       12 UNK         0.1400 
     71 CB         -4.6767  -22.4667  -46.4013 C.3       12 UNK        -0.1800 
     72 C          -3.3074  -24.5340  -46.9292 C.2       12 UNK         0.5000 
     73 O          -3.7928  -25.4889  -47.5367 O.2       12 UNK        -0.5000 
     74 N          -2.4298  -24.6580  -45.9235 N.am      13 UNK        -0.5000 
     75 CA         -1.8949  -25.9283  -45.4360 C.3       13 UNK         0.1400 
     76 CB         -1.1034  -25.6901  -44.1413 C.3       13 UNK        -0.1800 
     77 C          -1.0284  -26.6566  -46.4800 C.2       13 UNK         0.5000 
     78 O          -1.1761  -27.8681  -46.6416 O.2       13 UNK        -0.5000 
     79 N          -0.1602  -25.9121  -47.1802 N.am      14 UNK        -0.5000 
     80 CA          0.7108  -26.4271  -48.2396 C.3       14 UNK         0.1400 
     81 CB          1.7479  -25.3601  -48.6225 C.3       14 UNK        -0.1800 
     82 C          -0.0696  -26.8975  -49.4803 C.2       14 UNK         0.5000 
     83 O           0.2454  -27.9525  -50.0325 O.2       14 UNK        -0.5000 
     84 N          -1.0838  -26.1202  -49.8822 N.am      15 UNK        -0.5000 
     85 CA         -1.9973  -26.4437  -50.9789 C.3       15 UNK         0.1400 
     86 CB         -2.7686  -25.1742  -51.3778 C.3       15 UNK        -0.1800 
     87 C          -2.9854  -27.5723  -50.6277 C.2       15 UNK         0.5000 
     88 O          -3.4841  -28.2367  -51.5369 O.2       15 UNK        -0.5000 
     89 N          -3.2639  -27.7421  -49.3256 N.am      16 UNK        -0.5000 
     90 CA         -4.2977  -28.5963  -48.7318 C.3       16 UNK         0.1400 
     91 CB         -3.9826  -30.0894  -48.9575 C.3       16 UNK        -0.1800 
     92 C          -5.7066  -28.1829  -49.2075 C.2       16 UNK         0.5000 
     93 O          -6.5312  -29.0350  -49.5449 O.2       16 UNK        -0.5000 
     94 N          -5.9335  -26.8657  -49.2607 N.am      17 UNK        -0.5000 
     95 CA         -7.1099  -26.2180  -49.8305 C.3       17 UNK         0.1400 
     96 CB         -7.0587  -26.2949  -51.3743 C.3       17 UNK        -0.1800 
     97 C          -7.1925  -24.7788  -49.2903 C.2       17 UNK         0.5000 
     98 O          -6.7956  -24.5333  -48.1502 O.2       17 UNK        -0.5000 
     99 N          -7.7091  -23.8499  -50.1030 N.am      18 UNK        -0.5000 
    100 CA        -7.7434  -22.4176  -49.8132 C.3       18 UNK         0.1400 
    101 CB        -8.7541  -21.7503  -50.7606 C.3       18 UNK        -0.1800 
    102 C         -6.3548  -21.7698  -49.9739 C.2       18 UNK         0.5000 
    103 O         -5.5019  -22.2967  -50.6917 O.2       18 UNK        -0.5000 
    104 N         -6.1762  -20.6044  -49.3391 N.am      19 UNK        -0.5000 
    105 CA        -4.9666  -19.7803  -49.4330 C.3       19 UNK         0.1400 
    106 CB        -5.0187  -18.7027  -48.3407 C.3       19 UNK        -0.1800 
    107 C         -4.7863  -19.1122  -50.8108 C.2       19 UNK         0.5000 
    108 O         -3.6677  -18.7488  -51.1706 O.2       19 UNK        -0.5000 
    109 N         -5.8841  -18.9604  -51.5640 N.am      20 UNK        -0.5000 
    110 CA        -5.9478  -18.3361  -52.8870 C.3       20 UNK         0.1400 
    111 CB        -7.3936  -17.8696  -53.1361 C.3       20 UNK        -0.1800 
    112 C         -5.4175  -19.2487  -54.0162 C.2       20 UNK         0.5000 
    113 O         -6.0463  -19.3592  -55.0710 O.2       20 UNK        -0.5000 
    114 N         -4.2527  -19.8732  -53.7953 N.am      21 UNK        -0.5000 
    115 CA        -3.5843  -20.7869  -54.7290 C.3       21 UNK         0.1400 
    116 CB        -2.4155  -21.4754  -54.0084 C.3       21 UNK        -0.1800 
    117 C         -3.1107  -20.1102  -56.0333 C.2       21 UNK         0.5000 
    118 O         -2.8788  -20.8017  -57.0257 O.2       21 UNK        -0.5000 
    119 N         -3.0082  -18.7752  -56.0161 N.am      22 UNK        -0.5000 
    120 CA        -2.7787  -17.9217  -57.1924 C.3       22 UNK         0.1400 
    121 C         -4.0063  -17.8109  -58.1474 C.2       22 UNK         0.5000 
    122 N         -5.2022  -18.2487  -57.7661 N.am      22 UNK        -0.7600 
    123 O         -3.8687  -17.3193  -59.2642 O.2       22 UNK        -0.5000 
    124 C124       -2.2780  -16.5082  -56.7917 C.3       23 UNK        -0.0398 
    125 S125       -0.7409  -16.5509  -55.8085 S.3       23 UNK        -0.2404 
    126 C126       -1.3779  -16.1870  -54.1426 C.3       23 UNK        -0.0205 
    127 H127        6.5708  -14.1614  -51.1794 H         1 UNK         0.0600 
    128 H128        7.2169  -15.7343  -50.7045 H         1 UNK         0.0600 
    129 H129        8.0359  -14.2528  -50.1978 H         1 UNK         0.0600 
    130 H130        4.8201  -13.5220  -49.9626 H         1 UNK         0.3000 
    131 H131        4.1238  -14.8060  -47.4555 H         1 UNK         0.0600 
    132 H132        2.7834  -12.6720  -49.1989 H         1 UNK         0.0800 
    133 H133        2.2009  -12.9904  -47.5917 H         1 UNK         0.0800 
    134 H134        3.2183  -15.2065  -50.8483 H         1 UNK         0.0800 
    135 H135        2.0245  -13.9708  -51.1872 H         1 UNK         0.0800 
    136 H136        0.2747  -14.5745  -52.6664 H         1 UNK         0.1150 
    137 H137       -0.7997  -18.6757  -53.2616 H         1 UNK         0.1150 
    138 H138        2.1900  -17.6486  -50.3668 H         1 UNK         0.1150 
    139 H139        1.7025  -19.9650  -50.7514 H         1 UNK         0.0800 
    140 H140        1.1442  -20.3287  -52.3649 H         1 UNK         0.0800 
    141 H141       -1.4446  -19.6936  -48.6659 H         1 UNK         0.0800 
    142 H142        0.2725  -19.4527  -48.8266 H         1 UNK         0.0800 
    143 H143        0.6082  -21.9616  -48.6406 H         1 UNK         0.0600 
    144 H144        0.0156  -20.2443  -46.4653 H         1 UNK         0.3000 
    145 H145        0.8512  -22.6126  -43.8787 H         1 UNK         0.0600 
    146 H146        2.3383  -20.7364  -43.2695 H         1 UNK         0.0600 
    147 H147        2.9706  -21.5681  -44.6813 H         1 UNK         0.0600 
    148 H148        2.1528  -20.0232  -44.8704 H         1 UNK         0.0600 
    149 H149       -0.0618  -19.9416  -43.6794 H         1 UNK         0.3000 
    150 H150       -3.5911  -20.6621  -43.7009 H         1 UNK         0.0600 
    151 H151       -2.7712  -21.0245  -41.3760 H         1 UNK         0.0600 
    152 H152       -3.3863  -19.3906  -41.5797 H         1 UNK         0.0600 
    153 H153       -1.6486  -19.6809  -41.5443 H         1 UNK         0.0600 
    154 H154       -2.2738  -18.1827  -43.4783 H         1 UNK         0.3000 
    155 H155       -1.9525  -17.4517  -46.9860 H         1 UNK         0.0600 
    156 H156       -3.5771  -16.2869  -44.6585 H         1 UNK         0.0600 
    157 H157       -3.1021  -15.4287  -46.1222 H         1 UNK         0.0600 
    158 H158       -4.2253  -16.7757  -46.2141 H         1 UNK         0.0600 
    159 H159       -1.0842  -16.1019  -44.6013 H         1 UNK         0.3000 
    160 H160        2.1709  -17.5257  -44.4369 H         1 UNK         0.0600 
    161 H161        1.2406  -14.7441  -45.3236 H         1 UNK         0.0600 
    162 H162        2.4286  -15.7638  -46.1255 H         1 UNK         0.0600 
    163 H163        2.7746  -15.1102  -44.5288 H         1 UNK         0.0600 
    164 H164        0.6757  -15.4927  -42.9904 H         1 UNK         0.3000 
    165 H165       -0.5394  -17.7193  -40.4786 H         1 UNK         0.0600 
    166 H166        0.7897  -16.2821  -38.9574 H         1 UNK         0.0600 
    167 H167        1.8485  -17.4014  -39.8002 H         1 UNK         0.0600 
    168 H168        1.7781  -15.7169  -40.3049 H         1 UNK         0.0600 
    169 H169       -0.5399  -14.8859  -40.6200 H         1 UNK         0.3000 
    170 H170       -3.1269  -14.3501  -42.9074 H         1 UNK         0.0600 
    171 H171       -4.5408  -15.1117  -40.9889 H         1 UNK         0.0600 
    172 H172       -3.4897  -14.2591  -39.8645 H         1 UNK         0.0600 
    173 H173       -4.4359  -13.3604  -41.0521 H         1 UNK         0.0600 
    174 H174       -2.0761  -12.5546  -41.0320 H         1 UNK         0.3000 
    175 H175       -0.7465  -10.8616  -41.9742 H         1 UNK         0.0600 
    176 H176        1.6864  -12.6151  -41.2553 H         1 UNK         0.0600 
    177 H177        1.4937  -10.9199  -40.8167 H         1 UNK         0.0600 
    178 H178        0.4156  -12.1281  -40.1377 H         1 UNK         0.0600 
    179 H179        0.9850  -12.0157  -44.0080 H         1 UNK         0.3000 
    180 H180        1.1382  -10.0993  -45.8910 H         1 UNK         0.0600 
    181 H181        3.0093   -8.0817  -44.5442 H         1 UNK         0.0600 
    182 H182        1.5347   -7.7239  -45.4283 H         1 UNK         0.0600 
    183 H183        2.9222   -8.3833  -46.2791 H         1 UNK         0.0600 
    184 H184        2.7949  -11.5669  -45.8701 H         1 UNK         0.3000 
    185 H185        5.9122  -11.8130  -44.7693 H         1 UNK         0.0600 
    186 H186        5.6020  -13.9039  -43.4208 H         1 UNK         0.0600 
    187 H187        5.3152  -12.4694  -42.4524 H         1 UNK         0.0600 
    188 H188        3.9514  -13.4143  -43.0333 H         1 UNK         0.0600 
    189 H189        3.9906  -13.8808  -45.4397 H         1 UNK         0.3000 
    190 H190       -2.4906  -21.3880  -46.8968 H         1 UNK         0.3000 
    191 H191       -4.1137  -23.1581  -48.3532 H         1 UNK         0.0600 
    192 H192       -4.2618  -22.3366  -45.4026 H         1 UNK         0.0600 
    193 H193       -5.5661  -23.0892  -46.3045 H         1 UNK         0.0600 
    194 H194       -5.0011  -21.4900  -46.7573 H         1 UNK         0.0600 
    195 H195       -2.1111  -23.8185  -45.4468 H         1 UNK         0.3000 
    196 H196       -2.7421  -26.5755  -45.1998 H         1 UNK         0.0600 
    197 H197       -0.7042  -26.6260  -43.7484 H         1 UNK         0.0600 
    198 H198       -1.7366  -25.2558  -43.3675 H         1 UNK         0.0600 
    199 H199       -0.2625  -25.0146  -44.3018 H         1 UNK         0.0600 
    200 H200       -0.0660  -24.9252  -46.9577 H         1 UNK         0.3000 
    201 H201        1.2478  -27.2898  -47.8401 H         1 UNK         0.0600 
    202 H202        2.3678  -25.0894  -47.7677 H         1 UNK         0.0600 
    203 H203        1.2729  -24.4508  -48.9921 H         1 UNK         0.0600 
    204 H204        2.4143  -25.7248  -49.4050 H         1 UNK         0.0600 
    205 H205       -1.2360  -25.2285  -49.4133 H         1 UNK         0.3000 
    206 H206       -1.4063  -26.7710  -51.8366 H         1 UNK         0.0600 
    207 H207       -2.0893  -24.3775  -51.6823 H         1 UNK         0.0600 
    208 H208       -3.4391  -25.3684  -52.2159 H         1 UNK         0.0600 
    209 H209       -3.3758  -24.7965  -50.5535 H         1 UNK         0.0600 
    210 H210       -2.8310  -27.0954  -48.6779 H         1 UNK         0.3000 
    211 H211       -4.2677  -28.4103  -47.6573 H         1 UNK         0.0600 
    212 H212       -4.0509  -30.3667  -50.0096 H         1 UNK         0.0600 
    213 H213       -4.6807  -30.7214  -48.4076 H         1 UNK         0.0600 
    214 H214       -2.9790  -30.3351  -48.6098 H         1 UNK         0.0600 
    215 H215       -5.2430  -26.2367  -48.8597 H         1 UNK         0.3000 
    216 H216       -8.0010  -26.7409  -49.4784 H         1 UNK         0.0600 
    217 H217       -7.9727  -25.9086  -51.8261 H         1 UNK         0.0600 
    218 H218       -6.9533  -27.3233  -51.7197 H         1 UNK         0.0600 
    219 H219       -6.2175  -25.7270  -51.7746 H         1 UNK         0.0600 
    220 H220       -7.9763  -24.1232  -51.0369 H         1 UNK         0.3000 
    221 H221       -8.0791  -22.2757  -48.7836 H         1 UNK         0.0600 
    222 H222       -8.4525  -21.8467  -51.8046 H         1 UNK         0.0600 
    223 H223       -9.7446  -22.1937  -50.6558 H         1 UNK         0.0600 
    224 H224       -8.8546  -20.6859  -50.5451 H         1 UNK         0.0600 
    225 H225       -6.9248  -20.2350  -48.7705 H         1 UNK         0.3000 
    226 H226       -4.0976  -20.4171  -49.2530 H         1 UNK         0.0600 
    227 H227       -5.1280  -19.1428  -47.3501 H         1 UNK         0.0600 
    228 H228       -4.1000  -18.1152  -48.3365 H         1 UNK         0.0600 
    229 H229       -5.8494  -18.0124  -48.4925 H         1 UNK         0.0600 
    230 H230       -6.7548  -19.3139  -51.1983 H         1 UNK         0.3000 
    231 H231       -5.3124  -17.4481  -52.8779 H         1 UNK         0.0600 
    232 H232       -7.4765  -17.3310  -54.0811 H         1 UNK         0.0600 
    233 H233       -7.7308  -17.1925  -52.3510 H         1 UNK         0.0600 
    234 H234       -8.0863  -18.7113  -53.1743 H         1 UNK         0.0600 
    235 H235       -3.7914  -19.7034  -52.9068 H         1 UNK         0.3000 
    236 H236       -4.3072  -21.5555  -55.0100 H         1 UNK         0.0600 
    237 H237       -2.7529  -21.9910  -53.1086 H         1 UNK         0.0600 
    238 H238       -1.9438  -22.2195  -54.6513 H         1 UNK         0.0600 
    239 H239       -1.6461  -20.7617  -53.7166 H         1 UNK         0.0600 
    240 H240       -3.2143  -18.2997  -55.1525 H         1 UNK         0.3000 
    241 H241       -1.9881  -18.3914  -57.7807 H         1 UNK         0.0600 
    242 H242       -5.3520  -18.6595  -56.8512 H         1 UNK         0.3800 
    243 H243       -5.9789  -18.1695  -58.4033 H         1 UNK         0.3800 
    244 H244       -2.0702  -15.9150  -57.6841 H         1 UNK         0.0800 
    245 H245       -3.0514  -15.9654  -56.2455 H         1 UNK         0.0800 
    246 H246       -2.3075  -16.7301  -53.9683 H         1 UNK         0.0800 
    247 H247       -1.6212  -15.1257  -54.0721 H         1 UNK         0.0800 
@<TRIPOS>BOND
     1    1    2 1    
     2    1  127 1    
     3    1  128 1    
     4    1  129 1    
     5    2    3 2    
     6    2    4 am   BACKBONE|DICT|INTERRES
     7    4    5 1    
     8    4  130 1    
     9    5    6 1    
    10    5   65 1    
    11    5  131 1    
    12    6    7 1    
    13    6  132 1    
    14    6  133 1    
    15    7    8 1    
    16    8    9 1    
    17    8  134 1    
    18    8  135 1    
    19    9   10 ar   
    20    9   14 ar   
    21   10   11 ar   
    22   10  136 1    
    23   11   12 ar   
    24   11  126 1    
    25   12   13 ar   
    26   12  137 1    
    27   13   14 ar   
    28   13   15 1    
    29   14  138 1    
    30   15   16 1    
    31   15  139 1    
    32   15  140 1    
    33   16   17 1    
    34   17   18 1    
    35   17  141 1    
    36   17  142 1    
    37   18   19 1    
    38   18   67 1    
    39   18  143 1    
    40   19   20 am   BACKBONE|DICT|INTERRES
    41   19  144 1    
    42   20   21 2    
    43   20   22 1    
    44   22   23 1    
    45   22   24 1    
    46   22  145 1    
    47   23  146 1    
    48   23  147 1    
    49   23  148 1    
    50   24   25 am   BACKBONE|DICT|INTERRES
    51   24  149 1    
    52   25   26 2    
    53   25   27 1    
    54   27   28 1    
    55   27   29 1    
    56   27  150 1    
    57   28  151 1    
    58   28  152 1    
    59   28  153 1    
    60   29   30 am   BACKBONE|DICT|INTERRES
    61   29  154 1    
    62   30   31 2    
    63   30   32 1    
    64   32   33 1    
    65   32   34 1    
    66   32  155 1    
    67   33  156 1    
    68   33  157 1    
    69   33  158 1    
    70   34   35 am   BACKBONE|DICT|INTERRES
    71   34  159 1    
    72   35   36 2    
    73   35   37 1    
    74   37   38 1    
    75   37   39 1    
    76   37  160 1    
    77   38  161 1    
    78   38  162 1    
    79   38  163 1    
    80   39   40 am   BACKBONE|DICT|INTERRES
    81   39  164 1    
    82   40   41 2    
    83   40   42 1    
    84   42   43 1    
    85   42   44 1    
    86   42  165 1    
    87   43  166 1    
    88   43  167 1    
    89   43  168 1    
    90   44   45 am   BACKBONE|DICT|INTERRES
    91   44  169 1    
    92   45   46 2    
    93   45   47 1    
    94   47   48 1    
    95   47   49 1    
    96   47  170 1    
    97   48  171 1    
    98   48  172 1    
    99   48  173 1    
   100   49   50 am   BACKBONE|DICT|INTERRES
   101   49  174 1    
   102   50   51 2    
   103   50   52 1    
   104   52   53 1    
   105   52   54 1    
   106   52  175 1    
   107   53  176 1    
   108   53  177 1    
   109   53  178 1    
   110   54   55 am   BACKBONE|DICT|INTERRES
   111   54  179 1    
   112   55   56 2    
   113   55   57 1    
   114   57   58 1    
   115   57   59 1    
   116   57  180 1    
   117   58  181 1    
   118   58  182 1    
   119   58  183 1    
   120   59   60 am   BACKBONE|DICT|INTERRES
   121   59  184 1    
   122   60   61 2    
   123   60   62 1    
   124   62   63 1    
   125   62   64 1    
   126   62  185 1    
   127   63  186 1    
   128   63  187 1    
   129   63  188 1    
   130   64   65 am   BACKBONE|DICT|INTERRES
   131   64  189 1    
   132   65   66 2    
   133   67   68 2    
   134   67   69 am   BACKBONE|DICT|INTERRES
   135   69   70 1    
   136   69  190 1    
   137   70   71 1    
   138   70   72 1    
   139   70  191 1    
   140   71  192 1    
   141   71  193 1    
   142   71  194 1    
   143   72   73 2    
   144   72   74 am   BACKBONE|DICT|INTERRES
   145   74   75 1    
   146   74  195 1    
   147   75   76 1    
   148   75   77 1    
   149   75  196 1    
   150   76  197 1    
   151   76  198 1    
   152   76  199 1    
   153   77   78 2    
   154   77   79 am   BACKBONE|DICT|INTERRES
   155   79   80 1    
   156   79  200 1    
   157   80   81 1    
   158   80   82 1    
   159   80  201 1    
   160   81  202 1    
   161   81  203 1    
   162   81  204 1    
   163   82   83 2    
   164   82   84 am   BACKBONE|DICT|INTERRES
   165   84   85 1    
   166   84  205 1    
   167   85   86 1    
   168   85   87 1    
   169   85  206 1    
   170   86  207 1    
   171   86  208 1    
   172   86  209 1    
   173   87   88 2    
   174   87   89 am   BACKBONE|DICT|INTERRES
   175   89   90 1    
   176   89  210 1    
   177   90   91 1    
   178   90   92 1    
   179   90  211 1    
   180   91  212 1    
   181   91  213 1    
   182   91  214 1    
   183   92   93 2    
   184   92   94 am   BACKBONE|DICT|INTERRES
   185   94   95 1    
   186   94  215 1    
   187   95   96 1    
   188   95   97 1    
   189   95  216 1    
   190   96  217 1    
   191   96  218 1    
   192   96  219 1    
   193   97   98 2    
   194   97   99 am   BACKBONE|DICT|INTERRES
   195   99  100 1    
   196   99  220 1    
   197  100  101 1    
   198  100  102 1    
   199  100  221 1    
   200  101  222 1    
   201  101  223 1    
   202  101  224 1    
   203  102  103 2    
   204  102  104 am   BACKBONE|DICT|INTERRES
   205  104  105 1    
   206  104  225 1    
   207  105  106 1    
   208  105  107 1    
   209  105  226 1    
   210  106  227 1    
   211  106  228 1    
   212  106  229 1    
   213  107  108 2    
   214  107  109 am   BACKBONE|DICT|INTERRES
   215  109  110 1    
   216  109  230 1    
   217  110  111 1    
   218  110  112 1    
   219  110  231 1    
   220  111  232 1    
   221  111  233 1    
   222  111  234 1    
   223  112  113 2    
   224  112  114 am   BACKBONE|DICT|INTERRES
   225  114  115 1    
   226  114  235 1    
   227  115  116 1    
   228  115  117 1    
   229  115  236 1    
   230  116  237 1    
   231  116  238 1    
   232  116  239 1    
   233  117  118 2    
   234  117  119 am   BACKBONE|DICT|INTERRES
   235  119  120 1    
   236  119  240 1    
   237  120  121 1    
   238  120  124 1    
   239  120  241 1    
   240  121  122 am   BACKBONE|DICT|INTERRES
   241  121  123 2    
   242  122  242 1    
   243  122  243 1    
   244  124  125 1    
   245  124  244 1    
   246  124  245 1    
   247  125  126 1    
   248  126  246 1    
   249  126  247 1    
@<TRIPOS>SUBSTRUCTURE
     1 UNK         1 GROUP             0       ****    0 ROOT    
