@<TRIPOS>MOLECULE
3R540
247   249    1
SMALL
USER_CHARGES


@<TRIPOS>ATOM
      1 CA          3.3531  -11.8290  -47.8205 C.3       0 UNK        -0.1800 
      2 C           2.1587  -12.4383  -47.1021 C.2       0 UNK         0.5000 
      3 O           2.2378  -12.7065  -45.9039 O.2       0 UNK        -0.5000 
      4 N           1.0524  -12.6604  -47.8223 N.am      1 UNK        -0.5000 
      5 CA         -0.1924  -13.2317  -47.2961 C.3       1 UNK         0.1400 
      6 C6         -1.2279  -13.5225  -48.4068 C.3       23 UNK        -0.0398 
      7 S7         -0.5762  -14.6799  -49.6593 S.3       23 UNK        -0.2404 
      8 C8         -0.9628  -16.2722  -48.8726 C.3       23 UNK        -0.0205 
      9 C9         -0.3901  -17.4366  -49.6636 C.ar      23 UNK        -0.0193 
     10 C10        -1.1783  -18.0981  -50.6083 C.ar      23 UNK        -0.1150 
     11 C11        -0.6775  -19.1976  -51.3108 C.ar      23 UNK        -0.0193 
     12 C12         0.6319  -19.6258  -51.0631 C.ar      23 UNK        -0.1150 
     13 C13         1.4360  -18.9657  -50.1308 C.ar      23 UNK        -0.0193 
     14 C14         0.9179  -17.8716  -49.4313 C.ar      23 UNK        -0.1150 
     15 C15         2.8667  -19.4306  -49.8923 C.3       23 UNK        -0.0205 
     16 S16         2.9577  -21.1008  -49.1661 S.3       23 UNK        -0.2404 
     17 C17         2.2386  -20.8198  -47.5146 C.3       23 UNK        -0.0398 
     18 CA          1.2096  -21.8950  -47.0915 C.3       11 UNK         0.1400 
     19 N           0.9355  -21.8227  -45.6533 N.am      11 UNK        -0.5000 
     20 C           0.1920  -22.6945  -44.9576 C.2       10 UNK         0.5000 
     21 O          -0.2992  -23.7142  -45.4392 O.2       10 UNK        -0.5000 
     22 CA         -0.0986  -22.3358  -43.4886 C.3       10 UNK         0.1400 
     23 CB          1.0633  -22.7579  -42.5773 C.3       10 UNK        -0.1800 
     24 N          -0.3701  -20.9094  -43.3102 N.am      10 UNK        -0.5000 
     25 C          -1.4163  -20.2590  -43.8385 C.2       9 UNK         0.5000 
     26 O          -2.3125  -20.8128  -44.4735 O.2       9 UNK        -0.5000 
     27 CA         -1.4284  -18.7273  -43.6876 C.3       9 UNK         0.1400 
     28 CB         -1.9537  -18.3023  -42.3077 C.3       9 UNK        -0.1800 
     29 N          -0.1021  -18.1512  -43.9169 N.am      9 UNK        -0.5000 
     30 C           0.4964  -18.1032  -45.1153 C.2       8 UNK         0.5000 
     31 O          -0.0369  -18.4878  -46.1549 O.2       8 UNK        -0.5000 
     32 CA          1.9422  -17.5729  -45.1580 C.3       8 UNK         0.1400 
     33 CB          1.9621  -16.0677  -45.4456 C.3       8 UNK        -0.1800 
     34 N           2.6907  -17.8513  -43.9307 N.am      8 UNK        -0.5000 
     35 C           3.0834  -19.0786  -43.5652 C.2       7 UNK         0.5000 
     36 O           2.8569  -20.0897  -44.2304 O.2       7 UNK        -0.5000 
     37 CA          3.7914  -19.2049  -42.2035 C.3       7 UNK         0.1400 
     38 CB          5.2440  -18.7125  -42.2887 C.3       7 UNK        -0.1800 
     39 N           3.0945  -18.5095  -41.1156 N.am      7 UNK        -0.5000 
     40 C           1.8389  -18.7727  -40.7258 C.2       6 UNK         0.5000 
     41 O           1.1189  -19.5953  -41.2877 O.2       6 UNK        -0.5000 
     42 CA          1.2663  -17.9963  -39.5243 C.3       6 UNK         0.1400 
     43 CB          1.0140  -18.9549  -38.3503 C.3       6 UNK        -0.1800 
     44 N           2.1256  -16.9064  -39.0544 N.am      6 UNK        -0.5000 
     45 C           2.2188  -15.6591  -39.5360 C.2       5 UNK         0.5000 
     46 O           2.9682  -14.8360  -39.0085 O.2       5 UNK        -0.5000 
     47 CA          1.3651  -15.2239  -40.7530 C.3       5 UNK         0.1400 
     48 CB          0.0064  -14.6687  -40.2994 C.3       5 UNK        -0.1800 
     49 N           2.0584  -14.1968  -41.5299 N.am      5 UNK        -0.5000 
     50 C           3.1677  -14.4214  -42.2461 C.2       4 UNK         0.5000 
     51 O           3.5929  -15.5550  -42.4771 O.2       4 UNK        -0.5000 
     52 CA          3.9131  -13.1845  -42.7827 C.3       4 UNK         0.1400 
     53 CB          4.8817  -13.5238  -43.9298 C.3       4 UNK        -0.1800 
     54 N           2.9706  -12.1637  -43.2370 N.am      4 UNK        -0.5000 
     55 C           2.6607  -11.0393  -42.5805 C.2       3 UNK         0.5000 
     56 O           3.1535  -10.7169  -41.4992 O.2       3 UNK        -0.5000 
     57 CA          1.5905  -10.1401  -43.2264 C.3       3 UNK         0.1400 
     58 CB          2.1988   -9.2909  -44.3530 C.3       3 UNK        -0.1800 
     59 N           0.4562  -10.9002  -43.7528 N.am      3 UNK        -0.5000 
     60 C          -0.4248  -11.5883  -43.0157 C.2       2 UNK         0.5000 
     61 O          -0.3836  -11.6347  -41.7864 O.2       2 UNK        -0.5000 
     62 CA         -1.5232  -12.3815  -43.7570 C.3       2 UNK         0.1400 
     63 CB         -2.8113  -11.5494  -43.9053 C.3       2 UNK        -0.1800 
     64 N          -1.0965  -12.9646  -45.0381 N.am      2 UNK        -0.5000 
     65 C          -0.7855  -12.3431  -46.1847 C.2       1 UNK         0.5000 
     66 O          -0.8884  -11.1282  -46.3658 O.2       1 UNK        -0.5000 
     67 C          -0.0893  -21.8396  -47.9283 C.2       11 UNK         0.5000 
     68 O          -0.2688  -22.6668  -48.8234 O.2       11 UNK        -0.5000 
     69 N          -0.9984  -20.9159  -47.5800 N.am      12 UNK        -0.5000 
     70 CA         -2.3306  -20.8133  -48.1743 C.3       12 UNK         0.1400 
     71 CB         -3.0257  -19.5319  -47.6925 C.3       12 UNK        -0.1800 
     72 C          -3.2009  -22.0483  -47.8848 C.2       12 UNK         0.5000 
     73 O          -3.8127  -22.5850  -48.8087 O.2       12 UNK        -0.5000 
     74 N          -3.2235  -22.4974  -46.6217 N.am      13 UNK        -0.5000 
     75 CA         -3.9651  -23.6750  -46.1622 C.3       13 UNK         0.1400 
     76 CB         -3.8420  -23.8068  -44.6378 C.3       13 UNK        -0.1800 
     77 C          -3.5310  -24.9768  -46.8605 C.2       13 UNK         0.5000 
     78 O          -4.3907  -25.7667  -47.2521 O.2       13 UNK        -0.5000 
     79 N          -2.2164  -25.1453  -47.0624 N.am      14 UNK        -0.5000 
     80 CA         -1.6104  -26.2548  -47.8051 C.3       14 UNK         0.1400 
     81 CB         -0.0834  -26.1910  -47.6507 C.3       14 UNK        -0.1800 
     82 C          -2.0020  -26.2898  -49.2970 C.2       14 UNK         0.5000 
     83 O          -2.0034  -27.3646  -49.8970 O.2       14 UNK        -0.5000 
     84 N          -2.3678  -25.1291  -49.8545 N.am      15 UNK        -0.5000 
     85 CA         -2.8921  -24.9525  -51.2084 C.3       15 UNK         0.1400 
     86 CB         -2.3197  -23.6474  -51.7808 C.3       15 UNK        -0.1800 
     87 C          -4.4367  -24.9579  -51.2312 C.2       15 UNK         0.5000 
     88 O          -5.0328  -24.3350  -52.1117 O.2       15 UNK        -0.5000 
     89 N          -5.0576  -25.6405  -50.2561 N.am      16 UNK        -0.5000 
     90 CA         -6.5011  -25.8168  -50.0640 C.3       16 UNK         0.1400 
     91 CB         -7.1010  -26.6753  -51.1968 C.3       16 UNK        -0.1800 
     92 C          -7.2418  -24.4817  -49.8468 C.2       16 UNK         0.5000 
     93 O          -8.2972  -24.2524  -50.4390 O.2       16 UNK        -0.5000 
     94 N          -6.6518  -23.6270  -48.9985 N.am      17 UNK        -0.5000 
     95 CA         -7.0647  -22.2530  -48.6912 C.3       17 UNK         0.1400 
     96 CB         -8.4590  -22.2120  -48.0307 C.3       17 UNK        -0.1800 
     97 C          -6.9313  -21.3339  -49.9224 C.2       17 UNK         0.5000 
     98 O          -7.8522  -20.5799  -50.2415 O.2       17 UNK        -0.5000 
     99 N          -5.7660  -21.4317  -50.5800 N.am      18 UNK        -0.5000 
    100 CA        -5.3461  -20.7067  -51.7811 C.3       18 UNK         0.1400 
    101 CB        -5.1020  -19.2196  -51.4504 C.3       18 UNK        -0.1800 
    102 C         -6.3057  -20.9163  -52.9693 C.2       18 UNK         0.5000 
    103 O         -6.8226  -19.9491  -53.5339 O.2       18 UNK        -0.5000 
    104 N         -6.5320  -22.1863  -53.3288 N.am      19 UNK        -0.5000 
    105 CA        -7.4336  -22.6242  -54.3968 C.3       19 UNK         0.1400 
    106 CB        -7.7954  -24.1010  -54.1622 C.3       19 UNK        -0.1800 
    107 C         -6.8577  -22.3750  -55.8086 C.2       19 UNK         0.5000 
    108 O         -6.6326  -23.3224  -56.5630 O.2       19 UNK        -0.5000 
    109 N         -6.6072  -21.0984  -56.1306 N.am      20 UNK        -0.5000 
    110 CA        -6.1634  -20.5160  -57.4080 C.3       20 UNK         0.1400 
    111 CB        -7.1994  -20.7841  -58.5161 C.3       20 UNK        -0.1800 
    112 C         -4.7460  -20.9024  -57.8840 C.2       20 UNK         0.5000 
    113 O         -4.1473  -20.1412  -58.6461 O.2       20 UNK        -0.5000 
    114 N         -4.2219  -22.0468  -57.4272 N.am      21 UNK        -0.5000 
    115 CA        -2.9405  -22.6475  -57.8138 C.3       21 UNK         0.1400 
    116 CB        -2.7653  -23.9633  -57.0393 C.3       21 UNK        -0.1800 
    117 C         -1.7063  -21.7446  -57.6165 C.2       21 UNK         0.5000 
    118 O         -0.7232  -21.8977  -58.3430 O.2       21 UNK        -0.5000 
    119 N         -1.7842  -20.8196  -56.6534 N.am      22 UNK        -0.5000 
    120 CA        -0.7508  -19.8110  -56.3679 C.3       22 UNK         0.1400 
    121 C         -0.7416  -18.6085  -57.3588 C.2       22 UNK         0.5000 
    122 N         -1.7061  -18.4713  -58.2625 N.am      22 UNK        -0.7600 
    123 O          0.1672  -17.7840  -57.3124 O.2       22 UNK        -0.5000 
    124 C124       -0.8135  -19.3180  -54.8988 C.3       23 UNK        -0.0398 
    125 S125       -0.7713  -20.6971  -53.7041 S.3       23 UNK        -0.2404 
    126 C126       -1.5993  -19.9523  -52.2615 C.3       23 UNK        -0.0205 
    127 H127        3.6095  -10.8691  -47.3727 H         1 UNK         0.0600 
    128 H128        3.1508  -11.6693  -48.8798 H         1 UNK         0.0600 
    129 H129        4.2167  -12.4883  -47.7333 H         1 UNK         0.0600 
    130 H130        1.0380  -12.4147  -48.8015 H         1 UNK         0.3000 
    131 H131        0.0718  -14.1856  -46.8408 H         1 UNK         0.0600 
    132 H132       -1.5153  -12.5983  -48.9113 H         1 UNK         0.0800 
    133 H133       -2.1457  -13.9374  -47.9859 H         1 UNK         0.0800 
    134 H134       -0.5650  -16.2932  -47.8575 H         1 UNK         0.0800 
    135 H135       -2.0451  -16.3743  -48.7804 H         1 UNK         0.0800 
    136 H136       -2.1935  -17.7682  -50.7776 H         1 UNK         0.1150 
    137 H137        1.0283  -20.4878  -51.5803 H         1 UNK         0.1150 
    138 H138        1.5275  -17.3594  -48.7004 H         1 UNK         0.1150 
    139 H139        3.3975  -19.4342  -50.8452 H         1 UNK         0.0800 
    140 H140        3.4019  -18.7308  -49.2484 H         1 UNK         0.0800 
    141 H141        1.7936  -19.8274  -47.4656 H         1 UNK         0.0800 
    142 H142        3.0715  -20.8087  -46.8107 H         1 UNK         0.0800 
    143 H143        1.6612  -22.8739  -47.2666 H         1 UNK         0.0600 
    144 H144        1.3577  -21.0487  -45.1509 H         1 UNK         0.3000 
    145 H145       -0.9884  -22.8864  -43.1785 H         1 UNK         0.0600 
    146 H146        0.8325  -22.5615  -41.5301 H         1 UNK         0.0600 
    147 H147        1.2660  -23.8253  -42.6725 H         1 UNK         0.0600 
    148 H148        1.9828  -22.2252  -42.8205 H         1 UNK         0.0600 
    149 H149        0.2943  -20.3886  -42.7427 H         1 UNK         0.3000 
    150 H150       -2.1076  -18.3248  -44.4425 H         1 UNK         0.0600 
    151 H151       -2.9740  -18.6576  -42.1582 H         1 UNK         0.0600 
    152 H152       -1.9702  -17.2169  -42.2076 H         1 UNK         0.0600 
    153 H153       -1.3490  -18.7059  -41.4964 H         1 UNK         0.0600 
    154 H154        0.4258  -17.8737  -43.1046 H         1 UNK         0.3000 
    155 H155        2.4544  -18.0723  -45.9823 H         1 UNK         0.0600 
    156 H156        1.4201  -15.4971  -44.6905 H         1 UNK         0.0600 
    157 H157        2.9830  -15.6904  -45.4842 H         1 UNK         0.0600 
    158 H158        1.5118  -15.8606  -46.4154 H         1 UNK         0.0600 
    159 H159        2.9573  -17.0561  -43.3529 H         1 UNK         0.3000 
    160 H160        3.8129  -20.2666  -41.9486 H         1 UNK         0.0600 
    161 H161        5.2992  -17.6442  -42.4999 H         1 UNK         0.0600 
    162 H162        5.7857  -19.2313  -43.0807 H         1 UNK         0.0600 
    163 H163        5.7779  -18.8974  -41.3566 H         1 UNK         0.0600 
    164 H164        3.6182  -17.8013  -40.6221 H         1 UNK         0.3000 
    165 H165        0.2990  -17.5945  -39.8277 H         1 UNK         0.0600 
    166 H166        0.5489  -18.4372  -37.5111 H         1 UNK         0.0600 
    167 H167        0.3426  -19.7645  -38.6404 H         1 UNK         0.0600 
    168 H168        1.9397  -19.4087  -37.9939 H         1 UNK         0.0600 
    169 H169        2.7030  -17.1388  -38.2595 H         1 UNK         0.3000 
    170 H170        1.1913  -16.0722  -41.4148 H         1 UNK         0.0600 
    171 H171        0.1224  -13.7645  -39.7003 H         1 UNK         0.0600 
    172 H172       -0.6224  -14.4235  -41.1550 H         1 UNK         0.0600 
    173 H173       -0.5406  -15.3921  -39.6944 H         1 UNK         0.0600 
    174 H174        1.7779  -13.2400  -41.3671 H         1 UNK         0.3000 
    175 H175        4.5116  -12.8027  -41.9536 H         1 UNK         0.0600 
    176 H176        5.4126  -12.6347  -44.2699 H         1 UNK         0.0600 
    177 H177        4.3606  -13.9466  -44.7877 H         1 UNK         0.0600 
    178 H178        5.6328  -14.2473  -43.6107 H         1 UNK         0.0600 
    179 H179        2.5290  -12.3456  -44.1374 H         1 UNK         0.3000 
    180 H180        1.2136   -9.4638  -42.4563 H         1 UNK         0.0600 
    181 H181        2.5727   -9.9109  -45.1683 H         1 UNK         0.0600 
    182 H182        3.0340   -8.6939  -43.9845 H         1 UNK         0.0600 
    183 H183        1.4636   -8.6009  -44.7674 H         1 UNK         0.0600 
    184 H184        0.3282  -10.9016  -44.7583 H         1 UNK         0.3000 
    185 H185       -1.7644  -13.2340  -43.1202 H         1 UNK         0.0600 
    186 H186       -3.5981  -12.1232  -44.3948 H         1 UNK         0.0600 
    187 H187       -3.1897  -11.2468  -42.9282 H         1 UNK         0.0600 
    188 H188       -2.6486  -10.6394  -44.4830 H         1 UNK         0.0600 
    189 H189       -0.9419  -13.9619  -44.9987 H         1 UNK         0.3000 
    190 H190       -0.7615  -20.2320  -46.8688 H         1 UNK         0.3000 
    191 H191       -2.2054  -20.7428  -49.2557 H         1 UNK         0.0600 
    192 H192       -2.4260  -18.6517  -47.9166 H         1 UNK         0.0600 
    193 H193       -3.9916  -19.4044  -48.1825 H         1 UNK         0.0600 
    194 H194       -3.2031  -19.5434  -46.6175 H         1 UNK         0.0600 
    195 H195       -2.7263  -21.9687  -45.9088 H         1 UNK         0.3000 
    196 H196       -5.0177  -23.5095  -46.3985 H         1 UNK         0.0600 
    197 H197       -4.4317  -24.6475  -44.2701 H         1 UNK         0.0600 
    198 H198       -4.2033  -22.9106  -44.1331 H         1 UNK         0.0600 
    199 H199       -2.8099  -23.9718  -44.3303 H         1 UNK         0.0600 
    200 H200       -1.5727  -24.4678  -46.6610 H         1 UNK         0.3000 
    201 H201       -1.9604  -27.1856  -47.3544 H         1 UNK         0.0600 
    202 H202        0.2098  -26.2592  -46.6030 H         1 UNK         0.0600 
    203 H203        0.3216  -25.2612  -48.0513 H         1 UNK         0.0600 
    204 H204        0.3994  -27.0150  -48.1775 H         1 UNK         0.0600 
    205 H205       -2.3542  -24.2962  -49.2788 H         1 UNK         0.3000 
    206 H206       -2.5587  -25.7735  -51.8457 H         1 UNK         0.0600 
    207 H207       -1.2298  -23.6445  -51.7544 H         1 UNK         0.0600 
    208 H208       -2.6208  -23.4963  -52.8183 H         1 UNK         0.0600 
    209 H209       -2.6691  -22.7939  -51.2039 H         1 UNK         0.0600 
    210 H210       -4.4787  -26.0583  -49.5394 H         1 UNK         0.3000 
    211 H211       -6.6174  -26.3773  -49.1353 H         1 UNK         0.0600 
    212 H212       -7.0339  -26.1774  -52.1633 H         1 UNK         0.0600 
    213 H213       -8.1541  -26.8893  -51.0111 H         1 UNK         0.0600 
    214 H214       -6.5862  -27.6325  -51.2785 H         1 UNK         0.0600 
    215 H215       -5.7517  -23.8991  -48.6261 H         1 UNK         0.3000 
    216 H216       -6.3534  -21.8767  -47.9551 H         1 UNK         0.0600 
    217 H217       -8.6909  -21.2060  -47.6793 H         1 UNK         0.0600 
    218 H218       -8.5057  -22.8758  -47.1676 H         1 UNK         0.0600 
    219 H219       -9.2500  -22.5030  -48.7221 H         1 UNK         0.0600 
    220 H220       -5.0801  -22.0743  -50.1951 H         1 UNK         0.3000 
    221 H221       -4.3938  -21.1408  -52.0854 H         1 UNK         0.0600 
    222 H222       -6.0140  -18.7228  -51.1184 H         1 UNK         0.0600 
    223 H223       -4.3561  -19.1098  -50.6638 H         1 UNK         0.0600 
    224 H224       -4.7376  -18.6773  -52.3234 H         1 UNK         0.0600 
    225 H225       -6.0431  -22.9287  -52.8315 H         1 UNK         0.3000 
    226 H226       -8.3577  -22.0471  -54.3235 H         1 UNK         0.0600 
    227 H227       -8.2692  -24.2389  -53.1906 H         1 UNK         0.0600 
    228 H228       -8.4963  -24.4597  -54.9169 H         1 UNK         0.0600 
    229 H229       -6.9130  -24.7409  -54.1996 H         1 UNK         0.0600 
    230 H230       -6.7625  -20.4235  -55.3854 H         1 UNK         0.3000 
    231 H231       -6.1382  -19.4383  -57.2397 H         1 UNK         0.0600 
    232 H232       -7.2735  -21.8453  -58.7555 H         1 UNK         0.0600 
    233 H233       -6.9312  -20.2621  -59.4356 H         1 UNK         0.0600 
    234 H234       -8.1897  -20.4356  -58.2232 H         1 UNK         0.0600 
    235 H235       -4.8380  -22.6276  -56.8684 H         1 UNK         0.3000 
    236 H236       -3.0022  -22.8811  -58.8783 H         1 UNK         0.0600 
    237 H237       -3.5822  -24.6551  -57.2459 H         1 UNK         0.0600 
    238 H238       -1.8376  -24.4637  -57.3202 H         1 UNK         0.0600 
    239 H239       -2.7343  -23.7928  -55.9622 H         1 UNK         0.0600 
    240 H240       -2.6271  -20.7696  -56.1021 H         1 UNK         0.3000 
    241 H241        0.2188  -20.2966  -56.4944 H         1 UNK         0.0600 
    242 H242       -2.4679  -19.1391  -58.3290 H         1 UNK         0.3800 
    243 H243       -1.6783  -17.6894  -58.8974 H         1 UNK         0.3800 
    244 H244        0.0252  -18.6558  -54.6767 H         1 UNK         0.0800 
    245 H245       -1.7197  -18.7307  -54.7430 H         1 UNK         0.0800 
    246 H246       -2.0671  -20.7467  -51.6875 H         1 UNK         0.0800 
    247 H247       -2.4080  -19.3075  -52.6047 H         1 UNK         0.0800 
@<TRIPOS>BOND
     1    1    2 1    
     2    1  127 1    
     3    1  128 1    
     4    1  129 1    
     5    2    3 2    
     6    2    4 am   BACKBONE|DICT|INTERRES
     7    4    5 1    
     8    4  130 1    
     9    5    6 1    
    10    5   65 1    
    11    5  131 1    
    12    6    7 1    
    13    6  132 1    
    14    6  133 1    
    15    7    8 1    
    16    8    9 1    
    17    8  134 1    
    18    8  135 1    
    19    9   10 ar   
    20    9   14 ar   
    21   10   11 ar   
    22   10  136 1    
    23   11   12 ar   
    24   11  126 1    
    25   12   13 ar   
    26   12  137 1    
    27   13   14 ar   
    28   13   15 1    
    29   14  138 1    
    30   15   16 1    
    31   15  139 1    
    32   15  140 1    
    33   16   17 1    
    34   17   18 1    
    35   17  141 1    
    36   17  142 1    
    37   18   19 1    
    38   18   67 1    
    39   18  143 1    
    40   19   20 am   BACKBONE|DICT|INTERRES
    41   19  144 1    
    42   20   21 2    
    43   20   22 1    
    44   22   23 1    
    45   22   24 1    
    46   22  145 1    
    47   23  146 1    
    48   23  147 1    
    49   23  148 1    
    50   24   25 am   BACKBONE|DICT|INTERRES
    51   24  149 1    
    52   25   26 2    
    53   25   27 1    
    54   27   28 1    
    55   27   29 1    
    56   27  150 1    
    57   28  151 1    
    58   28  152 1    
    59   28  153 1    
    60   29   30 am   BACKBONE|DICT|INTERRES
    61   29  154 1    
    62   30   31 2    
    63   30   32 1    
    64   32   33 1    
    65   32   34 1    
    66   32  155 1    
    67   33  156 1    
    68   33  157 1    
    69   33  158 1    
    70   34   35 am   BACKBONE|DICT|INTERRES
    71   34  159 1    
    72   35   36 2    
    73   35   37 1    
    74   37   38 1    
    75   37   39 1    
    76   37  160 1    
    77   38  161 1    
    78   38  162 1    
    79   38  163 1    
    80   39   40 am   BACKBONE|DICT|INTERRES
    81   39  164 1    
    82   40   41 2    
    83   40   42 1    
    84   42   43 1    
    85   42   44 1    
    86   42  165 1    
    87   43  166 1    
    88   43  167 1    
    89   43  168 1    
    90   44   45 am   BACKBONE|DICT|INTERRES
    91   44  169 1    
    92   45   46 2    
    93   45   47 1    
    94   47   48 1    
    95   47   49 1    
    96   47  170 1    
    97   48  171 1    
    98   48  172 1    
    99   48  173 1    
   100   49   50 am   BACKBONE|DICT|INTERRES
   101   49  174 1    
   102   50   51 2    
   103   50   52 1    
   104   52   53 1    
   105   52   54 1    
   106   52  175 1    
   107   53  176 1    
   108   53  177 1    
   109   53  178 1    
   110   54   55 am   BACKBONE|DICT|INTERRES
   111   54  179 1    
   112   55   56 2    
   113   55   57 1    
   114   57   58 1    
   115   57   59 1    
   116   57  180 1    
   117   58  181 1    
   118   58  182 1    
   119   58  183 1    
   120   59   60 am   BACKBONE|DICT|INTERRES
   121   59  184 1    
   122   60   61 2    
   123   60   62 1    
   124   62   63 1    
   125   62   64 1    
   126   62  185 1    
   127   63  186 1    
   128   63  187 1    
   129   63  188 1    
   130   64   65 am   BACKBONE|DICT|INTERRES
   131   64  189 1    
   132   65   66 2    
   133   67   68 2    
   134   67   69 am   BACKBONE|DICT|INTERRES
   135   69   70 1    
   136   69  190 1    
   137   70   71 1    
   138   70   72 1    
   139   70  191 1    
   140   71  192 1    
   141   71  193 1    
   142   71  194 1    
   143   72   73 2    
   144   72   74 am   BACKBONE|DICT|INTERRES
   145   74   75 1    
   146   74  195 1    
   147   75   76 1    
   148   75   77 1    
   149   75  196 1    
   150   76  197 1    
   151   76  198 1    
   152   76  199 1    
   153   77   78 2    
   154   77   79 am   BACKBONE|DICT|INTERRES
   155   79   80 1    
   156   79  200 1    
   157   80   81 1    
   158   80   82 1    
   159   80  201 1    
   160   81  202 1    
   161   81  203 1    
   162   81  204 1    
   163   82   83 2    
   164   82   84 am   BACKBONE|DICT|INTERRES
   165   84   85 1    
   166   84  205 1    
   167   85   86 1    
   168   85   87 1    
   169   85  206 1    
   170   86  207 1    
   171   86  208 1    
   172   86  209 1    
   173   87   88 2    
   174   87   89 am   BACKBONE|DICT|INTERRES
   175   89   90 1    
   176   89  210 1    
   177   90   91 1    
   178   90   92 1    
   179   90  211 1    
   180   91  212 1    
   181   91  213 1    
   182   91  214 1    
   183   92   93 2    
   184   92   94 am   BACKBONE|DICT|INTERRES
   185   94   95 1    
   186   94  215 1    
   187   95   96 1    
   188   95   97 1    
   189   95  216 1    
   190   96  217 1    
   191   96  218 1    
   192   96  219 1    
   193   97   98 2    
   194   97   99 am   BACKBONE|DICT|INTERRES
   195   99  100 1    
   196   99  220 1    
   197  100  101 1    
   198  100  102 1    
   199  100  221 1    
   200  101  222 1    
   201  101  223 1    
   202  101  224 1    
   203  102  103 2    
   204  102  104 am   BACKBONE|DICT|INTERRES
   205  104  105 1    
   206  104  225 1    
   207  105  106 1    
   208  105  107 1    
   209  105  226 1    
   210  106  227 1    
   211  106  228 1    
   212  106  229 1    
   213  107  108 2    
   214  107  109 am   BACKBONE|DICT|INTERRES
   215  109  110 1    
   216  109  230 1    
   217  110  111 1    
   218  110  112 1    
   219  110  231 1    
   220  111  232 1    
   221  111  233 1    
   222  111  234 1    
   223  112  113 2    
   224  112  114 am   BACKBONE|DICT|INTERRES
   225  114  115 1    
   226  114  235 1    
   227  115  116 1    
   228  115  117 1    
   229  115  236 1    
   230  116  237 1    
   231  116  238 1    
   232  116  239 1    
   233  117  118 2    
   234  117  119 am   BACKBONE|DICT|INTERRES
   235  119  120 1    
   236  119  240 1    
   237  120  121 1    
   238  120  124 1    
   239  120  241 1    
   240  121  122 am   BACKBONE|DICT|INTERRES
   241  121  123 2    
   242  122  242 1    
   243  122  243 1    
   244  124  125 1    
   245  124  244 1    
   246  124  245 1    
   247  125  126 1    
   248  126  246 1    
   249  126  247 1    
@<TRIPOS>SUBSTRUCTURE
     1 UNK         1 GROUP             0       ****    0 ROOT    
