@<TRIPOS>MOLECULE
3R540
247   249    1
SMALL
USER_CHARGES


@<TRIPOS>ATOM
      1 CA         -3.9949  -11.7561  -51.1199 C.3       0 UNK        -0.1800 
      2 C          -3.7505  -12.8415  -50.0812 C.2       0 UNK         0.5000 
      3 O          -4.6196  -13.0915  -49.2464 O.2       0 UNK        -0.5000 
      4 N          -2.5705  -13.4761  -50.1338 N.am      1 UNK        -0.5000 
      5 CA         -2.1167  -14.5595  -49.2475 C.3       1 UNK         0.1400 
      6 C6         -2.9677  -15.8579  -49.3525 C.3       23 UNK        -0.0398 
      7 S7         -3.0564  -16.6893  -50.9825 S.3       23 UNK        -0.2404 
      8 C8         -1.5908  -16.1708  -51.9457 C.3       23 UNK        -0.0205 
      9 C9         -0.2258  -16.6866  -51.4814 C.ar      23 UNK        -0.0193 
     10 C10         0.8777  -16.4085  -52.2950 C.ar      23 UNK        -0.1150 
     11 C11         2.1579  -16.8426  -51.9436 C.ar      23 UNK        -0.0193 
     12 C12         2.3414  -17.5382  -50.7481 C.ar      23 UNK        -0.1150 
     13 C13         1.2534  -17.8366  -49.9275 C.ar      23 UNK        -0.0193 
     14 C14        -0.0275  -17.4168  -50.2995 C.ar      23 UNK        -0.1150 
     15 C15         1.4780  -18.6118  -48.6412 C.3       23 UNK        -0.0205 
     16 S16         1.2573  -20.4029  -48.8836 S.3       23 UNK        -0.2404 
     17 C17        -0.4818  -20.6451  -48.3875 C.3       23 UNK        -0.0398 
     18 CA         -0.6768  -21.9469  -47.5723 C.3       11 UNK         0.1400 
     19 N           0.0407  -21.9458  -46.2915 N.am      11 UNK        -0.5000 
     20 C           0.2069  -23.0269  -45.5160 C.2       10 UNK         0.5000 
     21 O          -0.2030  -24.1472  -45.8176 O.2       10 UNK        -0.5000 
     22 CA          0.8909  -22.8196  -44.1517 C.3       10 UNK         0.1400 
     23 CB          2.4172  -22.7332  -44.2995 C.3       10 UNK        -0.1800 
     24 N           0.3831  -21.6434  -43.4428 N.am      10 UNK        -0.5000 
     25 C          -0.8728  -21.5271  -42.9879 C.2       9 UNK         0.5000 
     26 O          -1.7146  -22.4196  -43.0836 O.2       9 UNK        -0.5000 
     27 CA         -1.2758  -20.1804  -42.3589 C.3       9 UNK         0.1400 
     28 CB         -0.8595  -20.1203  -40.8821 C.3       9 UNK        -0.1800 
     29 N          -0.7275  -19.0280  -43.0734 N.am      9 UNK        -0.5000 
     30 C          -1.0192  -18.7109  -44.3432 C.2       8 UNK         0.5000 
     31 O          -1.8177  -19.3357  -45.0416 O.2       8 UNK        -0.5000 
     32 CA         -0.2319  -17.5388  -44.9567 C.3       8 UNK         0.1400 
     33 CB         -0.7570  -16.1949  -44.4349 C.3       8 UNK        -0.1800 
     34 N           1.2085  -17.6321  -44.7082 N.am      8 UNK        -0.5000 
     35 C           1.9839  -18.6802  -45.0190 C.2       7 UNK         0.5000 
     36 O           1.5809  -19.6660  -45.6301 O.2       7 UNK        -0.5000 
     37 CA          3.4271  -18.6671  -44.4909 C.3       7 UNK         0.1400 
     38 CB          4.3846  -17.9257  -45.4355 C.3       7 UNK        -0.1800 
     39 N           3.4961  -18.1155  -43.1363 N.am      7 UNK        -0.5000 
     40 C           3.0553  -18.7789  -42.0565 C.2       6 UNK         0.5000 
     41 O           2.5829  -19.9156  -42.1026 O.2       6 UNK        -0.5000 
     42 CA          3.1286  -18.0473  -40.7054 C.3       6 UNK         0.1400 
     43 CB          4.5585  -18.0796  -40.1456 C.3       6 UNK        -0.1800 
     44 N           2.6708  -16.6614  -40.7793 N.am      6 UNK        -0.5000 
     45 C           1.4163  -16.2688  -41.0292 C.2       5 UNK         0.5000 
     46 O           0.4948  -17.0556  -41.2439 O.2       5 UNK        -0.5000 
     47 CA          1.1415  -14.7489  -41.0628 C.3       5 UNK         0.1400 
     48 CB          1.0446  -14.1631  -39.6416 C.3       5 UNK        -0.1800 
     49 N           2.0813  -13.9945  -41.9035 N.am      5 UNK        -0.5000 
     50 C           3.4026  -13.8283  -41.7527 C.2       4 UNK         0.5000 
     51 O           4.0157  -14.1764  -40.7418 O.2       4 UNK        -0.5000 
     52 CA          4.1927  -13.2197  -42.9349 C.3       4 UNK         0.1400 
     53 CB          5.5044  -13.9958  -43.1772 C.3       4 UNK        -0.1800 
     54 N           3.4732  -13.0840  -44.2121 N.am      4 UNK        -0.5000 
     55 C           2.8629  -14.0409  -44.9267 C.2       3 UNK         0.5000 
     56 O           2.6335  -15.1741  -44.5025 O.2       3 UNK        -0.5000 
     57 CA          2.4468  -13.6608  -46.3624 C.3       3 UNK         0.1400 
     58 CB          2.7951  -14.7911  -47.3482 C.3       3 UNK        -0.1800 
     59 N           1.0297  -13.3341  -46.5281 N.am      3 UNK        -0.5000 
     60 C           0.2700  -12.5075  -45.7943 C.2       2 UNK         0.5000 
     61 O           0.6589  -11.9390  -44.7737 O.2       2 UNK        -0.5000 
     62 CA         -1.1620  -12.2372  -46.3090 C.3       2 UNK         0.1400 
     63 CB         -1.4237  -10.7269  -46.4383 C.3       2 UNK        -0.1800 
     64 N          -1.4292  -12.8615  -47.6104 N.am      2 UNK        -0.5000 
     65 C          -1.9593  -14.0796  -47.7852 C.2       1 UNK         0.5000 
     66 O          -2.2993  -14.8065  -46.8533 O.2       1 UNK        -0.5000 
     67 C          -2.1763  -22.2606  -47.3937 C.2       11 UNK         0.5000 
     68 O          -2.7555  -22.9183  -48.2587 O.2       11 UNK        -0.5000 
     69 N          -2.7809  -21.8132  -46.2842 N.am      12 UNK        -0.5000 
     70 CA         -4.1522  -22.1518  -45.9021 C.3       12 UNK         0.1400 
     71 CB         -4.6293  -21.2246  -44.7753 C.3       12 UNK        -0.1800 
     72 C          -4.3006  -23.6324  -45.5141 C.2       12 UNK         0.5000 
     73 O          -5.2283  -24.2861  -45.9901 O.2       12 UNK        -0.5000 
     74 N          -3.3643  -24.1507  -44.7063 N.am      13 UNK        -0.5000 
     75 CA         -3.3000  -25.5575  -44.2970 C.3       13 UNK         0.1400 
     76 CB         -2.2082  -25.7334  -43.2310 C.3       13 UNK        -0.1800 
     77 C          -3.0705  -26.5207  -45.4781 C.2       13 UNK         0.5000 
     78 O          -3.6597  -27.6016  -45.5071 O.2       13 UNK        -0.5000 
     79 N          -2.2527  -26.0925  -46.4487 N.am      14 UNK        -0.5000 
     80 CA         -2.0014  -26.7907  -47.7112 C.3       14 UNK         0.1400 
     81 CB         -0.7202  -26.2183  -48.3389 C.3       14 UNK        -0.1800 
     82 C          -3.1694  -26.6976  -48.7163 C.2       14 UNK         0.5000 
     83 O          -3.1452  -27.4055  -49.7235 O.2       14 UNK        -0.5000 
     84 N          -4.1437  -25.8137  -48.4483 N.am      15 UNK        -0.5000 
     85 CA         -5.2925  -25.4561  -49.2892 C.3       15 UNK         0.1400 
     86 CB         -6.2299  -26.6619  -49.5040 C.3       15 UNK        -0.1800 
     87 C          -4.8967  -24.7589  -50.6093 C.2       15 UNK         0.5000 
     88 O          -5.6825  -24.7425  -51.5572 O.2       15 UNK        -0.5000 
     89 N          -3.7004  -24.1586  -50.6377 N.am      16 UNK        -0.5000 
     90 CA         -3.1991  -23.3415  -51.7385 C.3       16 UNK         0.1400 
     91 CB         -1.6668  -23.2605  -51.6593 C.3       16 UNK        -0.1800 
     92 C          -3.8286  -21.9415  -51.7005 C.2       16 UNK         0.5000 
     93 O          -4.2607  -21.4392  -52.7380 O.2       16 UNK        -0.5000 
     94 N          -3.9387  -21.3614  -50.4949 N.am      17 UNK        -0.5000 
     95 CA         -4.5303  -20.0379  -50.2773 C.3       17 UNK         0.1400 
     96 CB         -4.2319  -19.5459  -48.8544 C.3       17 UNK        -0.1800 
     97 C          -6.0420  -19.9898  -50.5646 C.2       17 UNK         0.5000 
     98 O          -6.5560  -18.9272  -50.9099 O.2       17 UNK        -0.5000 
     99 N          -6.7158  -21.1466  -50.4873 N.am      18 UNK        -0.5000 
    100 CA        -8.1145  -21.3293  -50.8849 C.3       18 UNK         0.1400 
    101 CB        -8.5872  -22.7191  -50.4320 C.3       18 UNK        -0.1800 
    102 C         -8.3416  -21.1425  -52.4006 C.2       18 UNK         0.5000 
    103 O         -9.4358  -20.7483  -52.8042 O.2       18 UNK        -0.5000 
    104 N         -7.2987  -21.3972  -53.2028 N.am      19 UNK        -0.5000 
    105 CA        -7.2532  -21.1481  -54.6446 C.3       19 UNK         0.1400 
    106 CB        -6.5558  -22.3439  -55.3159 C.3       19 UNK        -0.1800 
    107 C         -6.5178  -19.8324  -54.9804 C.2       19 UNK         0.5000 
    108 O         -6.3638  -19.5167  -56.1608 O.2       19 UNK        -0.5000 
    109 N         -6.0553  -19.1080  -53.9482 N.am      20 UNK        -0.5000 
    110 CA        -5.1985  -17.9178  -53.9901 C.3       20 UNK         0.1400 
    111 CB        -5.9541  -16.7176  -54.5963 C.3       20 UNK        -0.1800 
    112 C         -3.8296  -18.1750  -54.6607 C.2       20 UNK         0.5000 
    113 O         -3.2707  -17.2727  -55.2875 O.2       20 UNK        -0.5000 
    114 N         -3.3209  -19.4062  -54.5319 N.am      21 UNK        -0.5000 
    115 CA        -2.0766  -19.8680  -55.1346 C.3       21 UNK         0.1400 
    116 CB        -2.2775  -21.3171  -55.6080 C.3       21 UNK        -0.1800 
    117 C         -0.9158  -19.7923  -54.1306 C.2       21 UNK         0.5000 
    118 O         -1.1263  -19.9356  -52.9251 O.2       21 UNK        -0.5000 
    119 N          0.2964  -19.6200  -54.6691 N.am      22 UNK        -0.5000 
    120 CA         1.5689  -19.6502  -53.9282 C.3       22 UNK         0.1400 
    121 C          2.1223  -21.0905  -53.6889 C.2       22 UNK         0.5000 
    122 N          1.5455  -22.1329  -54.2769 N.am      22 UNK        -0.7600 
    123 O          3.0812  -21.2776  -52.9465 O.2       22 UNK        -0.5000 
    124 C124        2.6007  -18.7125  -54.6186 C.3       23 UNK        -0.0398 
    125 S125        3.9820  -18.1597  -53.5570 S.3       23 UNK        -0.2404 
    126 C126        3.3401  -16.5984  -52.8680 C.3       23 UNK        -0.0205 
    127 H127       -3.1477  -11.6427  -51.7968 H         1 UNK         0.0600 
    128 H128       -4.1682  -10.7988  -50.6285 H         1 UNK         0.0600 
    129 H129       -4.8748  -11.9993  -51.7156 H         1 UNK         0.0600 
    130 H130       -1.9092  -13.1981  -50.8449 H         1 UNK         0.3000 
    131 H131       -1.1019  -14.8016  -49.5615 H         1 UNK         0.0600 
    132 H132       -2.5946  -16.6071  -48.6528 H         1 UNK         0.0800 
    133 H133       -3.9917  -15.6617  -49.0325 H         1 UNK         0.0800 
    134 H134       -1.5630  -15.0854  -52.0253 H         1 UNK         0.0800 
    135 H135       -1.7457  -16.5327  -52.9630 H         1 UNK         0.0800 
    136 H136        0.7345  -15.8656  -53.2190 H         1 UNK         0.1150 
    137 H137        3.3309  -17.8769  -50.4741 H         1 UNK         0.1150 
    138 H138       -0.8581  -17.6742  -49.6625 H         1 UNK         0.1150 
    139 H139        0.8172  -18.2388  -47.8612 H         1 UNK         0.0800 
    140 H140        2.4912  -18.4371  -48.2767 H         1 UNK         0.0800 
    141 H141       -1.0747  -20.6653  -49.3041 H         1 UNK         0.0800 
    142 H142       -0.8324  -19.7886  -47.8100 H         1 UNK         0.0800 
    143 H143       -0.2637  -22.7654  -48.1656 H         1 UNK         0.0600 
    144 H144        0.4625  -21.0646  -46.0026 H         1 UNK         0.3000 
    145 H145        0.6683  -23.6936  -43.5361 H         1 UNK         0.0600 
    146 H146        2.8149  -23.6485  -44.7394 H         1 UNK         0.0600 
    147 H147        2.9011  -22.5994  -43.3318 H         1 UNK         0.0600 
    148 H148        2.7195  -21.9075  -44.9422 H         1 UNK         0.0600 
    149 H149        1.0278  -20.8740  -43.3069 H         1 UNK         0.3000 
    150 H150       -2.3642  -20.1086  -42.4049 H         1 UNK         0.0600 
    151 H151        0.2242  -20.1481  -40.7665 H         1 UNK         0.0600 
    152 H152       -1.2719  -20.9624  -40.3250 H         1 UNK         0.0600 
    153 H153       -1.2218  -19.2078  -40.4082 H         1 UNK         0.0600 
    154 H154       -0.0892  -18.4332  -42.5536 H         1 UNK         0.3000 
    155 H155       -0.3901  -17.5635  -46.0353 H         1 UNK         0.0600 
    156 H156       -0.2773  -15.3624  -44.9469 H         1 UNK         0.0600 
    157 H157       -0.5852  -16.0735  -43.3681 H         1 UNK         0.0600 
    158 H158       -1.8312  -16.1069  -44.5995 H         1 UNK         0.0600 
    159 H159        1.6526  -16.8220  -44.2864 H         1 UNK         0.3000 
    160 H160        3.7643  -19.7050  -44.4489 H         1 UNK         0.0600 
    161 H161        4.1396  -16.8714  -45.5336 H         1 UNK         0.0600 
    162 H162        4.3537  -18.3601  -46.4354 H         1 UNK         0.0600 
    163 H163        5.4138  -17.9960  -45.0837 H         1 UNK         0.0600 
    164 H164        3.8201  -17.1644  -43.0387 H         1 UNK         0.3000 
    165 H165        2.4778  -18.5776  -40.0069 H         1 UNK         0.0600 
    166 H166        4.9260  -19.1039  -40.0702 H         1 UNK         0.0600 
    167 H167        5.2527  -17.5260  -40.7792 H         1 UNK         0.0600 
    168 H168        4.5994  -17.6458  -39.1463 H         1 UNK         0.0600 
    169 H169        3.3616  -15.9319  -40.6239 H         1 UNK         0.3000 
    170 H170        0.1648  -14.6189  -41.5310 H         1 UNK         0.0600 
    171 H171        0.8013  -13.1010  -39.6697 H         1 UNK         0.0600 
    172 H172        1.9732  -14.2799  -39.0827 H         1 UNK         0.0600 
    173 H173        0.2598  -14.6616  -39.0715 H         1 UNK         0.0600 
    174 H174        1.7060  -13.7010  -42.7956 H         1 UNK         0.3000 
    175 H175        4.4563  -12.2074  -42.6262 H         1 UNK         0.0600 
    176 H176        5.3131  -15.0347  -43.4481 H         1 UNK         0.0600 
    177 H177        6.1353  -13.9998  -42.2876 H         1 UNK         0.0600 
    178 H178        6.0877  -13.5436  -43.9794 H         1 UNK         0.0600 
    179 H179        3.5206  -12.1619  -44.6230 H         1 UNK         0.3000 
    180 H180        3.0166  -12.7779  -46.6576 H         1 UNK         0.0600 
    181 H181        2.2119  -15.6923  -47.1518 H         1 UNK         0.0600 
    182 H182        3.8494  -15.0613  -47.2776 H         1 UNK         0.0600 
    183 H183        2.6084  -14.4916  -48.3797 H         1 UNK         0.0600 
    184 H184        0.5869  -13.7467  -47.3338 H         1 UNK         0.3000 
    185 H185       -1.8515  -12.6345  -45.5613 H         1 UNK         0.0600 
    186 H186       -1.3019  -10.2217  -45.4793 H         1 UNK         0.0600 
    187 H187       -0.7385  -10.2586  -47.1460 H         1 UNK         0.0600 
    188 H188       -2.4414  -10.5318  -46.7771 H         1 UNK         0.0600 
    189 H189       -1.1899  -12.3169  -48.4268 H         1 UNK         0.3000 
    190 H190       -2.2672  -21.2049  -45.6545 H         1 UNK         0.3000 
    191 H191       -4.7983  -21.9857  -46.7651 H         1 UNK         0.0600 
    192 H192       -4.5844  -20.1794  -45.0820 H         1 UNK         0.0600 
    193 H193       -5.6633  -21.4407  -44.5043 H         1 UNK         0.0600 
    194 H194       -4.0251  -21.3343  -43.8756 H         1 UNK         0.0600 
    195 H195       -2.6563  -23.5334  -44.3168 H         1 UNK         0.3000 
    196 H196       -4.2599  -25.8144  -43.8444 H         1 UNK         0.0600 
    197 H197       -2.1569  -26.7682  -42.8904 H         1 UNK         0.0600 
    198 H198       -2.4072  -25.1126  -42.3573 H         1 UNK         0.0600 
    199 H199       -1.2238  -25.4641  -43.6146 H         1 UNK         0.0600 
    200 H200       -1.7371  -25.2292  -46.2991 H         1 UNK         0.3000 
    201 H201       -1.8362  -27.8482  -47.4959 H         1 UNK         0.0600 
    202 H202       -0.4652  -26.7418  -49.2612 H         1 UNK         0.0600 
    203 H203        0.1297  -26.3193  -47.6637 H         1 UNK         0.0600 
    204 H204       -0.8313  -25.1611  -48.5818 H         1 UNK         0.0600 
    205 H205       -4.0733  -25.2899  -47.5848 H         1 UNK         0.3000 
    206 H206       -5.8509  -24.7108  -48.7213 H         1 UNK         0.0600 
    207 H207       -6.4916  -27.1307  -48.5554 H         1 UNK         0.0600 
    208 H208       -7.1615  -26.3522  -49.9791 H         1 UNK         0.0600 
    209 H209       -5.7770  -27.4213  -50.1416 H         1 UNK         0.0600 
    210 H210       -3.1624  -24.1368  -49.7782 H         1 UNK         0.3000 
    211 H211       -3.4692  -23.8124  -52.6861 H         1 UNK         0.0600 
    212 H212       -1.2175  -24.2526  -51.7062 H         1 UNK         0.0600 
    213 H213       -1.2635  -22.6817  -52.4909 H         1 UNK         0.0600 
    214 H214       -1.3307  -22.7851  -50.7375 H         1 UNK         0.0600 
    215 H215       -3.5880  -21.8589  -49.6831 H         1 UNK         0.3000 
    216 H216       -4.0505  -19.3564  -50.9806 H         1 UNK         0.0600 
    217 H217       -4.6905  -20.1847  -48.1026 H         1 UNK         0.0600 
    218 H218       -4.6225  -18.5386  -48.7039 H         1 UNK         0.0600 
    219 H219       -3.1613  -19.5032  -48.6627 H         1 UNK         0.0600 
    220 H220       -6.2112  -21.9744  -50.2096 H         1 UNK         0.3000 
    221 H221       -8.7132  -20.5777  -50.3660 H         1 UNK         0.0600 
    222 H222       -8.0314  -23.5155  -50.9276 H         1 UNK         0.0600 
    223 H223       -8.4709  -22.8464  -49.3556 H         1 UNK         0.0600 
    224 H224       -9.6430  -22.8653  -50.6636 H         1 UNK         0.0600 
    225 H225       -6.4265  -21.7031  -52.7887 H         1 UNK         0.3000 
    226 H226       -8.2646  -21.0706  -55.0485 H         1 UNK         0.0600 
    227 H227       -7.0699  -23.2780  -55.0889 H         1 UNK         0.0600 
    228 H228       -6.5459  -22.2354  -56.4011 H         1 UNK         0.0600 
    229 H229       -5.5206  -22.4431  -54.9870 H         1 UNK         0.0600 
    230 H230       -6.2725  -19.4378  -53.0173 H         1 UNK         0.3000 
    231 H231       -4.9828  -17.6731  -52.9507 H         1 UNK         0.0600 
    232 H232       -6.1534  -16.8586  -55.6588 H         1 UNK         0.0600 
    233 H233       -5.3760  -15.7989  -54.4906 H         1 UNK         0.0600 
    234 H234       -6.9076  -16.5583  -54.0930 H         1 UNK         0.0600 
    235 H235       -3.7915  -20.0780  -53.9304 H         1 UNK         0.3000 
    236 H236       -1.8357  -19.2534  -56.0046 H         1 UNK         0.0600 
    237 H237       -2.4762  -21.9913  -54.7740 H         1 UNK         0.0600 
    238 H238       -3.1154  -21.3911  -56.3017 H         1 UNK         0.0600 
    239 H239       -1.3933  -21.6877  -56.1273 H         1 UNK         0.0600 
    240 H240        0.3757  -19.5287  -55.6716 H         1 UNK         0.3000 
    241 H241        1.3689  -19.2544  -52.9323 H         1 UNK         0.0600 
    242 H242        0.7550  -22.0101  -54.8868 H         1 UNK         0.3800 
    243 H243        1.9105  -23.0569  -54.1080 H         1 UNK         0.3800 
    244 H244        3.0187  -19.1956  -55.5032 H         1 UNK         0.0800 
    245 H245        2.0988  -17.8166  -54.9873 H         1 UNK         0.0800 
    246 H246        4.1349  -16.1055  -52.3067 H         1 UNK         0.0800 
    247 H247        3.0728  -15.9220  -53.6813 H         1 UNK         0.0800 
@<TRIPOS>BOND
     1    1    2 1    
     2    1  127 1    
     3    1  128 1    
     4    1  129 1    
     5    2    3 2    
     6    2    4 am   BACKBONE|DICT|INTERRES
     7    4    5 1    
     8    4  130 1    
     9    5    6 1    
    10    5   65 1    
    11    5  131 1    
    12    6    7 1    
    13    6  132 1    
    14    6  133 1    
    15    7    8 1    
    16    8    9 1    
    17    8  134 1    
    18    8  135 1    
    19    9   10 ar   
    20    9   14 ar   
    21   10   11 ar   
    22   10  136 1    
    23   11   12 ar   
    24   11  126 1    
    25   12   13 ar   
    26   12  137 1    
    27   13   14 ar   
    28   13   15 1    
    29   14  138 1    
    30   15   16 1    
    31   15  139 1    
    32   15  140 1    
    33   16   17 1    
    34   17   18 1    
    35   17  141 1    
    36   17  142 1    
    37   18   19 1    
    38   18   67 1    
    39   18  143 1    
    40   19   20 am   BACKBONE|DICT|INTERRES
    41   19  144 1    
    42   20   21 2    
    43   20   22 1    
    44   22   23 1    
    45   22   24 1    
    46   22  145 1    
    47   23  146 1    
    48   23  147 1    
    49   23  148 1    
    50   24   25 am   BACKBONE|DICT|INTERRES
    51   24  149 1    
    52   25   26 2    
    53   25   27 1    
    54   27   28 1    
    55   27   29 1    
    56   27  150 1    
    57   28  151 1    
    58   28  152 1    
    59   28  153 1    
    60   29   30 am   BACKBONE|DICT|INTERRES
    61   29  154 1    
    62   30   31 2    
    63   30   32 1    
    64   32   33 1    
    65   32   34 1    
    66   32  155 1    
    67   33  156 1    
    68   33  157 1    
    69   33  158 1    
    70   34   35 am   BACKBONE|DICT|INTERRES
    71   34  159 1    
    72   35   36 2    
    73   35   37 1    
    74   37   38 1    
    75   37   39 1    
    76   37  160 1    
    77   38  161 1    
    78   38  162 1    
    79   38  163 1    
    80   39   40 am   BACKBONE|DICT|INTERRES
    81   39  164 1    
    82   40   41 2    
    83   40   42 1    
    84   42   43 1    
    85   42   44 1    
    86   42  165 1    
    87   43  166 1    
    88   43  167 1    
    89   43  168 1    
    90   44   45 am   BACKBONE|DICT|INTERRES
    91   44  169 1    
    92   45   46 2    
    93   45   47 1    
    94   47   48 1    
    95   47   49 1    
    96   47  170 1    
    97   48  171 1    
    98   48  172 1    
    99   48  173 1    
   100   49   50 am   BACKBONE|DICT|INTERRES
   101   49  174 1    
   102   50   51 2    
   103   50   52 1    
   104   52   53 1    
   105   52   54 1    
   106   52  175 1    
   107   53  176 1    
   108   53  177 1    
   109   53  178 1    
   110   54   55 am   BACKBONE|DICT|INTERRES
   111   54  179 1    
   112   55   56 2    
   113   55   57 1    
   114   57   58 1    
   115   57   59 1    
   116   57  180 1    
   117   58  181 1    
   118   58  182 1    
   119   58  183 1    
   120   59   60 am   BACKBONE|DICT|INTERRES
   121   59  184 1    
   122   60   61 2    
   123   60   62 1    
   124   62   63 1    
   125   62   64 1    
   126   62  185 1    
   127   63  186 1    
   128   63  187 1    
   129   63  188 1    
   130   64   65 am   BACKBONE|DICT|INTERRES
   131   64  189 1    
   132   65   66 2    
   133   67   68 2    
   134   67   69 am   BACKBONE|DICT|INTERRES
   135   69   70 1    
   136   69  190 1    
   137   70   71 1    
   138   70   72 1    
   139   70  191 1    
   140   71  192 1    
   141   71  193 1    
   142   71  194 1    
   143   72   73 2    
   144   72   74 am   BACKBONE|DICT|INTERRES
   145   74   75 1    
   146   74  195 1    
   147   75   76 1    
   148   75   77 1    
   149   75  196 1    
   150   76  197 1    
   151   76  198 1    
   152   76  199 1    
   153   77   78 2    
   154   77   79 am   BACKBONE|DICT|INTERRES
   155   79   80 1    
   156   79  200 1    
   157   80   81 1    
   158   80   82 1    
   159   80  201 1    
   160   81  202 1    
   161   81  203 1    
   162   81  204 1    
   163   82   83 2    
   164   82   84 am   BACKBONE|DICT|INTERRES
   165   84   85 1    
   166   84  205 1    
   167   85   86 1    
   168   85   87 1    
   169   85  206 1    
   170   86  207 1    
   171   86  208 1    
   172   86  209 1    
   173   87   88 2    
   174   87   89 am   BACKBONE|DICT|INTERRES
   175   89   90 1    
   176   89  210 1    
   177   90   91 1    
   178   90   92 1    
   179   90  211 1    
   180   91  212 1    
   181   91  213 1    
   182   91  214 1    
   183   92   93 2    
   184   92   94 am   BACKBONE|DICT|INTERRES
   185   94   95 1    
   186   94  215 1    
   187   95   96 1    
   188   95   97 1    
   189   95  216 1    
   190   96  217 1    
   191   96  218 1    
   192   96  219 1    
   193   97   98 2    
   194   97   99 am   BACKBONE|DICT|INTERRES
   195   99  100 1    
   196   99  220 1    
   197  100  101 1    
   198  100  102 1    
   199  100  221 1    
   200  101  222 1    
   201  101  223 1    
   202  101  224 1    
   203  102  103 2    
   204  102  104 am   BACKBONE|DICT|INTERRES
   205  104  105 1    
   206  104  225 1    
   207  105  106 1    
   208  105  107 1    
   209  105  226 1    
   210  106  227 1    
   211  106  228 1    
   212  106  229 1    
   213  107  108 2    
   214  107  109 am   BACKBONE|DICT|INTERRES
   215  109  110 1    
   216  109  230 1    
   217  110  111 1    
   218  110  112 1    
   219  110  231 1    
   220  111  232 1    
   221  111  233 1    
   222  111  234 1    
   223  112  113 2    
   224  112  114 am   BACKBONE|DICT|INTERRES
   225  114  115 1    
   226  114  235 1    
   227  115  116 1    
   228  115  117 1    
   229  115  236 1    
   230  116  237 1    
   231  116  238 1    
   232  116  239 1    
   233  117  118 2    
   234  117  119 am   BACKBONE|DICT|INTERRES
   235  119  120 1    
   236  119  240 1    
   237  120  121 1    
   238  120  124 1    
   239  120  241 1    
   240  121  122 am   BACKBONE|DICT|INTERRES
   241  121  123 2    
   242  122  242 1    
   243  122  243 1    
   244  124  125 1    
   245  124  244 1    
   246  124  245 1    
   247  125  126 1    
   248  126  246 1    
   249  126  247 1    
@<TRIPOS>SUBSTRUCTURE
     1 UNK         1 GROUP             0       ****    0 ROOT    
