@<TRIPOS>MOLECULE
3R540
247   249    1
SMALL
USER_CHARGES


@<TRIPOS>ATOM
      1 CA          2.6035  -13.7546  -52.2057 C.3       0 UNK        -0.1800 
      2 C           1.1462  -13.3040  -52.2553 C.2       0 UNK         0.5000 
      3 O           0.5678  -13.2708  -53.3385 O.2       0 UNK        -0.5000 
      4 N           0.5082  -12.9532  -51.1314 N.am      1 UNK        -0.5000 
      5 CA          1.0690  -12.8413  -49.7816 C.3       1 UNK         0.1400 
      6 C6          0.3001  -13.6896  -48.7332 C.3       23 UNK        -0.0398 
      7 S7         -0.0391  -15.4192  -49.1930 S.3       23 UNK        -0.2404 
      8 C8          1.6077  -16.1990  -49.1256 C.3       23 UNK        -0.0205 
      9 C9          1.6918  -17.4434  -50.0049 C.ar      23 UNK        -0.0193 
     10 C10         1.2489  -17.4016  -51.3321 C.ar      23 UNK        -0.1150 
     11 C11         1.3558  -18.5202  -52.1611 C.ar      23 UNK        -0.0193 
     12 C12         1.9442  -19.6857  -51.6570 C.ar      23 UNK        -0.1150 
     13 C13         2.3893  -19.7493  -50.3324 C.ar      23 UNK        -0.0193 
     14 C14         2.2521  -18.6263  -49.5084 C.ar      23 UNK        -0.1150 
     15 C15         3.0718  -21.0130  -49.8197 C.3       23 UNK        -0.0205 
     16 S16         1.9066  -22.3820  -49.5140 S.3       23 UNK        -0.2404 
     17 C17         1.1650  -21.8858  -47.9272 C.3       23 UNK        -0.0398 
     18 CA          0.4401  -23.0520  -47.2026 C.3       11 UNK         0.1400 
     19 N           0.4663  -22.8662  -45.7490 N.am      11 UNK        -0.5000 
     20 C           0.0599  -23.7516  -44.8297 C.2       10 UNK         0.5000 
     21 O          -0.3479  -24.8762  -45.1120 O.2       10 UNK        -0.5000 
     22 CA          0.0380  -23.2810  -43.3603 C.3       10 UNK         0.1400 
     23 CB          0.4085  -24.4051  -42.3703 C.3       10 UNK        -0.1800 
     24 N           0.8263  -22.0678  -43.1188 N.am      10 UNK        -0.5000 
     25 C           2.1596  -21.9253  -43.1715 C.2       9 UNK         0.5000 
     26 O           2.9417  -22.8454  -43.4104 O.2       9 UNK        -0.5000 
     27 CA          2.7178  -20.5041  -42.9604 C.3       9 UNK         0.1400 
     28 CB          3.3038  -19.9657  -44.2765 C.3       9 UNK        -0.1800 
     29 N           1.7165  -19.5526  -42.4741 N.am      9 UNK        -0.5000 
     30 C           1.2554  -19.4833  -41.2187 C.2       8 UNK         0.5000 
     31 O           1.6420  -20.2122  -40.3049 O.2       8 UNK        -0.5000 
     32 CA          0.1578  -18.4381  -40.9518 C.3       8 UNK         0.1400 
     33 CB          0.7710  -17.0419  -40.7611 C.3       8 UNK        -0.1800 
     34 N          -0.8384  -18.3856  -42.0240 N.am      8 UNK        -0.5000 
     35 C          -1.7880  -19.3080  -42.2338 C.2       7 UNK         0.5000 
     36 O          -1.9160  -20.3258  -41.5540 O.2       7 UNK        -0.5000 
     37 CA         -2.7399  -19.0602  -43.4192 C.3       7 UNK         0.1400 
     38 CB         -3.8626  -18.0886  -43.0265 C.3       7 UNK        -0.1800 
     39 N          -2.0331  -18.5375  -44.5876 N.am      7 UNK        -0.5000 
     40 C          -1.2354  -19.2829  -45.3651 C.2       6 UNK         0.5000 
     41 O          -1.0934  -20.4970  -45.2257 O.2       6 UNK        -0.5000 
     42 CA         -0.4464  -18.5659  -46.4764 C.3       6 UNK         0.1400 
     43 CB         -1.2290  -18.6430  -47.7957 C.3       6 UNK        -0.1800 
     44 N          -0.1301  -17.1702  -46.1622 N.am      6 UNK        -0.5000 
     45 C           0.5878  -16.7709  -45.1017 C.2       5 UNK         0.5000 
     46 O           1.1342  -17.5517  -44.3261 O.2       5 UNK        -0.5000 
     47 CA          0.6759  -15.2622  -44.8080 C.3       5 UNK         0.1400 
     48 CB          2.0628  -14.7227  -45.1898 C.3       5 UNK        -0.1800 
     49 N          -0.3548  -14.4338  -45.4394 N.am      5 UNK        -0.5000 
     50 C          -1.6828  -14.5541  -45.2964 C.2       4 UNK         0.5000 
     51 O          -2.2221  -15.4799  -44.6863 O.2       4 UNK        -0.5000 
     52 CA         -2.5332  -13.4568  -45.9773 C.3       4 UNK         0.1400 
     53 CB         -3.9553  -13.3572  -45.3885 C.3       4 UNK        -0.1800 
     54 N          -1.8837  -12.1330  -46.0076 N.am      4 UNK        -0.5000 
     55 C          -1.4955  -11.4028  -44.9487 C.2       3 UNK         0.5000 
     56 O          -1.5973  -11.7818  -43.7812 O.2       3 UNK        -0.5000 
     57 CA         -0.8532  -10.0398  -45.2640 C.3       3 UNK         0.1400 
     58 CB         -0.3577   -9.3005  -44.0026 C.3       3 UNK        -0.1800 
     59 N           0.2473  -10.2077  -46.2154 N.am      3 UNK        -0.5000 
     60 C           0.7367   -9.2386  -47.0009 C.2       2 UNK         0.5000 
     61 O           0.2762   -8.0973  -47.0491 O.2       2 UNK        -0.5000 
     62 CA          1.9482   -9.6035  -47.8829 C.3       2 UNK         0.1400 
     63 CB          3.2563   -9.4305  -47.0951 C.3       2 UNK        -0.1800 
     64 N           1.8884  -10.9649  -48.4248 N.am      2 UNK        -0.5000 
     65 C           1.0153  -11.3591  -49.3616 C.2       1 UNK         0.5000 
     66 O           0.1649  -10.6141  -49.8559 O.2       1 UNK        -0.5000 
     67 C          -1.0047  -23.2309  -47.7187 C.2       11 UNK         0.5000 
     68 O          -1.2530  -24.0588  -48.5987 O.2       11 UNK        -0.5000 
     69 N          -1.9425  -22.4701  -47.1355 N.am      12 UNK        -0.5000 
     70 CA         -3.3744  -22.5842  -47.3983 C.3       12 UNK         0.1400 
     71 CB         -4.1040  -21.3409  -46.8679 C.3       12 UNK        -0.1800 
     72 C          -3.9593  -23.8751  -46.8007 C.2       12 UNK         0.5000 
     73 O          -4.6823  -24.5897  -47.4933 O.2       12 UNK        -0.5000 
     74 N          -3.6019  -24.1641  -45.5413 N.am      13 UNK        -0.5000 
     75 CA         -4.0760  -25.3189  -44.7725 C.3       13 UNK         0.1400 
     76 CB         -3.6324  -25.1688  -43.3099 C.3       13 UNK        -0.1800 
     77 C          -3.6161  -26.6732  -45.3448 C.2       13 UNK         0.5000 
     78 O          -4.3918  -27.6291  -45.3414 O.2       13 UNK        -0.5000 
     79 N          -2.3792  -26.7216  -45.8571 N.am      14 UNK        -0.5000 
     80 CA         -1.7896  -27.8798  -46.5337 C.3       14 UNK         0.1400 
     81 CB         -0.2626  -27.7035  -46.5703 C.3       14 UNK        -0.1800 
     82 C          -2.3316  -28.1050  -47.9603 C.2       14 UNK         0.5000 
     83 O          -1.9944  -29.1186  -48.5730 O.2       14 UNK        -0.5000 
     84 N          -3.1296  -27.1546  -48.4716 N.am      15 UNK        -0.5000 
     85 CA         -3.7032  -27.1000  -49.8192 C.3       15 UNK         0.1400 
     86 CB         -4.6542  -28.2867  -50.0785 C.3       15 UNK        -0.1800 
     87 C          -2.6474  -26.9138  -50.9292 C.2       15 UNK         0.5000 
     88 O          -2.9098  -27.2489  -52.0851 O.2       15 UNK        -0.5000 
     89 N          -1.4823  -26.3575  -50.5679 N.am      16 UNK        -0.5000 
     90 CA         -0.4223  -25.9785  -51.4995 C.3       16 UNK         0.1400 
     91 CB          0.9129  -25.8740  -50.7463 C.3       16 UNK        -0.1800 
     92 C          -0.7840  -24.6629  -52.2072 C.2       16 UNK         0.5000 
     93 O          -0.7533  -24.6015  -53.4367 O.2       16 UNK        -0.5000 
     94 N          -1.1776  -23.6596  -51.4122 N.am      17 UNK        -0.5000 
     95 CA         -1.7768  -22.4158  -51.8917 C.3       17 UNK         0.1400 
     96 CB         -1.4172  -21.2674  -50.9354 C.3       17 UNK        -0.1800 
     97 C          -3.3033  -22.5458  -52.0048 C.2       17 UNK         0.5000 
     98 O          -3.8980  -21.9592  -52.9069 O.2       17 UNK        -0.5000 
     99 N          -3.9035  -23.2936  -51.0641 N.am      18 UNK        -0.5000 
    100 CA        -5.3397  -23.5581  -50.8815 C.3       18 UNK         0.1400 
    101 CB        -5.9172  -24.3069  -52.0987 C.3       18 UNK        -0.1800 
    102 C         -6.2010  -22.3337  -50.4958 C.2       18 UNK         0.5000 
    103 O         -7.3905  -22.5027  -50.2253 O.2       18 UNK        -0.5000 
    104 N         -5.6022  -21.1404  -50.4407 N.am      19 UNK        -0.5000 
    105 CA        -6.2178  -19.8590  -50.1218 C.3       19 UNK         0.1400 
    106 CB        -7.1660  -19.4250  -51.2579 C.3       19 UNK        -0.1800 
    107 C         -5.0988  -18.8250  -49.9338 C.2       19 UNK         0.5000 
    108 O         -3.9500  -19.0858  -50.3052 O.2       19 UNK        -0.5000 
    109 N         -5.4571  -17.6561  -49.3878 N.am      20 UNK        -0.5000 
    110 CA        -4.5832  -16.4859  -49.2992 C.3       20 UNK         0.1400 
    111 CB        -5.2887  -15.3790  -48.5019 C.3       20 UNK        -0.1800 
    112 C         -4.1837  -15.9846  -50.6988 C.2       20 UNK         0.5000 
    113 O         -5.0313  -15.9381  -51.5947 O.2       20 UNK        -0.5000 
    114 N         -2.8950  -15.6574  -50.8648 N.am      21 UNK        -0.5000 
    115 CA        -2.2562  -15.2059  -52.1080 C.3       21 UNK         0.1400 
    116 CB        -2.7767  -13.8061  -52.4972 C.3       21 UNK        -0.1800 
    117 C         -2.3516  -16.2215  -53.2681 C.2       21 UNK         0.5000 
    118 O         -2.2734  -15.8246  -54.4316 O.2       21 UNK        -0.5000 
    119 N         -2.5403  -17.5075  -52.9331 N.am      22 UNK        -0.5000 
    120 CA        -2.8620  -18.6001  -53.8665 C.3       22 UNK         0.1400 
    121 C         -4.2400  -18.4334  -54.5861 C.2       22 UNK         0.5000 
    122 N         -5.1649  -17.6257  -54.0759 N.am      22 UNK        -0.7600 
    123 O         -4.4944  -19.0602  -55.6111 O.2       22 UNK        -0.5000 
    124 C124       -1.6877  -18.9379  -54.8347 C.3       23 UNK        -0.0398 
    125 S125       -0.3130  -19.7859  -53.9864 S.3       23 UNK        -0.2404 
    126 C126        0.8637  -18.4496  -53.6038 C.3       23 UNK        -0.0205 
    127 H127        3.2426  -12.9643  -51.8123 H         1 UNK         0.0600 
    128 H128        2.7147  -14.6446  -51.5886 H         1 UNK         0.0600 
    129 H129        2.9603  -14.0015  -53.2058 H         1 UNK         0.0600 
    130 H130       -0.4283  -12.5845  -51.2131 H         1 UNK         0.3000 
    131 H131        2.1146  -13.1472  -49.7662 H         1 UNK         0.0600 
    132 H132       -0.6730  -13.2410  -48.5277 H         1 UNK         0.0800 
    133 H133        0.8455  -13.6889  -47.7911 H         1 UNK         0.0800 
    134 H134        1.8394  -16.4449  -48.0892 H         1 UNK         0.0800 
    135 H135        2.3724  -15.4963  -49.4522 H         1 UNK         0.0800 
    136 H136        0.8239  -16.4890  -51.7232 H         1 UNK         0.1150 
    137 H137        2.0511  -20.5504  -52.2969 H         1 UNK         0.1150 
    138 H138        2.6078  -18.6647  -48.4885 H         1 UNK         0.1150 
    139 H139        3.7996  -21.3423  -50.5626 H         1 UNK         0.0800 
    140 H140        3.6442  -20.8060  -48.9144 H         1 UNK         0.0800 
    141 H141        1.9773  -21.5126  -47.3015 H         1 UNK         0.0800 
    142 H142        0.5043  -21.0354  -48.0968 H         1 UNK         0.0800 
    143 H143        0.9765  -23.9816  -47.4049 H         1 UNK         0.0600 
    144 H144        0.6874  -21.9387  -45.4170 H         1 UNK         0.3000 
    145 H145       -0.9964  -22.9994  -43.1585 H         1 UNK         0.0600 
    146 H146        0.3735  -24.0498  -41.3404 H         1 UNK         0.0600 
    147 H147       -0.2849  -25.2427  -42.4465 H         1 UNK         0.0600 
    148 H148        1.4072  -24.8001  -42.5565 H         1 UNK         0.0600 
    149 H149        0.2849  -21.2360  -42.9280 H         1 UNK         0.3000 
    150 H150        3.5225  -20.5709  -42.2255 H         1 UNK         0.0600 
    151 H151        4.0940  -20.6172  -44.6520 H         1 UNK         0.0600 
    152 H152        3.7388  -18.9756  -44.1381 H         1 UNK         0.0600 
    153 H153        2.5430  -19.8896  -45.0542 H         1 UNK         0.0600 
    154 H154        1.3853  -18.8675  -43.1522 H         1 UNK         0.3000 
    155 H155       -0.3492  -18.7146  -40.0248 H         1 UNK         0.0600 
    156 H156        0.0059  -16.3053  -40.5154 H         1 UNK         0.0600 
    157 H157        1.2897  -16.7008  -41.6577 H         1 UNK         0.0600 
    158 H158        1.4946  -17.0428  -39.9449 H         1 UNK         0.0600 
    159 H159       -0.7783  -17.6048  -42.6602 H         1 UNK         0.3000 
    160 H160       -3.1985  -20.0149  -43.6856 H         1 UNK         0.0600 
    161 H161       -3.4714  -17.1078  -42.7534 H         1 UNK         0.0600 
    162 H162       -4.4262  -18.4676  -42.1730 H         1 UNK         0.0600 
    163 H163       -4.5672  -17.9501  -43.8467 H         1 UNK         0.0600 
    164 H164       -2.1016  -17.5387  -44.7556 H         1 UNK         0.3000 
    165 H165        0.4988  -19.0965  -46.6024 H         1 UNK         0.0600 
    166 H166       -2.1614  -18.0845  -47.7358 H         1 UNK         0.0600 
    167 H167       -0.6518  -18.2523  -48.6312 H         1 UNK         0.0600 
    168 H168       -1.4864  -19.6721  -48.0464 H         1 UNK         0.0600 
    169 H169       -0.5418  -16.4660  -46.7558 H         1 UNK         0.3000 
    170 H170        0.5557  -15.1467  -43.7290 H         1 UNK         0.0600 
    171 H171        2.8492  -15.2706  -44.6686 H         1 UNK         0.0600 
    172 H172        2.2568  -14.8176  -46.2578 H         1 UNK         0.0600 
    173 H173        2.1698  -13.6726  -44.9171 H         1 UNK         0.0600 
    174 H174       -0.0222  -13.6238  -45.9341 H         1 UNK         0.3000 
    175 H175       -2.6366  -13.7694  -47.0170 H         1 UNK         0.0600 
    176 H176       -4.5456  -12.6034  -45.9094 H         1 UNK         0.0600 
    177 H177       -4.4872  -14.3047  -45.4829 H         1 UNK         0.0600 
    178 H178       -3.9381  -13.0980  -44.3295 H         1 UNK         0.0600 
    179 H179       -1.7765  -11.7170  -46.9224 H         1 UNK         0.3000 
    180 H180       -1.6338   -9.4340  -45.7293 H         1 UNK         0.0600 
    181 H181        0.0200   -8.3070  -44.2439 H         1 UNK         0.0600 
    182 H182       -1.1655   -9.1680  -43.2819 H         1 UNK         0.0600 
    183 H183        0.4424   -9.8502  -43.5055 H         1 UNK         0.0600 
    184 H184        0.6962  -11.1106  -46.2257 H         1 UNK         0.3000 
    185 H185        1.9664   -8.9043  -48.7220 H         1 UNK         0.0600 
    186 H186        4.1253   -9.5995  -47.7314 H         1 UNK         0.0600 
    187 H187        3.3404   -8.4188  -46.6957 H         1 UNK         0.0600 
    188 H188        3.3162  -10.1211  -46.2531 H         1 UNK         0.0600 
    189 H189        2.5732  -11.6173  -48.0709 H         1 UNK         0.3000 
    190 H190       -1.6568  -21.8182  -46.4088 H         1 UNK         0.3000 
    191 H191       -3.5239  -22.6165  -48.4767 H         1 UNK         0.0600 
    192 H192       -5.1765  -21.4091  -47.0548 H         1 UNK         0.0600 
    193 H193       -3.7489  -20.4360  -47.3608 H         1 UNK         0.0600 
    194 H194       -3.9633  -21.2146  -45.7941 H         1 UNK         0.0600 
    195 H195       -2.9781  -23.5317  -45.0653 H         1 UNK         0.3000 
    196 H196       -5.1677  -25.3065  -44.7981 H         1 UNK         0.0600 
    197 H197       -4.0094  -25.9921  -42.7017 H         1 UNK         0.0600 
    198 H198       -4.0099  -24.2438  -42.8736 H         1 UNK         0.0600 
    199 H199       -2.5467  -25.1660  -43.2187 H         1 UNK         0.0600 
    200 H200       -1.7701  -25.9142  -45.7458 H         1 UNK         0.3000 
    201 H201       -2.0176  -28.7753  -45.9523 H         1 UNK         0.0600 
    202 H202        0.1465  -27.6017  -45.5649 H         1 UNK         0.0600 
    203 H203        0.0250  -26.8187  -47.1403 H         1 UNK         0.0600 
    204 H204        0.2241  -28.5640  -47.0309 H         1 UNK         0.0600 
    205 H205       -3.3592  -26.3682  -47.8768 H         1 UNK         0.3000 
    206 H206       -4.3110  -26.1978  -49.8382 H         1 UNK         0.0600 
    207 H207       -5.3823  -28.3910  -49.2741 H         1 UNK         0.0600 
    208 H208       -5.2138  -28.1429  -51.0035 H         1 UNK         0.0600 
    209 H209       -4.1145  -29.2295  -50.1690 H         1 UNK         0.0600 
    210 H210       -1.3660  -26.0614  -49.6075 H         1 UNK         0.3000 
    211 H211       -0.3197  -26.7559  -52.2599 H         1 UNK         0.0600 
    212 H212        0.8595  -25.1676  -49.9186 H         1 UNK         0.0600 
    213 H213        1.7122  -25.5429  -51.4104 H         1 UNK         0.0600 
    214 H214        1.2075  -26.8406  -50.3373 H         1 UNK         0.0600 
    215 H215       -1.1413  -23.7989  -50.4057 H         1 UNK         0.3000 
    216 H216       -1.3838  -22.1813  -52.8813 H         1 UNK         0.0600 
    217 H217       -1.8040  -20.3175  -51.3030 H         1 UNK         0.0600 
    218 H218       -0.3394  -21.1524  -50.8478 H         1 UNK         0.0600 
    219 H219       -1.8240  -21.4180  -49.9365 H         1 UNK         0.0600 
    220 H220       -3.3012  -23.7199  -50.3759 H         1 UNK         0.3000 
    221 H221       -5.4129  -24.2289  -50.0270 H         1 UNK         0.0600 
    222 H222       -5.9394  -23.6786  -52.9893 H         1 UNK         0.0600 
    223 H223       -5.3308  -25.1966  -52.3292 H         1 UNK         0.0600 
    224 H224       -6.9398  -24.6342  -51.9075 H         1 UNK         0.0600 
    225 H225       -4.6211  -21.0637  -50.6778 H         1 UNK         0.3000 
    226 H226       -6.7700  -19.9511  -49.1847 H         1 UNK         0.0600 
    227 H227       -7.5929  -18.4399  -51.0665 H         1 UNK         0.0600 
    228 H228       -6.6432  -19.3750  -52.2138 H         1 UNK         0.0600 
    229 H229       -8.0008  -20.1162  -51.3712 H         1 UNK         0.0600 
    230 H230       -6.4241  -17.5090  -49.1391 H         1 UNK         0.3000 
    231 H231       -3.6825  -16.7753  -48.7578 H         1 UNK         0.0600 
    232 H232       -4.6568  -14.4942  -48.4174 H         1 UNK         0.0600 
    233 H233       -5.5223  -15.7094  -47.4896 H         1 UNK         0.0600 
    234 H234       -6.2199  -15.0711  -48.9792 H         1 UNK         0.0600 
    235 H235       -2.2630  -15.7556  -50.0810 H         1 UNK         0.3000 
    236 H236       -1.1936  -15.1150  -51.8910 H         1 UNK         0.0600 
    237 H237       -3.8242  -13.8328  -52.7985 H         1 UNK         0.0600 
    238 H238       -2.6840  -13.1061  -51.6671 H         1 UNK         0.0600 
    239 H239       -2.2094  -13.3939  -53.3321 H         1 UNK         0.0600 
    240 H240       -2.6120  -17.7443  -51.9528 H         1 UNK         0.3000 
    241 H241       -3.0186  -19.4727  -53.2339 H         1 UNK         0.0600 
    242 H242       -6.0485  -17.5331  -54.5501 H         1 UNK         0.3800 
    243 H243       -4.9934  -17.0885  -53.2321 H         1 UNK         0.3800 
    244 H244       -1.3258  -18.0554  -55.3619 H         1 UNK         0.0800 
    245 H245       -2.0175  -19.6271  -55.6130 H         1 UNK         0.0800 
    246 H246        1.7186  -18.5257  -54.2766 H         1 UNK         0.0800 
    247 H247        0.4008  -17.4823  -53.8023 H         1 UNK         0.0800 
@<TRIPOS>BOND
     1    1    2 1    
     2    1  127 1    
     3    1  128 1    
     4    1  129 1    
     5    2    3 2    
     6    2    4 am   BACKBONE|DICT|INTERRES
     7    4    5 1    
     8    4  130 1    
     9    5    6 1    
    10    5   65 1    
    11    5  131 1    
    12    6    7 1    
    13    6  132 1    
    14    6  133 1    
    15    7    8 1    
    16    8    9 1    
    17    8  134 1    
    18    8  135 1    
    19    9   10 ar   
    20    9   14 ar   
    21   10   11 ar   
    22   10  136 1    
    23   11   12 ar   
    24   11  126 1    
    25   12   13 ar   
    26   12  137 1    
    27   13   14 ar   
    28   13   15 1    
    29   14  138 1    
    30   15   16 1    
    31   15  139 1    
    32   15  140 1    
    33   16   17 1    
    34   17   18 1    
    35   17  141 1    
    36   17  142 1    
    37   18   19 1    
    38   18   67 1    
    39   18  143 1    
    40   19   20 am   BACKBONE|DICT|INTERRES
    41   19  144 1    
    42   20   21 2    
    43   20   22 1    
    44   22   23 1    
    45   22   24 1    
    46   22  145 1    
    47   23  146 1    
    48   23  147 1    
    49   23  148 1    
    50   24   25 am   BACKBONE|DICT|INTERRES
    51   24  149 1    
    52   25   26 2    
    53   25   27 1    
    54   27   28 1    
    55   27   29 1    
    56   27  150 1    
    57   28  151 1    
    58   28  152 1    
    59   28  153 1    
    60   29   30 am   BACKBONE|DICT|INTERRES
    61   29  154 1    
    62   30   31 2    
    63   30   32 1    
    64   32   33 1    
    65   32   34 1    
    66   32  155 1    
    67   33  156 1    
    68   33  157 1    
    69   33  158 1    
    70   34   35 am   BACKBONE|DICT|INTERRES
    71   34  159 1    
    72   35   36 2    
    73   35   37 1    
    74   37   38 1    
    75   37   39 1    
    76   37  160 1    
    77   38  161 1    
    78   38  162 1    
    79   38  163 1    
    80   39   40 am   BACKBONE|DICT|INTERRES
    81   39  164 1    
    82   40   41 2    
    83   40   42 1    
    84   42   43 1    
    85   42   44 1    
    86   42  165 1    
    87   43  166 1    
    88   43  167 1    
    89   43  168 1    
    90   44   45 am   BACKBONE|DICT|INTERRES
    91   44  169 1    
    92   45   46 2    
    93   45   47 1    
    94   47   48 1    
    95   47   49 1    
    96   47  170 1    
    97   48  171 1    
    98   48  172 1    
    99   48  173 1    
   100   49   50 am   BACKBONE|DICT|INTERRES
   101   49  174 1    
   102   50   51 2    
   103   50   52 1    
   104   52   53 1    
   105   52   54 1    
   106   52  175 1    
   107   53  176 1    
   108   53  177 1    
   109   53  178 1    
   110   54   55 am   BACKBONE|DICT|INTERRES
   111   54  179 1    
   112   55   56 2    
   113   55   57 1    
   114   57   58 1    
   115   57   59 1    
   116   57  180 1    
   117   58  181 1    
   118   58  182 1    
   119   58  183 1    
   120   59   60 am   BACKBONE|DICT|INTERRES
   121   59  184 1    
   122   60   61 2    
   123   60   62 1    
   124   62   63 1    
   125   62   64 1    
   126   62  185 1    
   127   63  186 1    
   128   63  187 1    
   129   63  188 1    
   130   64   65 am   BACKBONE|DICT|INTERRES
   131   64  189 1    
   132   65   66 2    
   133   67   68 2    
   134   67   69 am   BACKBONE|DICT|INTERRES
   135   69   70 1    
   136   69  190 1    
   137   70   71 1    
   138   70   72 1    
   139   70  191 1    
   140   71  192 1    
   141   71  193 1    
   142   71  194 1    
   143   72   73 2    
   144   72   74 am   BACKBONE|DICT|INTERRES
   145   74   75 1    
   146   74  195 1    
   147   75   76 1    
   148   75   77 1    
   149   75  196 1    
   150   76  197 1    
   151   76  198 1    
   152   76  199 1    
   153   77   78 2    
   154   77   79 am   BACKBONE|DICT|INTERRES
   155   79   80 1    
   156   79  200 1    
   157   80   81 1    
   158   80   82 1    
   159   80  201 1    
   160   81  202 1    
   161   81  203 1    
   162   81  204 1    
   163   82   83 2    
   164   82   84 am   BACKBONE|DICT|INTERRES
   165   84   85 1    
   166   84  205 1    
   167   85   86 1    
   168   85   87 1    
   169   85  206 1    
   170   86  207 1    
   171   86  208 1    
   172   86  209 1    
   173   87   88 2    
   174   87   89 am   BACKBONE|DICT|INTERRES
   175   89   90 1    
   176   89  210 1    
   177   90   91 1    
   178   90   92 1    
   179   90  211 1    
   180   91  212 1    
   181   91  213 1    
   182   91  214 1    
   183   92   93 2    
   184   92   94 am   BACKBONE|DICT|INTERRES
   185   94   95 1    
   186   94  215 1    
   187   95   96 1    
   188   95   97 1    
   189   95  216 1    
   190   96  217 1    
   191   96  218 1    
   192   96  219 1    
   193   97   98 2    
   194   97   99 am   BACKBONE|DICT|INTERRES
   195   99  100 1    
   196   99  220 1    
   197  100  101 1    
   198  100  102 1    
   199  100  221 1    
   200  101  222 1    
   201  101  223 1    
   202  101  224 1    
   203  102  103 2    
   204  102  104 am   BACKBONE|DICT|INTERRES
   205  104  105 1    
   206  104  225 1    
   207  105  106 1    
   208  105  107 1    
   209  105  226 1    
   210  106  227 1    
   211  106  228 1    
   212  106  229 1    
   213  107  108 2    
   214  107  109 am   BACKBONE|DICT|INTERRES
   215  109  110 1    
   216  109  230 1    
   217  110  111 1    
   218  110  112 1    
   219  110  231 1    
   220  111  232 1    
   221  111  233 1    
   222  111  234 1    
   223  112  113 2    
   224  112  114 am   BACKBONE|DICT|INTERRES
   225  114  115 1    
   226  114  235 1    
   227  115  116 1    
   228  115  117 1    
   229  115  236 1    
   230  116  237 1    
   231  116  238 1    
   232  116  239 1    
   233  117  118 2    
   234  117  119 am   BACKBONE|DICT|INTERRES
   235  119  120 1    
   236  119  240 1    
   237  120  121 1    
   238  120  124 1    
   239  120  241 1    
   240  121  122 am   BACKBONE|DICT|INTERRES
   241  121  123 2    
   242  122  242 1    
   243  122  243 1    
   244  124  125 1    
   245  124  244 1    
   246  124  245 1    
   247  125  126 1    
   248  126  246 1    
   249  126  247 1    
@<TRIPOS>SUBSTRUCTURE
     1 UNK         1 GROUP             0       ****    0 ROOT    
