@<TRIPOS>MOLECULE
3R540
247   249    1
SMALL
USER_CHARGES


@<TRIPOS>ATOM
      1 CA         -0.5112   -8.7240  -49.2554 C.3       0 UNK        -0.1800 
      2 C           0.6078   -9.5585  -48.6502 C.2       0 UNK         0.5000 
      3 O           1.5308   -9.0049  -48.0534 O.2       0 UNK        -0.5000 
      4 N           0.5210  -10.8894  -48.7858 N.am      1 UNK        -0.5000 
      5 CA          1.5171  -11.8722  -48.3252 C.3       1 UNK         0.1400 
      6 C6          1.1551  -13.3177  -48.7502 C.3       23 UNK        -0.0398 
      7 S7          0.9088  -13.4809  -50.5548 S.3       23 UNK        -0.2404 
      8 C8         -0.8873  -13.7688  -50.6747 C.3       23 UNK        -0.0205 
      9 C9         -1.2268  -15.2526  -50.6630 C.ar      23 UNK        -0.0193 
     10 C10        -1.4532  -15.9297  -51.8659 C.ar      23 UNK        -0.1150 
     11 C11        -1.7755  -17.2905  -51.8688 C.ar      23 UNK        -0.0193 
     12 C12        -1.8609  -17.9764  -50.6545 C.ar      23 UNK        -0.1150 
     13 C13        -1.6363  -17.3123  -49.4457 C.ar      23 UNK        -0.0193 
     14 C14        -1.3294  -15.9488  -49.4550 C.ar      23 UNK        -0.1150 
     15 C15        -1.7162  -18.0694  -48.1309 C.3       23 UNK        -0.0205 
     16 S16        -0.0665  -18.6301  -47.6165 S.3       23 UNK        -0.2404 
     17 C17        -0.4712  -19.5974  -46.1262 C.3       23 UNK        -0.0398 
     18 CA         -0.3849  -21.1211  -46.3802 C.3       11 UNK         0.1400 
     19 N          -0.0524  -21.8611  -45.1651 N.am      11 UNK        -0.5000 
     20 C           0.3009  -23.1515  -45.1216 C.2       10 UNK         0.5000 
     21 O           0.4038  -23.8683  -46.1159 O.2       10 UNK        -0.5000 
     22 CA          0.5390  -23.7481  -43.7259 C.3       10 UNK         0.1400 
     23 CB          1.9544  -23.4228  -43.2255 C.3       10 UNK        -0.1800 
     24 N          -0.4461  -23.2674  -42.7580 N.am      10 UNK        -0.5000 
     25 C          -1.7333  -23.6372  -42.7464 C.2       9 UNK         0.5000 
     26 O          -2.2210  -24.4446  -43.5389 O.2       9 UNK        -0.5000 
     27 CA         -2.6296  -22.9649  -41.6897 C.3       9 UNK         0.1400 
     28 CB         -2.4588  -23.6419  -40.3215 C.3       9 UNK        -0.1800 
     29 N          -2.3854  -21.5258  -41.5553 N.am      9 UNK        -0.5000 
     30 C          -2.6479  -20.6308  -42.5167 C.2       8 UNK         0.5000 
     31 O          -3.0764  -20.9302  -43.6303 O.2       8 UNK        -0.5000 
     32 CA         -2.3627  -19.1520  -42.1992 C.3       8 UNK         0.1400 
     33 CB         -3.4066  -18.5945  -41.2190 C.3       8 UNK        -0.1800 
     34 N          -1.0173  -18.8278  -41.7105 N.am      8 UNK        -0.5000 
     35 C           0.1501  -19.3013  -42.1720 C.2       7 UNK         0.5000 
     36 O           0.2623  -20.3104  -42.8670 O.2       7 UNK        -0.5000 
     37 CA          1.4004  -18.4533  -41.8471 C.3       7 UNK         0.1400 
     38 CB          2.6269  -18.8700  -42.6850 C.3       7 UNK        -0.1800 
     39 N           1.1831  -17.0041  -41.9855 N.am      7 UNK        -0.5000 
     40 C           0.6425  -16.3503  -43.0298 C.2       6 UNK         0.5000 
     41 O           0.1795  -16.8906  -44.0337 O.2       6 UNK        -0.5000 
     42 CA          0.6427  -14.8156  -42.9363 C.3       6 UNK         0.1400 
     43 CB         -0.3515  -14.3155  -41.8761 C.3       6 UNK        -0.1800 
     44 N           1.9793  -14.2894  -42.6523 N.am      6 UNK        -0.5000 
     45 C           2.9786  -14.2881  -43.5438 C.2       5 UNK         0.5000 
     46 O           2.8691  -14.7077  -44.6973 O.2       5 UNK        -0.5000 
     47 CA          4.3252  -13.7250  -43.0785 C.3       5 UNK         0.1400 
     48 CB          5.3406  -14.8685  -42.8804 C.3       5 UNK        -0.1800 
     49 N           4.7837  -12.7696  -44.0831 N.am      5 UNK        -0.5000 
     50 C           5.8323  -11.9458  -43.9670 C.2       4 UNK         0.5000 
     51 O           6.5764  -11.9087  -42.9863 O.2       4 UNK        -0.5000 
     52 CA          6.0585  -10.9643  -45.1274 C.3       4 UNK         0.1400 
     53 CB          6.3516  -11.6964  -46.4482 C.3       4 UNK        -0.1800 
     54 N           4.8826  -10.1116  -45.2805 N.am      4 UNK        -0.5000 
     55 C           4.6972   -8.9554  -44.6263 C.2       3 UNK         0.5000 
     56 O           5.5572   -8.4208  -43.9251 O.2       3 UNK        -0.5000 
     57 CA          3.3154   -8.2833  -44.7593 C.3       3 UNK         0.1400 
     58 CB          3.3346   -7.2302  -45.8771 C.3       3 UNK        -0.1800 
     59 N           2.2371   -9.2412  -45.0117 N.am      3 UNK        -0.5000 
     60 C           1.8037  -10.1425  -44.1162 C.2       2 UNK         0.5000 
     61 O           2.2045  -10.1915  -42.9530 O.2       2 UNK        -0.5000 
     62 CA          0.7757  -11.1889  -44.5925 C.3       2 UNK         0.1400 
     63 CB         -0.6356  -10.8229  -44.1105 C.3       2 UNK        -0.1800 
     64 N           0.7439  -11.4017  -46.0403 N.am      2 UNK        -0.5000 
     65 C           1.7698  -11.8108  -46.8023 C.2       1 UNK         0.5000 
     66 O           2.8882  -12.0725  -46.3570 O.2       1 UNK        -0.5000 
     67 C          -1.6553  -21.6751  -47.0547 C.2       11 UNK         0.5000 
     68 O          -1.6587  -21.8543  -48.2708 O.2       11 UNK        -0.5000 
     69 N          -2.6887  -21.9937  -46.2599 N.am      12 UNK        -0.5000 
     70 CA         -3.9143  -22.6454  -46.7241 C.3       12 UNK         0.1400 
     71 CB         -4.9413  -22.7122  -45.5852 C.3       12 UNK        -0.1800 
     72 C          -3.6570  -24.0470  -47.3015 C.2       12 UNK         0.5000 
     73 O          -4.2182  -24.3769  -48.3468 O.2       12 UNK        -0.5000 
     74 N          -2.7909  -24.8289  -46.6409 N.am      13 UNK        -0.5000 
     75 CA         -2.3499  -26.1438  -47.1079 C.3       13 UNK         0.1400 
     76 CB         -1.5367  -26.8447  -46.0095 C.3       13 UNK        -0.1800 
     77 C          -1.5571  -26.0591  -48.4254 C.2       13 UNK         0.5000 
     78 O          -1.8591  -26.8013  -49.3608 O.2       13 UNK        -0.5000 
     79 N          -0.6051  -25.1166  -48.4986 N.am      14 UNK        -0.5000 
     80 CA          0.1868  -24.8088  -49.6942 C.3       14 UNK         0.1400 
     81 CB          1.2674  -23.7759  -49.3412 C.3       14 UNK        -0.1800 
     82 C          -0.6662  -24.3138  -50.8782 C.2       14 UNK         0.5000 
     83 O          -0.3466  -24.6182  -52.0259 O.2       14 UNK        -0.5000 
     84 N          -1.7592  -23.6038  -50.5722 N.am      15 UNK        -0.5000 
     85 CA         -2.7775  -23.1395  -51.5123 C.3       15 UNK         0.1400 
     86 CB         -3.4981  -21.9304  -50.8977 C.3       15 UNK        -0.1800 
     87 C          -3.7866  -24.2265  -51.9402 C.2       15 UNK         0.5000 
     88 O          -4.7749  -23.8827  -52.5905 O.2       15 UNK        -0.5000 
     89 N          -3.5377  -25.4924  -51.5717 N.am      16 UNK        -0.5000 
     90 CA         -4.3300  -26.6889  -51.8681 C.3       16 UNK         0.1400 
     91 CB         -4.4133  -26.9457  -53.3870 C.3       16 UNK        -0.1800 
     92 C          -5.7051  -26.6563  -51.1769 C.2       16 UNK         0.5000 
     93 O          -6.7383  -26.7815  -51.8351 O.2       16 UNK        -0.5000 
     94 N          -5.6735  -26.4753  -49.8494 N.am      17 UNK        -0.5000 
     95 CA         -6.8183  -26.3451  -48.9415 C.3       17 UNK         0.1400 
     96 CB         -7.6839  -27.6231  -48.9300 C.3       17 UNK        -0.1800 
     97 C          -7.6172  -25.0571  -49.2186 C.2       17 UNK         0.5000 
     98 O          -8.8432  -25.0909  -49.3381 O.2       17 UNK        -0.5000 
     99 N          -6.8767  -23.9434  -49.3155 N.am      18 UNK        -0.5000 
    100 CA        -7.3484  -22.5757  -49.5517 C.3       18 UNK         0.1400 
    101 CB        -8.1739  -22.0678  -48.3513 C.3       18 UNK        -0.1800 
    102 C         -8.0690  -22.3911  -50.9056 C.2       18 UNK         0.5000 
    103 O         -8.9843  -21.5734  -51.0116 O.2       18 UNK        -0.5000 
    104 N         -7.6172  -23.1248  -51.9322 N.am      19 UNK        -0.5000 
    105 CA        -8.0904  -23.0133  -53.3159 C.3       19 UNK         0.1400 
    106 CB        -7.9171  -24.3748  -54.0081 C.3       19 UNK        -0.1800 
    107 C         -7.3654  -21.9008  -54.1044 C.2       19 UNK         0.5000 
    108 O         -7.6708  -21.6979  -55.2799 O.2       19 UNK        -0.5000 
    109 N         -6.4116  -21.2199  -53.4499 N.am      20 UNK        -0.5000 
    110 CA        -5.5248  -20.1686  -53.9615 C.3       20 UNK         0.1400 
    111 CB        -6.3217  -18.9612  -54.4971 C.3       20 UNK        -0.1800 
    112 C         -4.4738  -20.6845  -54.9666 C.2       20 UNK         0.5000 
    113 O         -3.8699  -19.8852  -55.6824 O.2       20 UNK        -0.5000 
    114 N         -4.2263  -22.0010  -54.9771 N.am      21 UNK        -0.5000 
    115 CA        -3.2792  -22.6790  -55.8640 C.3       21 UNK         0.1400 
    116 CB        -3.8093  -24.0955  -56.1462 C.3       21 UNK        -0.1800 
    117 C         -1.8516  -22.6860  -55.2767 C.2       21 UNK         0.5000 
    118 O         -1.1946  -23.7271  -55.2643 O.2       21 UNK        -0.5000 
    119 N         -1.4072  -21.5292  -54.7697 N.am      22 UNK        -0.5000 
    120 CA        -0.1081  -21.3351  -54.1026 C.3       22 UNK         0.1400 
    121 C          1.1343  -21.3272  -55.0440 C.2       22 UNK         0.5000 
    122 N          0.9753  -21.2907  -56.3616 N.am      22 UNK        -0.7600 
    123 O          2.2657  -21.3680  -54.5682 O.2       22 UNK        -0.5000 
    124 C124       -0.1304  -20.1057  -53.1547 C.3       23 UNK        -0.0398 
    125 S125       -0.5150  -18.5319  -54.0060 S.3       23 UNK        -0.2404 
    126 C126       -2.0505  -18.0075  -53.1827 C.3       23 UNK        -0.0205 
    127 H127       -1.2614   -9.3451  -49.7455 H         1 UNK         0.0600 
    128 H128       -0.1051   -8.0338  -49.9948 H         1 UNK         0.0600 
    129 H129       -1.0058   -8.1410  -48.4786 H         1 UNK         0.0600 
    130 H130       -0.2559  -11.2750  -49.3020 H         1 UNK         0.3000 
    131 H131        2.4615  -11.6099  -48.8068 H         1 UNK         0.0600 
    132 H132        0.2648  -13.6577  -48.2207 H         1 UNK         0.0800 
    133 H133        1.9537  -14.0053  -48.4649 H         1 UNK         0.0800 
    134 H134       -1.4145  -13.2555  -49.8695 H         1 UNK         0.0800 
    135 H135       -1.2463  -13.3163  -51.6005 H         1 UNK         0.0800 
    136 H136       -1.3801  -15.3976  -52.8042 H         1 UNK         0.1150 
    137 H137       -2.0999  -19.0284  -50.6468 H         1 UNK         0.1150 
    138 H138       -1.1597  -15.4370  -48.5191 H         1 UNK         0.1150 
    139 H139       -2.1432  -17.4310  -47.3559 H         1 UNK         0.0800 
    140 H140       -2.3818  -18.9282  -48.2313 H         1 UNK         0.0800 
    141 H141       -1.4384  -19.3034  -45.7141 H         1 UNK         0.0800 
    142 H142        0.2658  -19.3068  -45.3768 H         1 UNK         0.0800 
    143 H143        0.4443  -21.2997  -47.0683 H         1 UNK         0.0600 
    144 H144       -0.0727  -21.3371  -44.2914 H         1 UNK         0.3000 
    145 H145        0.4465  -24.8335  -43.8042 H         1 UNK         0.0600 
    146 H146        2.1476  -23.8895  -42.2595 H         1 UNK         0.0600 
    147 H147        2.7077  -23.7928  -43.9221 H         1 UNK         0.0600 
    148 H148        2.1086  -22.3488  -43.1159 H         1 UNK         0.0600 
    149 H149       -0.1482  -22.5297  -42.1349 H         1 UNK         0.3000 
    150 H150       -3.6662  -23.1005  -42.0060 H         1 UNK         0.0600 
    151 H151       -2.6498  -24.7138  -40.3900 H         1 UNK         0.0600 
    152 H152       -3.1574  -23.2348  -39.5904 H         1 UNK         0.0600 
    153 H153       -1.4491  -23.5127  -39.9298 H         1 UNK         0.0600 
    154 H154       -2.0085  -21.2000  -40.6773 H         1 UNK         0.3000 
    155 H155       -2.4757  -18.6088  -43.1396 H         1 UNK         0.0600 
    156 H156       -3.2947  -19.0252  -40.2233 H         1 UNK         0.0600 
    157 H157       -3.3225  -17.5114  -41.1268 H         1 UNK         0.0600 
    158 H158       -4.4203  -18.8110  -41.5592 H         1 UNK         0.0600 
    159 H159       -0.9651  -18.0058  -41.1272 H         1 UNK         0.3000 
    160 H160        1.6333  -18.6397  -40.7979 H         1 UNK         0.0600 
    161 H161        2.4458  -18.7405  -43.7528 H         1 UNK         0.0600 
    162 H162        2.8809  -19.9175  -42.5186 H         1 UNK         0.0600 
    163 H163        3.5040  -18.2789  -42.4213 H         1 UNK         0.0600 
    164 H164        1.5214  -16.4454  -41.2152 H         1 UNK         0.3000 
    165 H165        0.3165  -14.4287  -43.9044 H         1 UNK         0.0600 
    166 H166       -0.4173  -13.2273  -41.8833 H         1 UNK         0.0600 
    167 H167       -1.3534  -14.7013  -42.0691 H         1 UNK         0.0600 
    168 H168       -0.0677  -14.6263  -40.8701 H         1 UNK         0.0600 
    169 H169        2.1414  -13.9286  -41.7231 H         1 UNK         0.3000 
    170 H170        4.1870  -13.1951  -42.1339 H         1 UNK         0.0600 
    171 H171        5.5658  -15.3708  -43.8220 H         1 UNK         0.0600 
    172 H172        6.2793  -14.5082  -42.4607 H         1 UNK         0.0600 
    173 H173        4.9512  -15.6205  -42.1928 H         1 UNK         0.0600 
    174 H174        4.2041  -12.7231  -44.9178 H         1 UNK         0.3000 
    175 H175        6.9318  -10.3529  -44.8898 H         1 UNK         0.0600 
    176 H176        6.5589  -10.9875  -47.2499 H         1 UNK         0.0600 
    177 H177        5.5196  -12.3241  -46.7678 H         1 UNK         0.0600 
    178 H178        7.2268  -12.3395  -46.3488 H         1 UNK         0.0600 
    179 H179        4.1046  -10.5128  -45.7914 H         1 UNK         0.3000 
    180 H180        3.1020   -7.7741  -43.8172 H         1 UNK         0.0600 
    181 H181        3.5776   -7.6742  -46.8432 H         1 UNK         0.0600 
    182 H182        4.0802   -6.4605  -45.6742 H         1 UNK         0.0600 
    183 H183        2.3691   -6.7325  -45.9695 H         1 UNK         0.0600 
    184 H184        1.8680   -9.2650  -45.9561 H         1 UNK         0.3000 
    185 H185        1.0542  -12.1354  -44.1328 H         1 UNK         0.0600 
    186 H186       -1.3506  -11.6110  -44.3477 H         1 UNK         0.0600 
    187 H187       -0.6563  -10.6841  -43.0286 H         1 UNK         0.0600 
    188 H188       -0.9884   -9.8975  -44.5675 H         1 UNK         0.0600 
    189 H189       -0.1238  -11.1778  -46.5051 H         1 UNK         0.3000 
    190 H190       -2.6435  -21.7714  -45.2685 H         1 UNK         0.3000 
    191 H191       -4.3362  -22.0317  -47.5223 H         1 UNK         0.0600 
    192 H192       -5.2233  -21.7135  -45.2518 H         1 UNK         0.0600 
    193 H193       -5.8531  -23.2166  -45.9077 H         1 UNK         0.0600 
    194 H194       -4.5519  -23.2549  -44.7230 H         1 UNK         0.0600 
    195 H195       -2.3930  -24.4951  -45.7713 H         1 UNK         0.3000 
    196 H196       -3.2422  -26.7443  -47.2971 H         1 UNK         0.0600 
    197 H197       -1.2312  -27.8421  -46.3277 H         1 UNK         0.0600 
    198 H198       -2.1242  -26.9592  -45.0983 H         1 UNK         0.0600 
    199 H199       -0.6333  -26.2912  -45.7550 H         1 UNK         0.0600 
    200 H200       -0.3941  -24.5711  -47.6660 H         1 UNK         0.3000 
    201 H201        0.6833  -25.7294  -50.0074 H         1 UNK         0.0600 
    202 H202        1.9202  -24.1425  -48.5489 H         1 UNK         0.0600 
    203 H203        0.8295  -22.8356  -49.0058 H         1 UNK         0.0600 
    204 H204        1.8953  -23.5558  -50.2054 H         1 UNK         0.0600 
    205 H205       -1.8940  -23.3315  -49.6035 H         1 UNK         0.3000 
    206 H206       -2.2745  -22.8021  -52.4172 H         1 UNK         0.0600 
    207 H207       -2.7880  -21.1497  -50.6331 H         1 UNK         0.0600 
    208 H208       -4.2122  -21.4942  -51.5928 H         1 UNK         0.0600 
    209 H209       -4.0403  -22.2052  -49.9940 H         1 UNK         0.0600 
    210 H210       -2.7228  -25.6583  -50.9936 H         1 UNK         0.3000 
    211 H211       -3.7858  -27.5266  -51.4295 H         1 UNK         0.0600 
    212 H212       -5.0255  -26.2004  -53.8934 H         1 UNK         0.0600 
    213 H213       -4.8594  -27.9198  -53.5900 H         1 UNK         0.0600 
    214 H214       -3.4242  -26.9381  -53.8449 H         1 UNK         0.0600 
    215 H215       -4.7731  -26.2881  -49.4265 H         1 UNK         0.3000 
    216 H216       -6.3991  -26.2313  -47.9406 H         1 UNK         0.0600 
    217 H217       -8.4473  -27.5663  -48.1533 H         1 UNK         0.0600 
    218 H218       -7.0792  -28.5067  -48.7264 H         1 UNK         0.0600 
    219 H219       -8.1985  -27.7791  -49.8783 H         1 UNK         0.0600 
    220 H220       -5.8749  -24.0490  -49.1733 H         1 UNK         0.3000 
    221 H221       -6.4526  -21.9567  -49.6084 H         1 UNK         0.0600 
    222 H222       -9.1209  -22.5997  -48.2565 H         1 UNK         0.0600 
    223 H223       -7.6263  -22.1881  -47.4168 H         1 UNK         0.0600 
    224 H224       -8.4044  -21.0068  -48.4545 H         1 UNK         0.0600 
    225 H225       -6.8417  -23.7596  -51.7838 H         1 UNK         0.3000 
    226 H226       -9.1548  -22.7703  -53.3143 H         1 UNK         0.0600 
    227 H227       -8.4369  -25.1629  -53.4630 H         1 UNK         0.0600 
    228 H228       -8.3248  -24.3572  -55.0194 H         1 UNK         0.0600 
    229 H229       -6.8673  -24.6574  -54.0835 H         1 UNK         0.0600 
    230 H230       -6.2403  -21.5086  -52.4986 H         1 UNK         0.3000 
    231 H231       -4.9601  -19.8143  -53.0992 H         1 UNK         0.0600 
    232 H232       -6.8401  -19.1946  -55.4272 H         1 UNK         0.0600 
    233 H233       -5.6613  -18.1168  -54.6984 H         1 UNK         0.0600 
    234 H234       -7.0637  -18.6249  -53.7729 H         1 UNK         0.0600 
    235 H235       -4.7114  -22.5903  -54.3101 H         1 UNK         0.3000 
    236 H236       -3.2331  -22.1480  -56.8170 H         1 UNK         0.0600 
    237 H237       -4.8220  -24.0669  -56.5489 H         1 UNK         0.0600 
    238 H238       -3.1841  -24.6119  -56.8755 H         1 UNK         0.0600 
    239 H239       -3.8258  -24.7000  -55.2400 H         1 UNK         0.0600 
    240 H240       -1.9845  -20.7046  -54.8769 H         1 UNK         0.3000 
    241 H241        0.0419  -22.2069  -53.4628 H         1 UNK         0.0600 
    242 H242        1.7861  -21.2915  -56.9604 H         1 UNK         0.3800 
    243 H243        0.0536  -21.2522  -56.7652 H         1 UNK         0.3800 
    244 H244       -0.8579  -20.2800  -52.3618 H         1 UNK         0.0800 
    245 H245        0.8275  -19.9951  -52.6436 H         1 UNK         0.0800 
    246 H246       -2.5947  -17.3398  -53.8525 H         1 UNK         0.0800 
    247 H247       -2.7003  -18.8683  -53.0244 H         1 UNK         0.0800 
@<TRIPOS>BOND
     1    1    2 1    
     2    1  127 1    
     3    1  128 1    
     4    1  129 1    
     5    2    3 2    
     6    2    4 am   BACKBONE|DICT|INTERRES
     7    4    5 1    
     8    4  130 1    
     9    5    6 1    
    10    5   65 1    
    11    5  131 1    
    12    6    7 1    
    13    6  132 1    
    14    6  133 1    
    15    7    8 1    
    16    8    9 1    
    17    8  134 1    
    18    8  135 1    
    19    9   10 ar   
    20    9   14 ar   
    21   10   11 ar   
    22   10  136 1    
    23   11   12 ar   
    24   11  126 1    
    25   12   13 ar   
    26   12  137 1    
    27   13   14 ar   
    28   13   15 1    
    29   14  138 1    
    30   15   16 1    
    31   15  139 1    
    32   15  140 1    
    33   16   17 1    
    34   17   18 1    
    35   17  141 1    
    36   17  142 1    
    37   18   19 1    
    38   18   67 1    
    39   18  143 1    
    40   19   20 am   BACKBONE|DICT|INTERRES
    41   19  144 1    
    42   20   21 2    
    43   20   22 1    
    44   22   23 1    
    45   22   24 1    
    46   22  145 1    
    47   23  146 1    
    48   23  147 1    
    49   23  148 1    
    50   24   25 am   BACKBONE|DICT|INTERRES
    51   24  149 1    
    52   25   26 2    
    53   25   27 1    
    54   27   28 1    
    55   27   29 1    
    56   27  150 1    
    57   28  151 1    
    58   28  152 1    
    59   28  153 1    
    60   29   30 am   BACKBONE|DICT|INTERRES
    61   29  154 1    
    62   30   31 2    
    63   30   32 1    
    64   32   33 1    
    65   32   34 1    
    66   32  155 1    
    67   33  156 1    
    68   33  157 1    
    69   33  158 1    
    70   34   35 am   BACKBONE|DICT|INTERRES
    71   34  159 1    
    72   35   36 2    
    73   35   37 1    
    74   37   38 1    
    75   37   39 1    
    76   37  160 1    
    77   38  161 1    
    78   38  162 1    
    79   38  163 1    
    80   39   40 am   BACKBONE|DICT|INTERRES
    81   39  164 1    
    82   40   41 2    
    83   40   42 1    
    84   42   43 1    
    85   42   44 1    
    86   42  165 1    
    87   43  166 1    
    88   43  167 1    
    89   43  168 1    
    90   44   45 am   BACKBONE|DICT|INTERRES
    91   44  169 1    
    92   45   46 2    
    93   45   47 1    
    94   47   48 1    
    95   47   49 1    
    96   47  170 1    
    97   48  171 1    
    98   48  172 1    
    99   48  173 1    
   100   49   50 am   BACKBONE|DICT|INTERRES
   101   49  174 1    
   102   50   51 2    
   103   50   52 1    
   104   52   53 1    
   105   52   54 1    
   106   52  175 1    
   107   53  176 1    
   108   53  177 1    
   109   53  178 1    
   110   54   55 am   BACKBONE|DICT|INTERRES
   111   54  179 1    
   112   55   56 2    
   113   55   57 1    
   114   57   58 1    
   115   57   59 1    
   116   57  180 1    
   117   58  181 1    
   118   58  182 1    
   119   58  183 1    
   120   59   60 am   BACKBONE|DICT|INTERRES
   121   59  184 1    
   122   60   61 2    
   123   60   62 1    
   124   62   63 1    
   125   62   64 1    
   126   62  185 1    
   127   63  186 1    
   128   63  187 1    
   129   63  188 1    
   130   64   65 am   BACKBONE|DICT|INTERRES
   131   64  189 1    
   132   65   66 2    
   133   67   68 2    
   134   67   69 am   BACKBONE|DICT|INTERRES
   135   69   70 1    
   136   69  190 1    
   137   70   71 1    
   138   70   72 1    
   139   70  191 1    
   140   71  192 1    
   141   71  193 1    
   142   71  194 1    
   143   72   73 2    
   144   72   74 am   BACKBONE|DICT|INTERRES
   145   74   75 1    
   146   74  195 1    
   147   75   76 1    
   148   75   77 1    
   149   75  196 1    
   150   76  197 1    
   151   76  198 1    
   152   76  199 1    
   153   77   78 2    
   154   77   79 am   BACKBONE|DICT|INTERRES
   155   79   80 1    
   156   79  200 1    
   157   80   81 1    
   158   80   82 1    
   159   80  201 1    
   160   81  202 1    
   161   81  203 1    
   162   81  204 1    
   163   82   83 2    
   164   82   84 am   BACKBONE|DICT|INTERRES
   165   84   85 1    
   166   84  205 1    
   167   85   86 1    
   168   85   87 1    
   169   85  206 1    
   170   86  207 1    
   171   86  208 1    
   172   86  209 1    
   173   87   88 2    
   174   87   89 am   BACKBONE|DICT|INTERRES
   175   89   90 1    
   176   89  210 1    
   177   90   91 1    
   178   90   92 1    
   179   90  211 1    
   180   91  212 1    
   181   91  213 1    
   182   91  214 1    
   183   92   93 2    
   184   92   94 am   BACKBONE|DICT|INTERRES
   185   94   95 1    
   186   94  215 1    
   187   95   96 1    
   188   95   97 1    
   189   95  216 1    
   190   96  217 1    
   191   96  218 1    
   192   96  219 1    
   193   97   98 2    
   194   97   99 am   BACKBONE|DICT|INTERRES
   195   99  100 1    
   196   99  220 1    
   197  100  101 1    
   198  100  102 1    
   199  100  221 1    
   200  101  222 1    
   201  101  223 1    
   202  101  224 1    
   203  102  103 2    
   204  102  104 am   BACKBONE|DICT|INTERRES
   205  104  105 1    
   206  104  225 1    
   207  105  106 1    
   208  105  107 1    
   209  105  226 1    
   210  106  227 1    
   211  106  228 1    
   212  106  229 1    
   213  107  108 2    
   214  107  109 am   BACKBONE|DICT|INTERRES
   215  109  110 1    
   216  109  230 1    
   217  110  111 1    
   218  110  112 1    
   219  110  231 1    
   220  111  232 1    
   221  111  233 1    
   222  111  234 1    
   223  112  113 2    
   224  112  114 am   BACKBONE|DICT|INTERRES
   225  114  115 1    
   226  114  235 1    
   227  115  116 1    
   228  115  117 1    
   229  115  236 1    
   230  116  237 1    
   231  116  238 1    
   232  116  239 1    
   233  117  118 2    
   234  117  119 am   BACKBONE|DICT|INTERRES
   235  119  120 1    
   236  119  240 1    
   237  120  121 1    
   238  120  124 1    
   239  120  241 1    
   240  121  122 am   BACKBONE|DICT|INTERRES
   241  121  123 2    
   242  122  242 1    
   243  122  243 1    
   244  124  125 1    
   245  124  244 1    
   246  124  245 1    
   247  125  126 1    
   248  126  246 1    
   249  126  247 1    
@<TRIPOS>SUBSTRUCTURE
     1 UNK         1 GROUP             0       ****    0 ROOT    
