@<TRIPOS>MOLECULE
3R540
247   249    1
SMALL
USER_CHARGES


@<TRIPOS>ATOM
      1 CA          3.4710  -15.2473  -44.7574 C.3       0 UNK        -0.1800 
      2 C           2.2819  -14.4139  -45.2113 C.2       0 UNK         0.5000 
      3 O           1.9537  -13.4108  -44.5765 O.2       0 UNK        -0.5000 
      4 N           1.6412  -14.8034  -46.3218 N.am      1 UNK        -0.5000 
      5 CA          0.4429  -14.1583  -46.8799 C.3       1 UNK         0.1400 
      6 C6         -0.2057  -15.0010  -48.0009 C.3       23 UNK        -0.0398 
      7 S7         -0.9237  -16.5374  -47.3360 S.3       23 UNK        -0.2404 
      8 C8         -1.9649  -17.0586  -48.7336 C.3       23 UNK        -0.0205 
      9 C9         -1.1395  -17.6607  -49.8596 C.ar      23 UNK        -0.0193 
     10 C10        -0.9936  -16.9864  -51.0749 C.ar      23 UNK        -0.1150 
     11 C11        -0.2926  -17.5751  -52.1323 C.ar      23 UNK        -0.0193 
     12 C12         0.2992  -18.8288  -51.9517 C.ar      23 UNK        -0.1150 
     13 C13         0.1809  -19.5026  -50.7329 C.ar      23 UNK        -0.0193 
     14 C14        -0.5502  -18.9165  -49.6963 C.ar      23 UNK        -0.1150 
     15 C15         0.7632  -20.8990  -50.5756 C.3       23 UNK        -0.0205 
     16 S16         1.7162  -21.1385  -49.0427 S.3       23 UNK        -0.2404 
     17 C17         1.5597  -22.9550  -48.8629 C.3       23 UNK        -0.0398 
     18 CA          0.5985  -23.4108  -47.7386 C.3       11 UNK         0.1400 
     19 N           1.1165  -23.0275  -46.4221 N.am      11 UNK        -0.5000 
     20 C           0.6420  -23.4190  -45.2350 C.2       10 UNK         0.5000 
     21 O          -0.2984  -24.2040  -45.1160 O.2       10 UNK        -0.5000 
     22 CA          1.2575  -22.7749  -43.9777 C.3       10 UNK         0.1400 
     23 CB          2.4515  -23.5948  -43.4573 C.3       10 UNK        -0.1800 
     24 N           1.6035  -21.3534  -44.1282 N.am      10 UNK        -0.5000 
     25 C           2.5535  -20.7822  -44.8863 C.2       9 UNK         0.5000 
     26 O           3.2962  -21.4014  -45.6480 O.2       9 UNK        -0.5000 
     27 CA          2.6857  -19.2532  -44.7758 C.3       9 UNK         0.1400 
     28 CB          1.6140  -18.5643  -45.6354 C.3       9 UNK        -0.1800 
     29 N           2.5808  -18.7884  -43.3923 N.am      9 UNK        -0.5000 
     30 C           3.4505  -19.0899  -42.4156 C.2       8 UNK         0.5000 
     31 O           4.4929  -19.7210  -42.5937 O.2       8 UNK        -0.5000 
     32 CA          3.0819  -18.6309  -40.9949 C.3       8 UNK         0.1400 
     33 CB          3.5891  -17.2049  -40.7325 C.3       8 UNK        -0.1800 
     34 N           1.6367  -18.6933  -40.7718 N.am      8 UNK        -0.5000 
     35 C           0.9718  -19.8154  -40.4595 C.2       7 UNK         0.5000 
     36 O           1.5191  -20.8992  -40.2554 O.2       7 UNK        -0.5000 
     37 CA         -0.5644  -19.7206  -40.3694 C.3       7 UNK         0.1400 
     38 CB         -0.9994  -19.3998  -38.9316 C.3       7 UNK        -0.1800 
     39 N          -1.1375  -18.7239  -41.2753 N.am      7 UNK        -0.5000 
     40 C          -1.1536  -18.8298  -42.6110 C.2       6 UNK         0.5000 
     41 O          -0.7099  -19.8023  -43.2228 O.2       6 UNK        -0.5000 
     42 CA         -1.7103  -17.6206  -43.3915 C.3       6 UNK         0.1400 
     43 CB         -3.2330  -17.7382  -43.5554 C.3       6 UNK        -0.1800 
     44 N          -1.3991  -16.3221  -42.7817 N.am      6 UNK        -0.5000 
     45 C          -0.1695  -15.8740  -42.4990 C.2       5 UNK         0.5000 
     46 O           0.8549  -16.5184  -42.7282 O.2       5 UNK        -0.5000 
     47 CA         -0.0863  -14.4810  -41.8542 C.3       5 UNK         0.1400 
     48 CB          1.2934  -14.1917  -41.2375 C.3       5 UNK        -0.1800 
     49 N          -0.3787  -13.4562  -42.8494 N.am      5 UNK        -0.5000 
     50 C          -1.5884  -12.9368  -43.0938 C.2       4 UNK         0.5000 
     51 O          -2.6095  -13.3201  -42.5201 O.2       4 UNK        -0.5000 
     52 CA         -1.6806  -11.8246  -44.1643 C.3       4 UNK         0.1400 
     53 CB         -2.7908  -10.7979  -43.8590 C.3       4 UNK        -0.1800 
     54 N          -0.4047  -11.1506  -44.4396 N.am      4 UNK        -0.5000 
     55 C           0.3443  -10.4167  -43.5992 C.2       3 UNK         0.5000 
     56 O           0.0046  -10.1407  -42.4480 O.2       3 UNK        -0.5000 
     57 CA          1.7166   -9.9332  -44.1181 C.3       3 UNK         0.1400 
     58 CB          2.8282  -10.2265  -43.0951 C.3       3 UNK        -0.1800 
     59 N           2.0722  -10.5871  -45.3784 N.am      3 UNK        -0.5000 
     60 C           2.1114  -10.0049  -46.5848 C.2       2 UNK         0.5000 
     61 O           1.9318   -8.8010  -46.7708 O.2       2 UNK        -0.5000 
     62 CA          2.3645  -10.9294  -47.7972 C.3       2 UNK         0.1400 
     63 CB          3.8526  -10.9190  -48.1783 C.3       2 UNK        -0.1800 
     64 N           1.9409  -12.3156  -47.5721 N.am      2 UNK        -0.5000 
     65 C           0.6778  -12.7038  -47.3423 C.2       1 UNK         0.5000 
     66 O          -0.2836  -11.9381  -47.4057 O.2       1 UNK        -0.5000 
     67 C          -0.8626  -22.9466  -47.9715 C.2       11 UNK         0.5000 
     68 O          -1.5851  -23.5446  -48.7741 O.2       11 UNK        -0.5000 
     69 N          -1.2680  -21.9037  -47.2327 N.am      12 UNK        -0.5000 
     70 CA         -2.6308  -21.3925  -47.1385 C.3       12 UNK         0.1400 
     71 CB         -2.5993  -20.0556  -46.3864 C.3       12 UNK        -0.1800 
     72 C          -3.5762  -22.3718  -46.4194 C.2       12 UNK         0.5000 
     73 O          -4.7306  -22.5117  -46.8170 O.2       12 UNK        -0.5000 
     74 N          -3.0721  -23.0412  -45.3748 N.am      13 UNK        -0.5000 
     75 CA         -3.8143  -24.0498  -44.6204 C.3       13 UNK         0.1400 
     76 CB         -3.2095  -24.1802  -43.2137 C.3       13 UNK        -0.1800 
     77 C          -3.8216  -25.4073  -45.3440 C.2       13 UNK         0.5000 
     78 O          -4.8014  -26.1449  -45.2361 O.2       13 UNK        -0.5000 
     79 N          -2.7317  -25.7077  -46.0650 N.am      14 UNK        -0.5000 
     80 CA         -2.5243  -26.9593  -46.7906 C.3       14 UNK         0.1400 
     81 CB         -1.0771  -27.0194  -47.3026 C.3       14 UNK        -0.1800 
     82 C          -3.5124  -27.1745  -47.9513 C.2       14 UNK         0.5000 
     83 O          -4.0494  -28.2756  -48.0819 O.2       14 UNK        -0.5000 
     84 N          -3.7275  -26.1389  -48.7755 N.am      15 UNK        -0.5000 
     85 CA         -4.5464  -26.2253  -49.9869 C.3       15 UNK         0.1400 
     86 CB         -3.7819  -26.9804  -51.0969 C.3       15 UNK        -0.1800 
     87 C          -5.0228  -24.8356  -50.4372 C.2       15 UNK         0.5000 
     88 O          -4.8367  -24.4728  -51.6009 O.2       15 UNK        -0.5000 
     89 N          -5.5990  -24.0620  -49.5054 N.am      16 UNK        -0.5000 
     90 CA         -6.1897  -22.7172  -49.6552 C.3       16 UNK         0.1400 
     91 CB         -7.3500  -22.7259  -50.6695 C.3       16 UNK        -0.1800 
     92 C          -5.1825  -21.5949  -49.9856 C.2       16 UNK         0.5000 
     93 O          -5.2575  -20.5150  -49.4000 O.2       16 UNK        -0.5000 
     94 N          -4.2562  -21.8879  -50.8984 N.am      17 UNK        -0.5000 
     95 CA         -3.1337  -21.0848  -51.3611 C.3       17 UNK         0.1400 
     96 CB         -3.6095  -19.7632  -52.0011 C.3       17 UNK        -0.1800 
     97 C          -2.3353  -21.9612  -52.3397 C.2       17 UNK         0.5000 
     98 O          -2.2058  -21.6090  -53.5112 O.2       17 UNK        -0.5000 
     99 N          -1.8835  -23.1355  -51.8644 N.am      18 UNK        -0.5000 
    100 CA        -1.1322  -24.1601  -52.6143 C.3       18 UNK         0.1400 
    101 CB         0.3016  -23.6680  -52.9041 C.3       18 UNK        -0.1800 
    102 C         -1.8323  -24.6559  -53.9033 C.2       18 UNK         0.5000 
    103 O         -1.1568  -25.0265  -54.8646 O.2       18 UNK        -0.5000 
    104 N         -3.1727  -24.6094  -53.9166 N.am      19 UNK        -0.5000 
    105 CA        -4.0694  -24.8398  -55.0549 C.3       19 UNK         0.1400 
    106 CB        -3.9880  -26.3043  -55.5326 C.3       19 UNK        -0.1800 
    107 C         -3.9105  -23.8289  -56.2180 C.2       19 UNK         0.5000 
    108 O         -4.4876  -24.0481  -57.2844 O.2       19 UNK        -0.5000 
    109 N         -3.1674  -22.7313  -56.0057 N.am      20 UNK        -0.5000 
    110 CA        -2.9656  -21.6565  -56.9811 C.3       20 UNK         0.1400 
    111 CB        -1.6187  -20.9679  -56.7074 C.3       20 UNK        -0.1800 
    112 C         -4.1104  -20.6266  -56.9607 C.2       20 UNK         0.5000 
    113 O         -4.2785  -19.9001  -57.9408 O.2       20 UNK        -0.5000 
    114 N         -4.8759  -20.5976  -55.8575 N.am      21 UNK        -0.5000 
    115 CA        -6.0478  -19.7530  -55.6064 C.3       21 UNK         0.1400 
    116 CB        -7.2115  -20.1469  -56.5403 C.3       21 UNK        -0.1800 
    117 C         -5.7156  -18.2467  -55.6468 C.2       21 UNK         0.5000 
    118 O         -6.3543  -17.4841  -56.3746 O.2       21 UNK        -0.5000 
    119 N         -4.7094  -17.8532  -54.8550 N.am      22 UNK        -0.5000 
    120 CA        -4.2400  -16.4642  -54.6981 C.3       22 UNK         0.1400 
    121 C         -5.2827  -15.4714  -54.0995 C.2       22 UNK         0.5000 
    122 N         -6.3295  -15.9283  -53.4224 N.am      22 UNK        -0.7600 
    123 O         -5.1353  -14.2620  -54.2527 O.2       22 UNK        -0.5000 
    124 C124       -2.9318  -16.3946  -53.8709 C.3       23 UNK        -0.0398 
    125 S125       -1.5521  -17.3435  -54.5953 S.3       23 UNK        -0.2404 
    126 C126       -0.1899  -16.8719  -53.4782 C.3       23 UNK        -0.0205 
    127 H127        3.2432  -15.7393  -43.8126 H         1 UNK         0.0600 
    128 H128        3.7310  -16.0145  -45.4866 H         1 UNK         0.0600 
    129 H129        4.3417  -14.6090  -44.6091 H         1 UNK         0.0600 
    130 H130        1.9509  -15.6327  -46.8074 H         1 UNK         0.3000 
    131 H131       -0.2793  -14.0887  -46.0633 H         1 UNK         0.0600 
    132 H132        0.5195  -15.2463  -48.7787 H         1 UNK         0.0800 
    133 H133       -1.0077  -14.4430  -48.4884 H         1 UNK         0.0800 
    134 H134       -2.5560  -16.2134  -49.0893 H         1 UNK         0.0800 
    135 H135       -2.6861  -17.7996  -48.3878 H         1 UNK         0.0800 
    136 H136       -1.4506  -16.0163  -51.2086 H         1 UNK         0.1150 
    137 H137        0.8309  -19.2896  -52.7725 H         1 UNK         0.1150 
    138 H138       -0.6676  -19.4447  -48.7621 H         1 UNK         0.1150 
    139 H139       -0.0671  -21.6002  -50.5836 H         1 UNK         0.0800 
    140 H140        1.4005  -21.1507  -51.4244 H         1 UNK         0.0800 
    141 H141        2.5569  -23.3517  -48.6668 H         1 UNK         0.0800 
    142 H142        1.2605  -23.4059  -49.8075 H         1 UNK         0.0800 
    143 H143        0.5814  -24.5010  -47.7552 H         1 UNK         0.0600 
    144 H144        1.9123  -22.3938  -46.4163 H         1 UNK         0.3000 
    145 H145        0.4839  -22.8024  -43.2085 H         1 UNK         0.0600 
    146 H146        2.8477  -23.1681  -42.5356 H         1 UNK         0.0600 
    147 H147        2.1518  -24.6205  -43.2392 H         1 UNK         0.0600 
    148 H148        3.2641  -23.6411  -44.1827 H         1 UNK         0.0600 
    149 H149        0.9931  -20.7235  -43.6149 H         1 UNK         0.3000 
    150 H150        3.6690  -18.9647  -45.1526 H         1 UNK         0.0600 
    151 H151        1.7708  -18.7715  -46.6948 H         1 UNK         0.0600 
    152 H152        1.6346  -17.4842  -45.5054 H         1 UNK         0.0600 
    153 H153        0.6091  -18.9038  -45.3859 H         1 UNK         0.0600 
    154 H154        1.7911  -18.1924  -43.1660 H         1 UNK         0.3000 
    155 H155        3.5788  -19.2969  -40.2861 H         1 UNK         0.0600 
    156 H156        3.1845  -16.4920  -41.4497 H         1 UNK         0.0600 
    157 H157        4.6760  -17.1607  -40.8106 H         1 UNK         0.0600 
    158 H158        3.3205  -16.8665  -39.7317 H         1 UNK         0.0600 
    159 H159        1.1125  -17.8574  -40.9909 H         1 UNK         0.3000 
    160 H160       -0.9713  -20.6976  -40.6395 H         1 UNK         0.0600 
    161 H161       -2.0855  -19.4062  -38.8371 H         1 UNK         0.0600 
    162 H162       -0.6390  -18.4219  -38.6100 H         1 UNK         0.0600 
    163 H163       -0.6094  -20.1399  -38.2314 H         1 UNK         0.0600 
    164 H164       -1.5225  -17.8916  -40.8538 H         1 UNK         0.3000 
    165 H165       -1.2560  -17.6370  -44.3838 H         1 UNK         0.0600 
    166 H166       -3.5190  -18.7132  -43.9493 H         1 UNK         0.0600 
    167 H167       -3.7503  -17.6106  -42.6038 H         1 UNK         0.0600 
    168 H168       -3.6118  -16.9856  -44.2473 H         1 UNK         0.0600 
    169 H169       -2.1830  -15.7128  -42.5880 H         1 UNK         0.3000 
    170 H170       -0.8203  -14.4399  -41.0468 H         1 UNK         0.0600 
    171 H171        1.5297  -14.9152  -40.4569 H         1 UNK         0.0600 
    172 H172        1.3183  -13.2023  -40.7804 H         1 UNK         0.0600 
    173 H173        2.0907  -14.2328  -41.9800 H         1 UNK         0.0600 
    174 H174        0.4101  -13.1585  -43.4159 H         1 UNK         0.3000 
    175 H175       -1.9551  -12.3306  -45.0906 H         1 UNK         0.0600 
    176 H176       -2.8410  -10.0304  -44.6313 H         1 UNK         0.0600 
    177 H177       -3.7688  -11.2786  -43.8185 H         1 UNK         0.0600 
    178 H178       -2.6328  -10.3015  -42.9013 H         1 UNK         0.0600 
    179 H179       -0.0517  -11.2822  -45.3790 H         1 UNK         0.3000 
    180 H180        1.6476   -8.8520  -44.2512 H         1 UNK         0.0600 
    181 H181        2.9027  -11.2933  -42.8790 H         1 UNK         0.0600 
    182 H182        2.6432   -9.7115  -42.1517 H         1 UNK         0.0600 
    183 H183        3.7984   -9.8904  -43.4611 H         1 UNK         0.0600 
    184 H184        2.2148  -11.5906  -45.3120 H         1 UNK         0.3000 
    185 H185        1.7908  -10.5342  -48.6380 H         1 UNK         0.0600 
    186 H186        4.4752  -11.3242  -47.3796 H         1 UNK         0.0600 
    187 H187        4.0340  -11.5070  -49.0782 H         1 UNK         0.0600 
    188 H188        4.1971   -9.9038  -48.3802 H         1 UNK         0.0600 
    189 H189        2.6737  -13.0050  -47.4884 H         1 UNK         0.3000 
    190 H190       -0.5863  -21.4749  -46.6248 H         1 UNK         0.3000 
    191 H191       -2.9978  -21.2205  -48.1492 H         1 UNK         0.0600 
    192 H192       -1.8795  -19.3652  -46.8201 H         1 UNK         0.0600 
    193 H193       -2.3228  -20.1965  -45.3420 H         1 UNK         0.0600 
    194 H194       -3.5765  -19.5717  -46.4099 H         1 UNK         0.0600 
    195 H195       -2.0979  -22.9244  -45.1332 H         1 UNK         0.3000 
    196 H196       -4.8505  -23.7222  -44.5103 H         1 UNK         0.0600 
    197 H197       -3.7783  -24.8895  -42.6112 H         1 UNK         0.0600 
    198 H198       -3.2221  -23.2247  -42.6890 H         1 UNK         0.0600 
    199 H199       -2.1781  -24.5321  -43.2446 H         1 UNK         0.0600 
    200 H200       -1.9462  -25.0691  -46.0233 H         1 UNK         0.3000 
    201 H201       -2.6632  -27.7756  -46.0786 H         1 UNK         0.0600 
    202 H202       -0.3615  -26.8618  -46.4952 H         1 UNK         0.0600 
    203 H203       -0.8923  -26.2692  -48.0711 H         1 UNK         0.0600 
    204 H204       -0.8624  -27.9939  -47.7428 H         1 UNK         0.0600 
    205 H205       -3.2481  -25.2620  -48.6089 H         1 UNK         0.3000 
    206 H206       -5.4537  -26.7885  -49.7588 H         1 UNK         0.0600 
    207 H207       -3.5591  -28.0059  -50.8034 H         1 UNK         0.0600 
    208 H208       -4.3676  -27.0347  -52.0155 H         1 UNK         0.0600 
    209 H209       -2.8383  -26.4910  -51.3348 H         1 UNK         0.0600 
    210 H210       -5.6426  -24.4280  -48.5640 H         1 UNK         0.3000 
    211 H211       -6.6189  -22.4733  -48.6825 H         1 UNK         0.0600 
    212 H212       -7.0089  -22.9379  -51.6831 H         1 UNK         0.0600 
    213 H213       -7.8507  -21.7572  -50.6931 H         1 UNK         0.0600 
    214 H214       -8.0991  -23.4719  -50.4046 H         1 UNK         0.0600 
    215 H215       -4.3275  -22.8156  -51.3133 H         1 UNK         0.3000 
    216 H216       -2.4901  -20.8592  -50.5108 H         1 UNK         0.0600 
    217 H217       -2.7732  -19.2296  -52.4525 H         1 UNK         0.0600 
    218 H218       -4.0476  -19.0925  -51.2626 H         1 UNK         0.0600 
    219 H219       -4.3519  -19.9423  -52.7781 H         1 UNK         0.0600 
    220 H220       -2.0391  -23.3460  -50.8843 H         1 UNK         0.3000 
    221 H221       -1.0546  -25.0278  -51.9586 H         1 UNK         0.0600 
    222 H222        0.3052  -22.7882  -53.5485 H         1 UNK         0.0600 
    223 H223        0.8273  -23.4161  -51.9882 H         1 UNK         0.0600 
    224 H224        0.8946  -24.4384  -53.3984 H         1 UNK         0.0600 
    225 H225       -3.6480  -24.3556  -53.0549 H         1 UNK         0.3000 
    226 H226       -5.0762  -24.6822  -54.6656 H         1 UNK         0.0600 
    227 H227       -4.1151  -26.9975  -54.7010 H         1 UNK         0.0600 
    228 H228       -4.7722  -26.5239  -56.2579 H         1 UNK         0.0600 
    229 H229       -3.0333  -26.5239  -56.0107 H         1 UNK         0.0600 
    230 H230       -2.7336  -22.5908  -55.0974 H         1 UNK         0.3000 
    231 H231       -2.9237  -22.0891  -57.9830 H         1 UNK         0.0600 
    232 H232       -0.8021  -21.6896  -56.6822 H         1 UNK         0.0600 
    233 H233       -1.6220  -20.4306  -55.7587 H         1 UNK         0.0600 
    234 H234       -1.3890  -20.2417  -57.4880 H         1 UNK         0.0600 
    235 H235       -4.6216  -21.2319  -55.1143 H         1 UNK         0.3000 
    236 H236       -6.3673  -19.9668  -54.5853 H         1 UNK         0.0600 
    237 H237       -8.1186  -19.5975  -56.2859 H         1 UNK         0.0600 
    238 H238       -6.9846  -19.9359  -57.5857 H         1 UNK         0.0600 
    239 H239       -7.4416  -21.2090  -56.4558 H         1 UNK         0.0600 
    240 H240       -4.2009  -18.5499  -54.3322 H         1 UNK         0.3000 
    241 H241       -4.0168  -16.0950  -55.7009 H         1 UNK         0.0600 
    242 H242       -6.9973  -15.2748  -53.0441 H         1 UNK         0.3800 
    243 H243       -6.4654  -16.9165  -53.2869 H         1 UNK         0.3800 
    244 H244       -2.6010  -15.3592  -53.7685 H         1 UNK         0.0800 
    245 H245       -3.1173  -16.7603  -52.8605 H         1 UNK         0.0800 
    246 H246       -0.1758  -15.7893  -53.3437 H         1 UNK         0.0800 
    247 H247        0.7573  -17.1289  -53.9545 H         1 UNK         0.0800 
@<TRIPOS>BOND
     1    1    2 1    
     2    1  127 1    
     3    1  128 1    
     4    1  129 1    
     5    2    3 2    
     6    2    4 am   BACKBONE|DICT|INTERRES
     7    4    5 1    
     8    4  130 1    
     9    5    6 1    
    10    5   65 1    
    11    5  131 1    
    12    6    7 1    
    13    6  132 1    
    14    6  133 1    
    15    7    8 1    
    16    8    9 1    
    17    8  134 1    
    18    8  135 1    
    19    9   10 ar   
    20    9   14 ar   
    21   10   11 ar   
    22   10  136 1    
    23   11   12 ar   
    24   11  126 1    
    25   12   13 ar   
    26   12  137 1    
    27   13   14 ar   
    28   13   15 1    
    29   14  138 1    
    30   15   16 1    
    31   15  139 1    
    32   15  140 1    
    33   16   17 1    
    34   17   18 1    
    35   17  141 1    
    36   17  142 1    
    37   18   19 1    
    38   18   67 1    
    39   18  143 1    
    40   19   20 am   BACKBONE|DICT|INTERRES
    41   19  144 1    
    42   20   21 2    
    43   20   22 1    
    44   22   23 1    
    45   22   24 1    
    46   22  145 1    
    47   23  146 1    
    48   23  147 1    
    49   23  148 1    
    50   24   25 am   BACKBONE|DICT|INTERRES
    51   24  149 1    
    52   25   26 2    
    53   25   27 1    
    54   27   28 1    
    55   27   29 1    
    56   27  150 1    
    57   28  151 1    
    58   28  152 1    
    59   28  153 1    
    60   29   30 am   BACKBONE|DICT|INTERRES
    61   29  154 1    
    62   30   31 2    
    63   30   32 1    
    64   32   33 1    
    65   32   34 1    
    66   32  155 1    
    67   33  156 1    
    68   33  157 1    
    69   33  158 1    
    70   34   35 am   BACKBONE|DICT|INTERRES
    71   34  159 1    
    72   35   36 2    
    73   35   37 1    
    74   37   38 1    
    75   37   39 1    
    76   37  160 1    
    77   38  161 1    
    78   38  162 1    
    79   38  163 1    
    80   39   40 am   BACKBONE|DICT|INTERRES
    81   39  164 1    
    82   40   41 2    
    83   40   42 1    
    84   42   43 1    
    85   42   44 1    
    86   42  165 1    
    87   43  166 1    
    88   43  167 1    
    89   43  168 1    
    90   44   45 am   BACKBONE|DICT|INTERRES
    91   44  169 1    
    92   45   46 2    
    93   45   47 1    
    94   47   48 1    
    95   47   49 1    
    96   47  170 1    
    97   48  171 1    
    98   48  172 1    
    99   48  173 1    
   100   49   50 am   BACKBONE|DICT|INTERRES
   101   49  174 1    
   102   50   51 2    
   103   50   52 1    
   104   52   53 1    
   105   52   54 1    
   106   52  175 1    
   107   53  176 1    
   108   53  177 1    
   109   53  178 1    
   110   54   55 am   BACKBONE|DICT|INTERRES
   111   54  179 1    
   112   55   56 2    
   113   55   57 1    
   114   57   58 1    
   115   57   59 1    
   116   57  180 1    
   117   58  181 1    
   118   58  182 1    
   119   58  183 1    
   120   59   60 am   BACKBONE|DICT|INTERRES
   121   59  184 1    
   122   60   61 2    
   123   60   62 1    
   124   62   63 1    
   125   62   64 1    
   126   62  185 1    
   127   63  186 1    
   128   63  187 1    
   129   63  188 1    
   130   64   65 am   BACKBONE|DICT|INTERRES
   131   64  189 1    
   132   65   66 2    
   133   67   68 2    
   134   67   69 am   BACKBONE|DICT|INTERRES
   135   69   70 1    
   136   69  190 1    
   137   70   71 1    
   138   70   72 1    
   139   70  191 1    
   140   71  192 1    
   141   71  193 1    
   142   71  194 1    
   143   72   73 2    
   144   72   74 am   BACKBONE|DICT|INTERRES
   145   74   75 1    
   146   74  195 1    
   147   75   76 1    
   148   75   77 1    
   149   75  196 1    
   150   76  197 1    
   151   76  198 1    
   152   76  199 1    
   153   77   78 2    
   154   77   79 am   BACKBONE|DICT|INTERRES
   155   79   80 1    
   156   79  200 1    
   157   80   81 1    
   158   80   82 1    
   159   80  201 1    
   160   81  202 1    
   161   81  203 1    
   162   81  204 1    
   163   82   83 2    
   164   82   84 am   BACKBONE|DICT|INTERRES
   165   84   85 1    
   166   84  205 1    
   167   85   86 1    
   168   85   87 1    
   169   85  206 1    
   170   86  207 1    
   171   86  208 1    
   172   86  209 1    
   173   87   88 2    
   174   87   89 am   BACKBONE|DICT|INTERRES
   175   89   90 1    
   176   89  210 1    
   177   90   91 1    
   178   90   92 1    
   179   90  211 1    
   180   91  212 1    
   181   91  213 1    
   182   91  214 1    
   183   92   93 2    
   184   92   94 am   BACKBONE|DICT|INTERRES
   185   94   95 1    
   186   94  215 1    
   187   95   96 1    
   188   95   97 1    
   189   95  216 1    
   190   96  217 1    
   191   96  218 1    
   192   96  219 1    
   193   97   98 2    
   194   97   99 am   BACKBONE|DICT|INTERRES
   195   99  100 1    
   196   99  220 1    
   197  100  101 1    
   198  100  102 1    
   199  100  221 1    
   200  101  222 1    
   201  101  223 1    
   202  101  224 1    
   203  102  103 2    
   204  102  104 am   BACKBONE|DICT|INTERRES
   205  104  105 1    
   206  104  225 1    
   207  105  106 1    
   208  105  107 1    
   209  105  226 1    
   210  106  227 1    
   211  106  228 1    
   212  106  229 1    
   213  107  108 2    
   214  107  109 am   BACKBONE|DICT|INTERRES
   215  109  110 1    
   216  109  230 1    
   217  110  111 1    
   218  110  112 1    
   219  110  231 1    
   220  111  232 1    
   221  111  233 1    
   222  111  234 1    
   223  112  113 2    
   224  112  114 am   BACKBONE|DICT|INTERRES
   225  114  115 1    
   226  114  235 1    
   227  115  116 1    
   228  115  117 1    
   229  115  236 1    
   230  116  237 1    
   231  116  238 1    
   232  116  239 1    
   233  117  118 2    
   234  117  119 am   BACKBONE|DICT|INTERRES
   235  119  120 1    
   236  119  240 1    
   237  120  121 1    
   238  120  124 1    
   239  120  241 1    
   240  121  122 am   BACKBONE|DICT|INTERRES
   241  121  123 2    
   242  122  242 1    
   243  122  243 1    
   244  124  125 1    
   245  124  244 1    
   246  124  245 1    
   247  125  126 1    
   248  126  246 1    
   249  126  247 1    
@<TRIPOS>SUBSTRUCTURE
     1 UNK         1 GROUP             0       ****    0 ROOT    
