@<TRIPOS>MOLECULE
3R540
247   249    1
SMALL
USER_CHARGES


@<TRIPOS>ATOM
      1 CA         -3.7244  -13.7039  -48.2637 C.3       0 UNK        -0.1800 
      2 C          -3.9438  -14.9150  -49.1674 C.2       0 UNK         0.5000 
      3 O          -4.9890  -15.0089  -49.8054 O.2       0 UNK        -0.5000 
      4 N          -3.0012  -15.8621  -49.2553 N.am      1 UNK        -0.5000 
      5 CA         -1.7379  -15.9176  -48.5062 C.3       1 UNK         0.1400 
      6 C6         -0.6104  -16.5921  -49.3178 C.3       23 UNK        -0.0398 
      7 S7         -0.2426  -15.6815  -50.8571 S.3       23 UNK        -0.2404 
      8 C8          1.5042  -16.1135  -51.1146 C.3       23 UNK        -0.0205 
      9 C9          1.6794  -17.6066  -51.3394 C.ar      23 UNK        -0.0193 
     10 C10         1.3763  -18.1670  -52.5809 C.ar      23 UNK        -0.1150 
     11 C11         1.5337  -19.5368  -52.7974 C.ar      23 UNK        -0.0193 
     12 C12         1.9951  -20.3484  -51.7567 C.ar      23 UNK        -0.1150 
     13 C13         2.2968  -19.8057  -50.5023 C.ar      23 UNK        -0.0193 
     14 C14         2.1437  -18.4265  -50.3077 C.ar      23 UNK        -0.1150 
     15 C15         2.8210  -20.7418  -49.4115 C.3       23 UNK        -0.0205 
     16 S16         2.8128  -20.0820  -47.7059 S.3       23 UNK        -0.2404 
     17 C17         1.0461  -20.1958  -47.2542 C.3       23 UNK        -0.0398 
     18 CA          0.6280  -21.6215  -46.8179 C.3       11 UNK         0.1400 
     19 N           1.5308  -22.1986  -45.8194 N.am      11 UNK        -0.5000 
     20 C           1.5974  -23.4991  -45.5094 C.2       10 UNK         0.5000 
     21 O           0.9020  -24.3640  -46.0406 O.2       10 UNK        -0.5000 
     22 CA          2.5777  -23.8843  -44.3867 C.3       10 UNK         0.1400 
     23 CB          3.9951  -24.0691  -44.9484 C.3       10 UNK        -0.1800 
     24 N           2.6072  -22.8927  -43.3088 N.am      10 UNK        -0.5000 
     25 C           1.5798  -22.6499  -42.4830 C.2       9 UNK         0.5000 
     26 O           0.5181  -23.2719  -42.5179 O.2       9 UNK        -0.5000 
     27 CA          1.7481  -21.4862  -41.4878 C.3       9 UNK         0.1400 
     28 CB          2.4546  -21.9632  -40.2108 C.3       9 UNK        -0.1800 
     29 N           2.4715  -20.3366  -42.0398 N.am      9 UNK        -0.5000 
     30 C           2.0763  -19.6082  -43.0921 C.2       8 UNK         0.5000 
     31 O           1.0724  -19.8718  -43.7556 O.2       8 UNK        -0.5000 
     32 CA          2.9421  -18.3825  -43.4411 C.3       8 UNK         0.1400 
     33 CB          2.3360  -17.5247  -44.5667 C.3       8 UNK        -0.1800 
     34 N           3.1247  -17.5303  -42.2694 N.am      8 UNK        -0.5000 
     35 C           4.1372  -17.6011  -41.3977 C.2       7 UNK         0.5000 
     36 O           5.0150  -18.4632  -41.4466 O.2       7 UNK        -0.5000 
     37 CA          4.1577  -16.5535  -40.2745 C.3       7 UNK         0.1400 
     38 CB          4.6023  -15.1851  -40.8158 C.3       7 UNK        -0.1800 
     39 N           2.8363  -16.4232  -39.6628 N.am      7 UNK        -0.5000 
     40 C           2.5658  -16.6247  -38.3662 C.2       6 UNK         0.5000 
     41 O           3.4202  -16.8926  -37.5202 O.2       6 UNK        -0.5000 
     42 CA          1.0894  -16.5133  -37.9295 C.3       6 UNK         0.1400 
     43 CB          0.8053  -15.1186  -37.3513 C.3       6 UNK        -0.1800 
     44 N           0.1356  -16.7810  -39.0075 N.am      6 UNK        -0.5000 
     45 C          -0.0102  -17.9588  -39.6289 C.2       5 UNK         0.5000 
     46 O           0.5922  -18.9804  -39.3004 O.2       5 UNK        -0.5000 
     47 CA         -0.9807  -18.0127  -40.8247 C.3       5 UNK         0.1400 
     48 CB         -2.3230  -18.6006  -40.3613 C.3       5 UNK        -0.1800 
     49 N          -1.2417  -16.7421  -41.5153 N.am      5 UNK        -0.5000 
     50 C          -0.3452  -15.8742  -42.0084 C.2       4 UNK         0.5000 
     51 O           0.8690  -15.9806  -41.8276 O.2       4 UNK        -0.5000 
     52 CA         -0.8901  -14.6890  -42.8352 C.3       4 UNK         0.1400 
     53 CB          0.1380  -14.1806  -43.8618 C.3       4 UNK        -0.1800 
     54 N          -2.1333  -15.0191  -43.5376 N.am      4 UNK        -0.5000 
     55 C          -3.3696  -14.8584  -43.0425 C.2       3 UNK         0.5000 
     56 O          -3.5921  -14.4133  -41.9168 O.2       3 UNK        -0.5000 
     57 CA         -4.5593  -15.2841  -43.9297 C.3       3 UNK         0.1400 
     58 CB         -5.2054  -14.0542  -44.5856 C.3       3 UNK        -0.1800 
     59 N          -4.2018  -16.2482  -44.9724 N.am      3 UNK        -0.5000 
     60 C          -3.8087  -17.5097  -44.7474 C.2       2 UNK         0.5000 
     61 O          -3.7748  -18.0182  -43.6283 O.2       2 UNK        -0.5000 
     62 CA         -3.3558  -18.3390  -45.9656 C.3       2 UNK         0.1400 
     63 CB         -4.4817  -19.2815  -46.4174 C.3       2 UNK        -0.1800 
     64 N          -2.9262  -17.5598  -47.1265 N.am      2 UNK        -0.5000 
     65 C          -1.9493  -16.6423  -47.1628 C.2       1 UNK         0.5000 
     66 O          -1.2763  -16.3224  -46.1837 O.2       1 UNK        -0.5000 
     67 C          -0.8298  -21.6492  -46.3207 C.2       11 UNK         0.5000 
     68 O          -1.7361  -21.8933  -47.1153 O.2       11 UNK        -0.5000 
     69 N          -1.0250  -21.4484  -45.0099 N.am      12 UNK        -0.5000 
     70 CA         -2.3063  -21.5967  -44.3236 C.3       12 UNK         0.1400 
     71 CB         -2.2072  -21.0140  -42.9105 C.3       12 UNK        -0.1800 
     72 C          -2.8075  -23.0481  -44.3039 C.2       12 UNK         0.5000 
     73 O          -3.9863  -23.2777  -44.5727 O.2       12 UNK        -0.5000 
     74 N          -1.9022  -24.0018  -44.0435 N.am      13 UNK        -0.5000 
     75 CA         -2.1764  -25.4400  -44.1006 C.3       13 UNK         0.1400 
     76 CB         -0.9712  -26.2153  -43.5475 C.3       13 UNK        -0.1800 
     77 C          -2.5379  -25.9227  -45.5195 C.2       13 UNK         0.5000 
     78 O          -3.4277  -26.7606  -45.6695 O.2       13 UNK        -0.5000 
     79 N          -1.8658  -25.3604  -46.5331 N.am      14 UNK        -0.5000 
     80 CA         -2.1353  -25.6007  -47.9520 C.3       14 UNK         0.1400 
     81 CB         -0.9112  -25.1519  -48.7659 C.3       14 UNK        -0.1800 
     82 C          -3.4041  -24.8930  -48.4729 C.2       14 UNK         0.5000 
     83 O          -3.8995  -25.2692  -49.5358 O.2       14 UNK        -0.5000 
     84 N          -3.8826  -23.8743  -47.7409 N.am      15 UNK        -0.5000 
     85 CA         -4.9494  -22.9317  -48.1024 C.3       15 UNK         0.1400 
     86 CB         -6.3157  -23.6431  -48.1798 C.3       15 UNK        -0.1800 
     87 C          -4.6012  -22.1279  -49.3761 C.2       15 UNK         0.5000 
     88 O          -5.4425  -21.9526  -50.2597 O.2       15 UNK        -0.5000 
     89 N          -3.3371  -21.6986  -49.4582 N.am      16 UNK        -0.5000 
     90 CA         -2.7355  -21.0663  -50.6253 C.3       16 UNK         0.1400 
     91 CB         -1.2176  -21.2658  -50.5454 C.3       16 UNK        -0.1800 
     92 C          -3.0760  -19.5709  -50.7483 C.2       16 UNK         0.5000 
     93 O          -3.3298  -18.8899  -49.7499 O.2       16 UNK        -0.5000 
     94 N          -3.0156  -19.0811  -51.9881 N.am      17 UNK        -0.5000 
     95 CA         -3.2354  -17.7003  -52.3870 C.3       17 UNK         0.1400 
     96 CB         -4.7322  -17.3485  -52.3428 C.3       17 UNK        -0.1800 
     97 C          -2.6691  -17.5540  -53.8003 C.2       17 UNK         0.5000 
     98 O          -3.0518  -18.3333  -54.6797 O.2       17 UNK        -0.5000 
     99 N          -1.7586  -16.5891  -53.9836 N.am      18 UNK        -0.5000 
    100 CA        -1.0425  -16.3143  -55.2306 C.3       18 UNK         0.1400 
    101 CB        -0.1271  -15.0970  -55.0282 C.3       18 UNK        -0.1800 
    102 C         -2.0003  -16.0942  -56.4147 C.2       18 UNK         0.5000 
    103 O         -2.8454  -15.1984  -56.3542 O.2       18 UNK        -0.5000 
    104 N         -1.8839  -16.9601  -57.4308 N.am      19 UNK        -0.5000 
    105 CA        -2.7303  -17.1098  -58.6231 C.3       19 UNK         0.1400 
    106 CB        -2.7191  -15.8355  -59.4884 C.3       19 UNK        -0.1800 
    107 C         -4.1744  -17.5739  -58.3350 C.2       19 UNK         0.5000 
    108 O         -4.6769  -18.4417  -59.0491 O.2       19 UNK        -0.5000 
    109 N         -4.8089  -17.0074  -57.3015 N.am      20 UNK        -0.5000 
    110 CA        -6.1927  -17.2526  -56.8941 C.3       20 UNK         0.1400 
    111 CB        -6.5587  -16.2833  -55.7606 C.3       20 UNK        -0.1800 
    112 C         -6.4800  -18.7078  -56.4807 C.2       20 UNK         0.5000 
    113 O         -7.5534  -19.2200  -56.8024 O.2       20 UNK        -0.5000 
    114 N         -5.5206  -19.3451  -55.7987 N.am      21 UNK        -0.5000 
    115 CA        -5.5688  -20.7593  -55.4240 C.3       21 UNK         0.1400 
    116 CB        -5.6433  -20.8883  -53.8956 C.3       21 UNK        -0.1800 
    117 C         -4.3556  -21.5224  -55.9779 C.2       21 UNK         0.5000 
    118 O         -4.4979  -22.6924  -56.3352 O.2       21 UNK        -0.5000 
    119 N         -3.1936  -20.8587  -56.0588 N.am      22 UNK        -0.5000 
    120 CA        -1.9469  -21.4308  -56.5970 C.3       22 UNK         0.1400 
    121 C         -1.9219  -21.6008  -58.1459 C.2       22 UNK         0.5000 
    122 N         -2.8559  -21.0368  -58.9024 N.am      22 UNK        -0.7600 
    123 O         -1.0341  -22.2647  -58.6738 O.2       22 UNK        -0.5000 
    124 C124       -0.6973  -20.6475  -56.1224 C.3       23 UNK        -0.0398 
    125 S125       -0.5415  -20.5587  -54.3083 S.3       23 UNK        -0.2404 
    126 C126        1.2179  -20.1260  -54.1620 C.3       23 UNK        -0.0205 
    127 H127       -2.9932  -13.0285  -48.7078 H         1 UNK         0.0600 
    128 H128       -3.3734  -13.9982  -47.2757 H         1 UNK         0.0600 
    129 H129       -4.6554  -13.1520  -48.1315 H         1 UNK         0.0600 
    130 H130       -3.1946  -16.6798  -49.8187 H         1 UNK         0.3000 
    131 H131       -1.4003  -14.9056  -48.2761 H         1 UNK         0.0600 
    132 H132        0.3000  -16.6424  -48.7174 H         1 UNK         0.0800 
    133 H133       -0.8679  -17.6210  -49.5751 H         1 UNK         0.0800 
    134 H134        1.8817  -15.5676  -51.9803 H         1 UNK         0.0800 
    135 H135        2.0942  -15.7762  -50.2610 H         1 UNK         0.0800 
    136 H136        1.0164  -17.5358  -53.3798 H         1 UNK         0.1150 
    137 H137        2.1186  -21.4092  -51.9253 H         1 UNK         0.1150 
    138 H138        2.3874  -17.9774  -49.3566 H         1 UNK         0.1150 
    139 H139        2.2598  -21.6769  -49.4303 H         1 UNK         0.0800 
    140 H140        3.8502  -21.0006  -49.6627 H         1 UNK         0.0800 
    141 H141        0.4444  -19.8458  -48.0920 H         1 UNK         0.0800 
    142 H142        0.8602  -19.4869  -46.4470 H         1 UNK         0.0800 
    143 H143        0.6707  -22.2599  -47.7024 H         1 UNK         0.0600 
    144 H144        2.1112  -21.5457  -45.3147 H         1 UNK         0.3000 
    145 H145        2.2478  -24.8371  -43.9671 H         1 UNK         0.0600 
    146 H146        4.6847  -24.4077  -44.1749 H         1 UNK         0.0600 
    147 H147        4.0049  -24.8178  -45.7417 H         1 UNK         0.0600 
    148 H148        4.3882  -23.1418  -45.3674 H         1 UNK         0.0600 
    149 H149        3.4457  -22.3387  -43.2143 H         1 UNK         0.3000 
    150 H150        0.7485  -21.1429  -41.2139 H         1 UNK         0.0600 
    151 H151        1.9260  -22.8061  -39.7636 H         1 UNK         0.0600 
    152 H152        2.4906  -21.1707  -39.4628 H         1 UNK         0.0600 
    153 H153        3.4776  -22.2839  -40.4108 H         1 UNK         0.0600 
    154 H154        3.3069  -20.0451  -41.5496 H         1 UNK         0.3000 
    155 H155        3.9117  -18.7482  -43.7850 H         1 UNK         0.0600 
    156 H156        1.2976  -17.2600  -44.3635 H         1 UNK         0.0600 
    157 H157        2.8946  -16.5990  -44.7049 H         1 UNK         0.0600 
    158 H158        2.3632  -18.0549  -45.5164 H         1 UNK         0.0600 
    159 H159        2.3935  -16.8368  -42.1254 H         1 UNK         0.3000 
    160 H160        4.8946  -16.8828  -39.5391 H         1 UNK         0.0600 
    161 H161        4.6874  -14.4550  -40.0108 H         1 UNK         0.0600 
    162 H162        3.8974  -14.7917  -41.5496 H         1 UNK         0.0600 
    163 H163        5.5781  -15.2531  -41.2982 H         1 UNK         0.0600 
    164 H164        2.0638  -16.2276  -40.2917 H         1 UNK         0.3000 
    165 H165        0.9233  -17.2520  -37.1427 H         1 UNK         0.0600 
    166 H166       -0.2125  -15.0500  -36.9669 H         1 UNK         0.0600 
    167 H167        1.4795  -14.8937  -36.5238 H         1 UNK         0.0600 
    168 H168        0.9355  -14.3382  -38.1023 H         1 UNK         0.0600 
    169 H169       -0.4017  -15.9961  -39.3445 H         1 UNK         0.3000 
    170 H170       -0.5372  -18.6859  -41.5596 H         1 UNK         0.0600 
    171 H171       -2.1866  -19.5891  -39.9204 H         1 UNK         0.0600 
    172 H172       -2.7986  -17.9680  -39.6108 H         1 UNK         0.0600 
    173 H173       -3.0214  -18.7116  -41.1893 H         1 UNK         0.0600 
    174 H174       -2.2132  -16.5535  -41.7171 H         1 UNK         0.3000 
    175 H175       -1.0774  -13.8760  -42.1312 H         1 UNK         0.0600 
    176 H176       -0.2577  -13.3408  -44.4330 H         1 UNK         0.0600 
    177 H177        0.4217  -14.9607  -44.5684 H         1 UNK         0.0600 
    178 H178        1.0490  -13.8356  -43.3711 H         1 UNK         0.0600 
    179 H179       -2.0210  -15.4421  -44.4531 H         1 UNK         0.3000 
    180 H180       -5.3010  -15.7532  -43.2798 H         1 UNK         0.0600 
    181 H181       -4.4995  -13.5161  -45.2182 H         1 UNK         0.0600 
    182 H182       -5.5629  -13.3540  -43.8295 H         1 UNK         0.0600 
    183 H183       -6.0630  -14.3344  -45.1976 H         1 UNK         0.0600 
    184 H184       -4.2173  -15.9178  -45.9247 H         1 UNK         0.3000 
    185 H185       -2.4980  -18.9315  -45.6453 H         1 UNK         0.0600 
    186 H186       -4.8922  -19.8514  -45.5831 H         1 UNK         0.0600 
    187 H187       -5.3071  -18.7311  -46.8705 H         1 UNK         0.0600 
    188 H188       -4.1120  -19.9943  -47.1533 H         1 UNK         0.0600 
    189 H189       -3.3779  -17.7995  -48.0029 H         1 UNK         0.3000 
    190 H190       -0.2298  -21.1759  -44.4401 H         1 UNK         0.3000 
    191 H191       -3.0470  -21.0188  -44.8703 H         1 UNK         0.0600 
    192 H192       -1.8926  -19.9726  -42.9533 H         1 UNK         0.0600 
    193 H193       -3.1742  -21.0434  -42.4072 H         1 UNK         0.0600 
    194 H194       -1.4950  -21.5566  -42.2904 H         1 UNK         0.0600 
    195 H195       -0.9653  -23.7255  -43.7658 H         1 UNK         0.3000 
    196 H196       -3.0335  -25.6408  -43.4545 H         1 UNK         0.0600 
    197 H197       -1.1665  -27.2883  -43.5428 H         1 UNK         0.0600 
    198 H198       -0.7498  -25.9200  -42.5217 H         1 UNK         0.0600 
    199 H199       -0.0745  -26.0477  -44.1440 H         1 UNK         0.0600 
    200 H200       -1.0903  -24.7427  -46.3171 H         1 UNK         0.3000 
    201 H201       -2.2709  -26.6737  -48.1023 H         1 UNK         0.0600 
    202 H202       -0.0125  -25.6848  -48.4547 H         1 UNK         0.0600 
    203 H203       -0.7239  -24.0841  -48.6506 H         1 UNK         0.0600 
    204 H204       -1.0530  -25.3468  -49.8297 H         1 UNK         0.0600 
    205 H205       -3.3778  -23.6417  -46.8961 H         1 UNK         0.3000 
    206 H206       -5.0038  -22.2107  -47.2864 H         1 UNK         0.0600 
    207 H207       -6.5251  -24.1919  -47.2615 H         1 UNK         0.0600 
    208 H208       -7.1220  -22.9221  -48.3182 H         1 UNK         0.0600 
    209 H209       -6.3624  -24.3476  -49.0105 H         1 UNK         0.0600 
    210 H210       -2.7300  -21.8315  -48.6523 H         1 UNK         0.3000 
    211 H211       -3.1003  -21.5765  -51.5197 H         1 UNK         0.0600 
    212 H212       -0.8049  -20.8152  -49.6461 H         1 UNK         0.0600 
    213 H213       -0.7197  -20.8072  -51.3972 H         1 UNK         0.0600 
    214 H214       -0.9543  -22.3235  -50.5447 H         1 UNK         0.0600 
    215 H215       -2.7412  -19.6873  -52.7508 H         1 UNK         0.3000 
    216 H216       -2.6885  -17.0445  -51.7113 H         1 UNK         0.0600 
    217 H217       -4.8945  -16.3112  -52.6370 H         1 UNK         0.0600 
    218 H218       -5.1406  -17.4643  -51.3389 H         1 UNK         0.0600 
    219 H219       -5.3162  -17.9796  -53.0131 H         1 UNK         0.0600 
    220 H220       -1.5157  -15.9993  -53.2005 H         1 UNK         0.3000 
    221 H221       -0.4131  -17.1815  -55.4401 H         1 UNK         0.0600 
    222 H222        0.5959  -15.2707  -54.2315 H         1 UNK         0.0600 
    223 H223        0.4367  -14.8774  -55.9357 H         1 UNK         0.0600 
    224 H224       -0.6979  -14.2036  -54.7718 H         1 UNK         0.0600 
    225 H225       -1.1588  -17.6577  -57.3551 H         1 UNK         0.3000 
    226 H226       -2.2647  -17.9029  -59.2107 H         1 UNK         0.0600 
    227 H227       -1.7012  -15.5424  -59.7452 H         1 UNK         0.0600 
    228 H228       -3.2563  -15.9978  -60.4236 H         1 UNK         0.0600 
    229 H229       -3.1941  -14.9933  -58.9847 H         1 UNK         0.0600 
    230 H230       -4.2960  -16.2992  -56.7831 H         1 UNK         0.3000 
    231 H231       -6.8296  -17.0268  -57.7518 H         1 UNK         0.0600 
    232 H232       -5.9022  -16.4092  -54.9001 H         1 UNK         0.0600 
    233 H233       -7.5831  -16.4424  -55.4215 H         1 UNK         0.0600 
    234 H234       -6.4821  -15.2467  -56.0893 H         1 UNK         0.0600 
    235 H235       -4.6734  -18.8396  -55.5581 H         1 UNK         0.3000 
    236 H236       -6.4575  -21.2357  -55.8429 H         1 UNK         0.0600 
    237 H237       -6.5140  -20.3682  -53.4963 H         1 UNK         0.0600 
    238 H238       -5.7203  -21.9334  -53.5932 H         1 UNK         0.0600 
    239 H239       -4.7584  -20.4757  -53.4171 H         1 UNK         0.0600 
    240 H240       -3.1264  -19.9175  -55.6843 H         1 UNK         0.3000 
    241 H241       -1.8589  -22.4413  -56.1930 H         1 UNK         0.0600 
    242 H242       -3.5996  -20.4873  -58.4992 H         1 UNK         0.3800 
    243 H243       -2.8235  -21.1680  -59.9010 H         1 UNK         0.3800 
    244 H244        0.2092  -21.1129  -56.5145 H         1 UNK         0.0800 
    245 H245       -0.7155  -19.6305  -56.5142 H         1 UNK         0.0800 
    246 H246        1.4845  -19.4057  -54.9371 H         1 UNK         0.0800 
    247 H247        1.8253  -21.0139  -54.3443 H         1 UNK         0.0800 
@<TRIPOS>BOND
     1    1    2 1    
     2    1  127 1    
     3    1  128 1    
     4    1  129 1    
     5    2    3 2    
     6    2    4 am   BACKBONE|DICT|INTERRES
     7    4    5 1    
     8    4  130 1    
     9    5    6 1    
    10    5   65 1    
    11    5  131 1    
    12    6    7 1    
    13    6  132 1    
    14    6  133 1    
    15    7    8 1    
    16    8    9 1    
    17    8  134 1    
    18    8  135 1    
    19    9   10 ar   
    20    9   14 ar   
    21   10   11 ar   
    22   10  136 1    
    23   11   12 ar   
    24   11  126 1    
    25   12   13 ar   
    26   12  137 1    
    27   13   14 ar   
    28   13   15 1    
    29   14  138 1    
    30   15   16 1    
    31   15  139 1    
    32   15  140 1    
    33   16   17 1    
    34   17   18 1    
    35   17  141 1    
    36   17  142 1    
    37   18   19 1    
    38   18   67 1    
    39   18  143 1    
    40   19   20 am   BACKBONE|DICT|INTERRES
    41   19  144 1    
    42   20   21 2    
    43   20   22 1    
    44   22   23 1    
    45   22   24 1    
    46   22  145 1    
    47   23  146 1    
    48   23  147 1    
    49   23  148 1    
    50   24   25 am   BACKBONE|DICT|INTERRES
    51   24  149 1    
    52   25   26 2    
    53   25   27 1    
    54   27   28 1    
    55   27   29 1    
    56   27  150 1    
    57   28  151 1    
    58   28  152 1    
    59   28  153 1    
    60   29   30 am   BACKBONE|DICT|INTERRES
    61   29  154 1    
    62   30   31 2    
    63   30   32 1    
    64   32   33 1    
    65   32   34 1    
    66   32  155 1    
    67   33  156 1    
    68   33  157 1    
    69   33  158 1    
    70   34   35 am   BACKBONE|DICT|INTERRES
    71   34  159 1    
    72   35   36 2    
    73   35   37 1    
    74   37   38 1    
    75   37   39 1    
    76   37  160 1    
    77   38  161 1    
    78   38  162 1    
    79   38  163 1    
    80   39   40 am   BACKBONE|DICT|INTERRES
    81   39  164 1    
    82   40   41 2    
    83   40   42 1    
    84   42   43 1    
    85   42   44 1    
    86   42  165 1    
    87   43  166 1    
    88   43  167 1    
    89   43  168 1    
    90   44   45 am   BACKBONE|DICT|INTERRES
    91   44  169 1    
    92   45   46 2    
    93   45   47 1    
    94   47   48 1    
    95   47   49 1    
    96   47  170 1    
    97   48  171 1    
    98   48  172 1    
    99   48  173 1    
   100   49   50 am   BACKBONE|DICT|INTERRES
   101   49  174 1    
   102   50   51 2    
   103   50   52 1    
   104   52   53 1    
   105   52   54 1    
   106   52  175 1    
   107   53  176 1    
   108   53  177 1    
   109   53  178 1    
   110   54   55 am   BACKBONE|DICT|INTERRES
   111   54  179 1    
   112   55   56 2    
   113   55   57 1    
   114   57   58 1    
   115   57   59 1    
   116   57  180 1    
   117   58  181 1    
   118   58  182 1    
   119   58  183 1    
   120   59   60 am   BACKBONE|DICT|INTERRES
   121   59  184 1    
   122   60   61 2    
   123   60   62 1    
   124   62   63 1    
   125   62   64 1    
   126   62  185 1    
   127   63  186 1    
   128   63  187 1    
   129   63  188 1    
   130   64   65 am   BACKBONE|DICT|INTERRES
   131   64  189 1    
   132   65   66 2    
   133   67   68 2    
   134   67   69 am   BACKBONE|DICT|INTERRES
   135   69   70 1    
   136   69  190 1    
   137   70   71 1    
   138   70   72 1    
   139   70  191 1    
   140   71  192 1    
   141   71  193 1    
   142   71  194 1    
   143   72   73 2    
   144   72   74 am   BACKBONE|DICT|INTERRES
   145   74   75 1    
   146   74  195 1    
   147   75   76 1    
   148   75   77 1    
   149   75  196 1    
   150   76  197 1    
   151   76  198 1    
   152   76  199 1    
   153   77   78 2    
   154   77   79 am   BACKBONE|DICT|INTERRES
   155   79   80 1    
   156   79  200 1    
   157   80   81 1    
   158   80   82 1    
   159   80  201 1    
   160   81  202 1    
   161   81  203 1    
   162   81  204 1    
   163   82   83 2    
   164   82   84 am   BACKBONE|DICT|INTERRES
   165   84   85 1    
   166   84  205 1    
   167   85   86 1    
   168   85   87 1    
   169   85  206 1    
   170   86  207 1    
   171   86  208 1    
   172   86  209 1    
   173   87   88 2    
   174   87   89 am   BACKBONE|DICT|INTERRES
   175   89   90 1    
   176   89  210 1    
   177   90   91 1    
   178   90   92 1    
   179   90  211 1    
   180   91  212 1    
   181   91  213 1    
   182   91  214 1    
   183   92   93 2    
   184   92   94 am   BACKBONE|DICT|INTERRES
   185   94   95 1    
   186   94  215 1    
   187   95   96 1    
   188   95   97 1    
   189   95  216 1    
   190   96  217 1    
   191   96  218 1    
   192   96  219 1    
   193   97   98 2    
   194   97   99 am   BACKBONE|DICT|INTERRES
   195   99  100 1    
   196   99  220 1    
   197  100  101 1    
   198  100  102 1    
   199  100  221 1    
   200  101  222 1    
   201  101  223 1    
   202  101  224 1    
   203  102  103 2    
   204  102  104 am   BACKBONE|DICT|INTERRES
   205  104  105 1    
   206  104  225 1    
   207  105  106 1    
   208  105  107 1    
   209  105  226 1    
   210  106  227 1    
   211  106  228 1    
   212  106  229 1    
   213  107  108 2    
   214  107  109 am   BACKBONE|DICT|INTERRES
   215  109  110 1    
   216  109  230 1    
   217  110  111 1    
   218  110  112 1    
   219  110  231 1    
   220  111  232 1    
   221  111  233 1    
   222  111  234 1    
   223  112  113 2    
   224  112  114 am   BACKBONE|DICT|INTERRES
   225  114  115 1    
   226  114  235 1    
   227  115  116 1    
   228  115  117 1    
   229  115  236 1    
   230  116  237 1    
   231  116  238 1    
   232  116  239 1    
   233  117  118 2    
   234  117  119 am   BACKBONE|DICT|INTERRES
   235  119  120 1    
   236  119  240 1    
   237  120  121 1    
   238  120  124 1    
   239  120  241 1    
   240  121  122 am   BACKBONE|DICT|INTERRES
   241  121  123 2    
   242  122  242 1    
   243  122  243 1    
   244  124  125 1    
   245  124  244 1    
   246  124  245 1    
   247  125  126 1    
   248  126  246 1    
   249  126  247 1    
@<TRIPOS>SUBSTRUCTURE
     1 UNK         1 GROUP             0       ****    0 ROOT    
