@<TRIPOS>MOLECULE
3R540
247   249    1
SMALL
USER_CHARGES


@<TRIPOS>ATOM
      1 CA          1.8144  -10.7630  -50.0790 C.3       0 UNK        -0.1800 
      2 C           2.3088  -11.5153  -48.8511 C.2       0 UNK         0.5000 
      3 O           1.5114  -11.8028  -47.9604 O.2       0 UNK        -0.5000 
      4 N           3.6103  -11.8360  -48.8260 N.am      1 UNK        -0.5000 
      5 CA          4.3646  -12.5204  -47.7640 C.3       1 UNK         0.1400 
      6 C6          3.7371  -13.8465  -47.2593 C.3       23 UNK        -0.0398 
      7 S7          3.4494  -15.0549  -48.5948 S.3       23 UNK        -0.2404 
      8 C8          1.7001  -15.4675  -48.3067 C.3       23 UNK        -0.0205 
      9 C9          1.1941  -16.5063  -49.2962 C.ar      23 UNK        -0.0193 
     10 C10         0.1704  -16.1878  -50.1941 C.ar      23 UNK        -0.1150 
     11 C11        -0.2995  -17.1427  -51.1010 C.ar      23 UNK        -0.0193 
     12 C12         0.2699  -18.4192  -51.1128 C.ar      23 UNK        -0.1150 
     13 C13         1.2991  -18.7475  -50.2273 C.ar      23 UNK        -0.0193 
     14 C14         1.7454  -17.7918  -49.3099 C.ar      23 UNK        -0.1150 
     15 C15         1.9412  -20.1269  -50.2800 C.3       23 UNK        -0.0205 
     16 S16         0.8122  -21.4334  -49.7078 S.3       23 UNK        -0.2404 
     17 C17         0.5175  -20.9046  -47.9884 C.3       23 UNK        -0.0398 
     18 CA          0.3190  -22.0840  -47.0093 C.3       11 UNK         0.1400 
     19 N           0.3843  -21.6409  -45.6184 N.am      11 UNK        -0.5000 
     20 C           0.4344  -22.4469  -44.5496 C.2       10 UNK         0.5000 
     21 O           0.5360  -23.6717  -44.6166 O.2       10 UNK        -0.5000 
     22 CA          0.3028  -21.7691  -43.1729 C.3       10 UNK         0.1400 
     23 CB          1.6656  -21.2583  -42.6826 C.3       10 UNK        -0.1800 
     24 N          -0.6655  -20.6691  -43.1766 N.am      10 UNK        -0.5000 
     25 C          -1.9768  -20.8192  -43.4185 C.2       9 UNK         0.5000 
     26 O          -2.5151  -21.9090  -43.6143 O.2       9 UNK        -0.5000 
     27 CA         -2.8227  -19.5362  -43.4948 C.3       9 UNK         0.1400 
     28 CB         -3.1658  -19.0286  -42.0864 C.3       9 UNK        -0.1800 
     29 N          -2.1702  -18.4729  -44.2605 N.am      9 UNK        -0.5000 
     30 C          -1.8937  -18.5369  -45.5712 C.2       8 UNK         0.5000 
     31 O          -2.2016  -19.4888  -46.2858 O.2       8 UNK        -0.5000 
     32 CA         -1.0849  -17.3748  -46.1775 C.3       8 UNK         0.1400 
     33 CB         -1.9857  -16.1741  -46.4955 C.3       8 UNK        -0.1800 
     34 N           0.0179  -16.9546  -45.3133 N.am      8 UNK        -0.5000 
     35 C           1.0571  -17.7393  -44.9945 C.2       7 UNK         0.5000 
     36 O           1.2081  -18.8824  -45.4228 O.2       7 UNK        -0.5000 
     37 CA          2.0780  -17.1678  -43.9996 C.3       7 UNK         0.1400 
     38 CB          3.1047  -16.2816  -44.7186 C.3       7 UNK        -0.1800 
     39 N           1.4298  -16.4201  -42.9223 N.am      7 UNK        -0.5000 
     40 C           0.6867  -16.9884  -41.9618 C.2       6 UNK         0.5000 
     41 O           0.5217  -18.2038  -41.8527 O.2       6 UNK        -0.5000 
     42 CA         -0.0383  -16.0338  -40.9973 C.3       6 UNK         0.1400 
     43 CB          0.9006  -15.5647  -39.8772 C.3       6 UNK        -0.1800 
     44 N          -0.6057  -14.8748  -41.6897 N.am      6 UNK        -0.5000 
     45 C          -1.6420  -14.9551  -42.5376 C.2       5 UNK         0.5000 
     46 O          -2.2202  -16.0073  -42.8027 O.2       5 UNK        -0.5000 
     47 CA         -2.1014  -13.6625  -43.2348 C.3       5 UNK         0.1400 
     48 CB         -3.2089  -12.9800  -42.4187 C.3       5 UNK        -0.1800 
     49 N          -1.0308  -12.7002  -43.4855 N.am      5 UNK        -0.5000 
     50 C           0.0712  -12.9190  -44.2153 C.2       4 UNK         0.5000 
     51 O           0.3420  -14.0018  -44.7409 O.2       4 UNK        -0.5000 
     52 CA          1.0486  -11.7342  -44.3629 C.3       4 UNK         0.1400 
     53 CB          0.5152  -10.3954  -43.8047 C.3       4 UNK        -0.1800 
     54 N           2.3653  -12.0149  -43.7901 N.am      4 UNK        -0.5000 
     55 C           2.6485  -12.4371  -42.5476 C.2       3 UNK         0.5000 
     56 O           1.7902  -12.7140  -41.7081 O.2       3 UNK        -0.5000 
     57 CA          4.1398  -12.5801  -42.1749 C.3       3 UNK         0.1400 
     58 CB          4.4488  -13.9857  -41.6358 C.3       3 UNK        -0.1800 
     59 N           5.0320  -12.2928  -43.3035 N.am      3 UNK        -0.5000 
     60 C           5.5575  -11.0891  -43.5707 C.2       2 UNK         0.5000 
     61 O           5.3916  -10.0950  -42.8633 O.2       2 UNK        -0.5000 
     62 CA          6.3846  -10.9693  -44.8654 C.3       2 UNK         0.1400 
     63 CB          7.8508  -11.3466  -44.6038 C.3       2 UNK        -0.1800 
     64 N           5.8678  -11.7790  -45.9754 N.am      2 UNK        -0.5000 
     65 C           4.6868  -11.5832  -46.5801 C.2       1 UNK         0.5000 
     66 O           3.8779  -10.7290  -46.2140 O.2       1 UNK        -0.5000 
     67 C          -0.9891  -22.8533  -47.2807 C.2       11 UNK         0.5000 
     68 O          -0.9328  -24.0066  -47.7041 O.2       11 UNK        -0.5000 
     69 N          -2.1389  -22.2310  -46.9831 N.am      12 UNK        -0.5000 
     70 CA         -3.4822  -22.7777  -47.1991 C.3       12 UNK         0.1400 
     71 CB         -4.5254  -21.7243  -46.8007 C.3       12 UNK        -0.1800 
     72 C          -3.7599  -24.1091  -46.4743 C.2       12 UNK         0.5000 
     73 O          -4.5773  -24.8957  -46.9493 O.2       12 UNK        -0.5000 
     74 N          -3.0630  -24.3559  -45.3588 N.am      13 UNK        -0.5000 
     75 CA         -3.1036  -25.6148  -44.6170 C.3       13 UNK         0.1400 
     76 CB         -2.4415  -25.4028  -43.2468 C.3       13 UNK        -0.1800 
     77 C          -2.4473  -26.8019  -45.3563 C.2       13 UNK         0.5000 
     78 O          -2.7565  -27.9466  -45.0216 O.2       13 UNK        -0.5000 
     79 N          -1.5544  -26.5273  -46.3187 N.am      14 UNK        -0.5000 
     80 CA         -0.7782  -27.5334  -47.0483 C.3       14 UNK         0.1400 
     81 CB          0.7154  -27.2809  -46.7861 C.3       14 UNK        -0.1800 
     82 C          -1.0568  -27.5288  -48.5624 C.2       14 UNK         0.5000 
     83 O          -1.0088  -28.5916  -49.1838 O.2       14 UNK        -0.5000 
     84 N          -1.3041  -26.3457  -49.1379 N.am      15 UNK        -0.5000 
     85 CA         -1.4888  -26.1166  -50.5702 C.3       15 UNK         0.1400 
     86 CB         -1.5378  -24.6025  -50.8198 C.3       15 UNK        -0.1800 
     87 C          -2.7517  -26.7772  -51.1491 C.2       15 UNK         0.5000 
     88 O          -3.7647  -26.9059  -50.4557 O.2       15 UNK        -0.5000 
     89 N          -2.6792  -27.1227  -52.4417 N.am      16 UNK        -0.5000 
     90 CA         -3.7948  -27.6245  -53.2437 C.3       16 UNK         0.1400 
     91 CB         -3.2844  -28.0007  -54.6425 C.3       16 UNK        -0.1800 
     92 C          -4.9242  -26.5839  -53.3406 C.2       16 UNK         0.5000 
     93 O          -4.6462  -25.3972  -53.5388 O.2       16 UNK        -0.5000 
     94 N          -6.1681  -27.0443  -53.1447 N.am      17 UNK        -0.5000 
     95 CA         -7.4053  -26.2507  -53.0911 C.3       17 UNK         0.1400 
     96 CB         -7.7414  -25.6909  -54.4891 C.3       17 UNK        -0.1800 
     97 C          -7.3960  -25.1492  -52.0042 C.2       17 UNK         0.5000 
     98 O          -8.1405  -24.1757  -52.1163 O.2       17 UNK        -0.5000 
     99 N          -6.5330  -25.3106  -50.9889 N.am      18 UNK        -0.5000 
    100 CA        -6.2179  -24.3508  -49.9289 C.3       18 UNK         0.1400 
    101 CB        -7.4183  -24.1689  -48.9769 C.3       18 UNK        -0.1800 
    102 C         -5.6543  -23.0157  -50.4654 C.2       18 UNK         0.5000 
    103 O         -5.9478  -21.9599  -49.9039 O.2       18 UNK        -0.5000 
    104 N         -4.8542  -23.0931  -51.5428 N.am      19 UNK        -0.5000 
    105 CA        -4.2376  -21.9735  -52.2657 C.3       19 UNK         0.1400 
    106 CB        -3.2069  -21.2296  -51.3848 C.3       19 UNK        -0.1800 
    107 C         -5.2873  -21.0293  -52.8899 C.2       19 UNK         0.5000 
    108 O         -5.1724  -19.8075  -52.7662 O.2       19 UNK        -0.5000 
    109 N         -6.3000  -21.6208  -53.5434 N.am      20 UNK        -0.5000 
    110 CA        -7.4137  -20.9412  -54.2127 C.3       20 UNK         0.1400 
    111 CB        -8.2965  -21.9804  -54.9211 C.3       20 UNK        -0.1800 
    112 C         -6.9375  -19.8686  -55.2098 C.2       20 UNK         0.5000 
    113 O         -6.2444  -20.1982  -56.1760 O.2       20 UNK        -0.5000 
    114 N         -7.2670  -18.6029  -54.9118 N.am      21 UNK        -0.5000 
    115 CA        -6.8683  -17.3849  -55.6324 C.3       21 UNK         0.1400 
    116 CB        -7.5656  -17.3269  -57.0075 C.3       21 UNK        -0.1800 
    117 C         -5.3373  -17.1865  -55.7419 C.2       21 UNK         0.5000 
    118 O         -4.8778  -16.4638  -56.6279 O.2       21 UNK        -0.5000 
    119 N         -4.5742  -17.8396  -54.8532 N.am      22 UNK        -0.5000 
    120 CA        -3.1101  -17.9617  -54.8965 C.3       22 UNK         0.1400 
    121 C         -2.5726  -18.7947  -56.1048 C.2       22 UNK         0.5000 
    122 N         -3.3834  -19.6328  -56.7431 N.am      22 UNK        -0.7600 
    123 O         -1.4016  -18.7067  -56.4627 O.2       22 UNK        -0.5000 
    124 C124       -2.3990  -16.5920  -54.6910 C.3       23 UNK        -0.0398 
    125 S125       -0.8236  -16.7357  -53.7832 S.3       23 UNK        -0.2404 
    126 C126       -1.4250  -16.8076  -52.0665 C.3       23 UNK        -0.0205 
    127 H127        1.0373  -11.3383  -50.5823 H         1 UNK         0.0600 
    128 H128        2.6166  -10.5775  -50.7937 H         1 UNK         0.0600 
    129 H129        1.3923   -9.8021  -49.7846 H         1 UNK         0.0600 
    130 H130        4.1788  -11.5439  -49.6082 H         1 UNK         0.3000 
    131 H131        5.3194  -12.7738  -48.2280 H         1 UNK         0.0600 
    132 H132        4.4028  -14.3238  -46.5386 H         1 UNK         0.0800 
    133 H133        2.8062  -13.6543  -46.7234 H         1 UNK         0.0800 
    134 H134        1.5834  -15.8518  -47.2950 H         1 UNK         0.0800 
    135 H135        1.1023  -14.5563  -48.3621 H         1 UNK         0.0800 
    136 H136       -0.2625  -15.1973  -50.1855 H         1 UNK         0.1150 
    137 H137       -0.0841  -19.1575  -51.8188 H         1 UNK         0.1150 
    138 H138        2.5371  -18.0382  -48.6161 H         1 UNK         0.1150 
    139 H139        2.2385  -20.3431  -51.3071 H         1 UNK         0.0800 
    140 H140        2.8560  -20.1543  -49.6858 H         1 UNK         0.0800 
    141 H141       -0.3316  -20.2209  -47.9743 H         1 UNK         0.0800 
    142 H142        1.3784  -20.3186  -47.6651 H         1 UNK         0.0800 
    143 H143        1.1459  -22.7822  -47.1566 H         1 UNK         0.0600 
    144 H144        0.3769  -20.6367  -45.4657 H         1 UNK         0.3000 
    145 H145       -0.0522  -22.5223  -42.4665 H         1 UNK         0.0600 
    146 H146        1.5921  -20.8427  -41.6774 H         1 UNK         0.0600 
    147 H147        2.0647  -20.4830  -43.3366 H         1 UNK         0.0600 
    148 H148        2.3962  -22.0673  -42.6478 H         1 UNK         0.0600 
    149 H149       -0.3030  -19.7421  -42.9807 H         1 UNK         0.3000 
    150 H150       -3.7577  -19.7850  -44.0005 H         1 UNK         0.0600 
    151 H151       -3.6501  -19.8076  -41.4964 H         1 UNK         0.0600 
    152 H152       -3.8506  -18.1816  -42.1301 H         1 UNK         0.0600 
    153 H153       -2.2746  -18.7101  -41.5445 H         1 UNK         0.0600 
    154 H154       -1.9388  -17.6258  -43.7483 H         1 UNK         0.3000 
    155 H155       -0.6519  -17.7262  -47.1167 H         1 UNK         0.0600 
    156 H156       -2.7524  -16.4477  -47.2212 H         1 UNK         0.0600 
    157 H157       -1.4119  -15.3505  -46.9214 H         1 UNK         0.0600 
    158 H158       -2.4947  -15.8071  -45.6052 H         1 UNK         0.0600 
    159 H159       -0.0106  -16.0075  -44.9504 H         1 UNK         0.3000 
    160 H160        2.6133  -18.0129  -43.5616 H         1 UNK         0.0600 
    161 H161        2.6868  -15.3076  -44.9688 H         1 UNK         0.0600 
    162 H162        3.4465  -16.7443  -45.6459 H         1 UNK         0.0600 
    163 H163        3.9883  -16.1252  -44.1030 H         1 UNK         0.0600 
    164 H164        1.4527  -15.4121  -42.9827 H         1 UNK         0.3000 
    165 H165       -0.8584  -16.5888  -40.5364 H         1 UNK         0.0600 
    166 H166        0.3760  -14.9310  -39.1622 H         1 UNK         0.0600 
    167 H167        1.3036  -16.4148  -39.3252 H         1 UNK         0.0600 
    168 H168        1.7447  -14.9992  -40.2695 H         1 UNK         0.0600 
    169 H169       -0.1428  -13.9840  -41.5560 H         1 UNK         0.3000 
    170 H170       -2.5190  -13.9414  -44.2032 H         1 UNK         0.0600 
    171 H171       -2.8430  -12.6412  -41.4486 H         1 UNK         0.0600 
    172 H172       -3.6140  -12.1163  -42.9463 H         1 UNK         0.0600 
    173 H173       -4.0381  -13.6650  -42.2360 H         1 UNK         0.0600 
    174 H174       -1.1460  -11.7876  -43.0697 H         1 UNK         0.3000 
    175 H175        1.2016  -11.6028  -45.4326 H         1 UNK         0.0600 
    176 H176        0.3683  -10.4276  -42.7244 H         1 UNK         0.0600 
    177 H177        1.2146   -9.5859  -44.0149 H         1 UNK         0.0600 
    178 H178       -0.4334  -10.1214  -44.2684 H         1 UNK         0.0600 
    179 H179        3.1416  -11.7938  -44.3989 H         1 UNK         0.3000 
    180 H180        4.3339  -11.8709  -41.3677 H         1 UNK         0.0600 
    181 H181        5.5126  -14.1067  -41.4307 H         1 UNK         0.0600 
    182 H182        4.1496  -14.7634  -42.3351 H         1 UNK         0.0600 
    183 H183        3.9209  -14.1672  -40.6996 H         1 UNK         0.0600 
    184 H184        5.2294  -13.0564  -43.9334 H         1 UNK         0.3000 
    185 H185        6.3552   -9.9226  -45.1758 H         1 UNK         0.0600 
    186 H186        8.4662  -11.1758  -45.4874 H         1 UNK         0.0600 
    187 H187        8.2710  -10.7449  -43.7966 H         1 UNK         0.0600 
    188 H188        7.9537  -12.3945  -44.3194 H         1 UNK         0.0600 
    189 H189        6.4860  -12.4979  -46.3243 H         1 UNK         0.3000 
    190 H190       -2.1028  -21.2748  -46.6335 H         1 UNK         0.3000 
    191 H191       -3.5809  -22.9678  -48.2690 H         1 UNK         0.0600 
    192 H192       -4.4174  -20.8188  -47.3982 H         1 UNK         0.0600 
    193 H193       -4.4346  -21.4485  -45.7498 H         1 UNK         0.0600 
    194 H194       -5.5389  -22.0942  -46.9583 H         1 UNK         0.0600 
    195 H195       -2.4642  -23.6257  -44.9917 H         1 UNK         0.3000 
    196 H196       -4.1511  -25.8740  -44.4500 H         1 UNK         0.0600 
    197 H197       -2.9391  -24.6114  -42.6858 H         1 UNK         0.0600 
    198 H198       -1.3901  -25.1321  -43.3468 H         1 UNK         0.0600 
    199 H199       -2.4912  -26.3096  -42.6428 H         1 UNK         0.0600 
    200 H200       -1.3723  -25.5576  -46.5561 H         1 UNK         0.3000 
    201 H201       -1.0136  -28.5366  -46.6873 H         1 UNK         0.0600 
    202 H202        0.9473  -27.3658  -45.7244 H         1 UNK         0.0600 
    203 H203        1.0181  -26.2856  -47.1148 H         1 UNK         0.0600 
    204 H204        1.3356  -28.0065  -47.3141 H         1 UNK         0.0600 
    205 H205       -1.2818  -25.5082  -48.5604 H         1 UNK         0.3000 
    206 H206       -0.6174  -26.5259  -51.0853 H         1 UNK         0.0600 
    207 H207       -2.3504  -24.1394  -50.2591 H         1 UNK         0.0600 
    208 H208       -0.6070  -24.1222  -50.5183 H         1 UNK         0.0600 
    209 H209       -1.6930  -24.3751  -51.8754 H         1 UNK         0.0600 
    210 H210       -1.8221  -26.9437  -52.9438 H         1 UNK         0.3000 
    211 H211       -4.1766  -28.5252  -52.7584 H         1 UNK         0.0600 
    212 H212       -2.8702  -27.1375  -55.1655 H         1 UNK         0.0600 
    213 H213       -4.0916  -28.4004  -55.2578 H         1 UNK         0.0600 
    214 H214       -2.5091  -28.7652  -54.5883 H         1 UNK         0.0600 
    215 H215       -6.2874  -28.0330  -52.9707 H         1 UNK         0.3000 
    216 H216       -8.2015  -26.9418  -52.8111 H         1 UNK         0.0600 
    217 H217       -8.7280  -25.2264  -54.5003 H         1 UNK         0.0600 
    218 H218       -7.7510  -26.4822  -55.2386 H         1 UNK         0.0600 
    219 H219       -7.0208  -24.9372  -54.8077 H         1 UNK         0.0600 
    220 H220       -5.9512  -26.1390  -50.9944 H         1 UNK         0.3000 
    221 H221       -5.4077  -24.8054  -49.3605 H         1 UNK         0.0600 
    222 H222       -8.2501  -23.6598  -49.4644 H         1 UNK         0.0600 
    223 H223       -7.7788  -25.1300  -48.6106 H         1 UNK         0.0600 
    224 H224       -7.1383  -23.5778  -48.1048 H         1 UNK         0.0600 
    225 H225       -4.7232  -24.0026  -51.9733 H         1 UNK         0.3000 
    226 H226       -3.6929  -22.4153  -53.1014 H         1 UNK         0.0600 
    227 H227       -2.4513  -21.9058  -50.9893 H         1 UNK         0.0600 
    228 H228       -2.6802  -20.4677  -51.9607 H         1 UNK         0.0600 
    229 H229       -3.6776  -20.7267  -50.5397 H         1 UNK         0.0600 
    230 H230       -6.3186  -22.6296  -53.5713 H         1 UNK         0.3000 
    231 H231       -8.0138  -20.4614  -53.4372 H         1 UNK         0.0600 
    232 H232       -9.1135  -21.4979  -55.4593 H         1 UNK         0.0600 
    233 H233       -8.7467  -22.6692  -54.2077 H         1 UNK         0.0600 
    234 H234       -7.7283  -22.5664  -55.6445 H         1 UNK         0.0600 
    235 H235       -7.8019  -18.4416  -54.0695 H         1 UNK         0.3000 
    236 H236       -7.2362  -16.5462  -55.0398 H         1 UNK         0.0600 
    237 H237       -7.1953  -18.1003  -57.6812 H         1 UNK         0.0600 
    238 H238       -8.6434  -17.4560  -56.9090 H         1 UNK         0.0600 
    239 H239       -7.4000  -16.3644  -57.4928 H         1 UNK         0.0600 
    240 H240       -5.0284  -18.4205  -54.1541 H         1 UNK         0.3000 
    241 H241       -2.8825  -18.5845  -54.0315 H         1 UNK         0.0600 
    242 H242       -4.3589  -19.7342  -56.4785 H         1 UNK         0.3800 
    243 H243       -3.0239  -20.1686  -57.5167 H         1 UNK         0.3800 
    244 H244       -3.0384  -15.9092  -54.1298 H         1 UNK         0.0800 
    245 H245       -2.2170  -16.1012  -55.6484 H         1 UNK         0.0800 
    246 H246       -1.8882  -15.8543  -51.8071 H         1 UNK         0.0800 
    247 H247       -2.2043  -17.5657  -51.9761 H         1 UNK         0.0800 
@<TRIPOS>BOND
     1    1    2 1    
     2    1  127 1    
     3    1  128 1    
     4    1  129 1    
     5    2    3 2    
     6    2    4 am   BACKBONE|DICT|INTERRES
     7    4    5 1    
     8    4  130 1    
     9    5    6 1    
    10    5   65 1    
    11    5  131 1    
    12    6    7 1    
    13    6  132 1    
    14    6  133 1    
    15    7    8 1    
    16    8    9 1    
    17    8  134 1    
    18    8  135 1    
    19    9   10 ar   
    20    9   14 ar   
    21   10   11 ar   
    22   10  136 1    
    23   11   12 ar   
    24   11  126 1    
    25   12   13 ar   
    26   12  137 1    
    27   13   14 ar   
    28   13   15 1    
    29   14  138 1    
    30   15   16 1    
    31   15  139 1    
    32   15  140 1    
    33   16   17 1    
    34   17   18 1    
    35   17  141 1    
    36   17  142 1    
    37   18   19 1    
    38   18   67 1    
    39   18  143 1    
    40   19   20 am   BACKBONE|DICT|INTERRES
    41   19  144 1    
    42   20   21 2    
    43   20   22 1    
    44   22   23 1    
    45   22   24 1    
    46   22  145 1    
    47   23  146 1    
    48   23  147 1    
    49   23  148 1    
    50   24   25 am   BACKBONE|DICT|INTERRES
    51   24  149 1    
    52   25   26 2    
    53   25   27 1    
    54   27   28 1    
    55   27   29 1    
    56   27  150 1    
    57   28  151 1    
    58   28  152 1    
    59   28  153 1    
    60   29   30 am   BACKBONE|DICT|INTERRES
    61   29  154 1    
    62   30   31 2    
    63   30   32 1    
    64   32   33 1    
    65   32   34 1    
    66   32  155 1    
    67   33  156 1    
    68   33  157 1    
    69   33  158 1    
    70   34   35 am   BACKBONE|DICT|INTERRES
    71   34  159 1    
    72   35   36 2    
    73   35   37 1    
    74   37   38 1    
    75   37   39 1    
    76   37  160 1    
    77   38  161 1    
    78   38  162 1    
    79   38  163 1    
    80   39   40 am   BACKBONE|DICT|INTERRES
    81   39  164 1    
    82   40   41 2    
    83   40   42 1    
    84   42   43 1    
    85   42   44 1    
    86   42  165 1    
    87   43  166 1    
    88   43  167 1    
    89   43  168 1    
    90   44   45 am   BACKBONE|DICT|INTERRES
    91   44  169 1    
    92   45   46 2    
    93   45   47 1    
    94   47   48 1    
    95   47   49 1    
    96   47  170 1    
    97   48  171 1    
    98   48  172 1    
    99   48  173 1    
   100   49   50 am   BACKBONE|DICT|INTERRES
   101   49  174 1    
   102   50   51 2    
   103   50   52 1    
   104   52   53 1    
   105   52   54 1    
   106   52  175 1    
   107   53  176 1    
   108   53  177 1    
   109   53  178 1    
   110   54   55 am   BACKBONE|DICT|INTERRES
   111   54  179 1    
   112   55   56 2    
   113   55   57 1    
   114   57   58 1    
   115   57   59 1    
   116   57  180 1    
   117   58  181 1    
   118   58  182 1    
   119   58  183 1    
   120   59   60 am   BACKBONE|DICT|INTERRES
   121   59  184 1    
   122   60   61 2    
   123   60   62 1    
   124   62   63 1    
   125   62   64 1    
   126   62  185 1    
   127   63  186 1    
   128   63  187 1    
   129   63  188 1    
   130   64   65 am   BACKBONE|DICT|INTERRES
   131   64  189 1    
   132   65   66 2    
   133   67   68 2    
   134   67   69 am   BACKBONE|DICT|INTERRES
   135   69   70 1    
   136   69  190 1    
   137   70   71 1    
   138   70   72 1    
   139   70  191 1    
   140   71  192 1    
   141   71  193 1    
   142   71  194 1    
   143   72   73 2    
   144   72   74 am   BACKBONE|DICT|INTERRES
   145   74   75 1    
   146   74  195 1    
   147   75   76 1    
   148   75   77 1    
   149   75  196 1    
   150   76  197 1    
   151   76  198 1    
   152   76  199 1    
   153   77   78 2    
   154   77   79 am   BACKBONE|DICT|INTERRES
   155   79   80 1    
   156   79  200 1    
   157   80   81 1    
   158   80   82 1    
   159   80  201 1    
   160   81  202 1    
   161   81  203 1    
   162   81  204 1    
   163   82   83 2    
   164   82   84 am   BACKBONE|DICT|INTERRES
   165   84   85 1    
   166   84  205 1    
   167   85   86 1    
   168   85   87 1    
   169   85  206 1    
   170   86  207 1    
   171   86  208 1    
   172   86  209 1    
   173   87   88 2    
   174   87   89 am   BACKBONE|DICT|INTERRES
   175   89   90 1    
   176   89  210 1    
   177   90   91 1    
   178   90   92 1    
   179   90  211 1    
   180   91  212 1    
   181   91  213 1    
   182   91  214 1    
   183   92   93 2    
   184   92   94 am   BACKBONE|DICT|INTERRES
   185   94   95 1    
   186   94  215 1    
   187   95   96 1    
   188   95   97 1    
   189   95  216 1    
   190   96  217 1    
   191   96  218 1    
   192   96  219 1    
   193   97   98 2    
   194   97   99 am   BACKBONE|DICT|INTERRES
   195   99  100 1    
   196   99  220 1    
   197  100  101 1    
   198  100  102 1    
   199  100  221 1    
   200  101  222 1    
   201  101  223 1    
   202  101  224 1    
   203  102  103 2    
   204  102  104 am   BACKBONE|DICT|INTERRES
   205  104  105 1    
   206  104  225 1    
   207  105  106 1    
   208  105  107 1    
   209  105  226 1    
   210  106  227 1    
   211  106  228 1    
   212  106  229 1    
   213  107  108 2    
   214  107  109 am   BACKBONE|DICT|INTERRES
   215  109  110 1    
   216  109  230 1    
   217  110  111 1    
   218  110  112 1    
   219  110  231 1    
   220  111  232 1    
   221  111  233 1    
   222  111  234 1    
   223  112  113 2    
   224  112  114 am   BACKBONE|DICT|INTERRES
   225  114  115 1    
   226  114  235 1    
   227  115  116 1    
   228  115  117 1    
   229  115  236 1    
   230  116  237 1    
   231  116  238 1    
   232  116  239 1    
   233  117  118 2    
   234  117  119 am   BACKBONE|DICT|INTERRES
   235  119  120 1    
   236  119  240 1    
   237  120  121 1    
   238  120  124 1    
   239  120  241 1    
   240  121  122 am   BACKBONE|DICT|INTERRES
   241  121  123 2    
   242  122  242 1    
   243  122  243 1    
   244  124  125 1    
   245  124  244 1    
   246  124  245 1    
   247  125  126 1    
   248  126  246 1    
   249  126  247 1    
@<TRIPOS>SUBSTRUCTURE
     1 UNK         1 GROUP             0       ****    0 ROOT    
