@<TRIPOS>MOLECULE
3R540
247   249    1
SMALL
USER_CHARGES


@<TRIPOS>ATOM
      1 CA         -0.5799  -16.2868  -52.8975 C.3       0 UNK        -0.1800 
      2 C          -0.8854  -15.6359  -51.5583 C.2       0 UNK         0.5000 
      3 O          -1.8311  -14.8542  -51.4582 O.2       0 UNK        -0.5000 
      4 N          -0.0864  -15.9478  -50.5322 N.am      1 UNK        -0.5000 
      5 CA         -0.2525  -15.4444  -49.1669 C.3       1 UNK         0.1400 
      6 C6          1.0406  -15.5548  -48.3159 C.3       23 UNK        -0.0398 
      7 S7          2.5445  -14.9565  -49.1662 S.3       23 UNK        -0.2404 
      8 C8          3.5397  -16.4793  -49.3184 C.3       23 UNK        -0.0205 
      9 C9          2.9751  -17.4559  -50.3411 C.ar      23 UNK        -0.0193 
     10 C10         3.3872  -17.3906  -51.6767 C.ar      23 UNK        -0.1150 
     11 C11         2.8952  -18.3019  -52.6160 C.ar      23 UNK        -0.0193 
     12 C12         1.9849  -19.2798  -52.2095 C.ar      23 UNK        -0.1150 
     13 C13         1.5274  -19.3250  -50.8920 C.ar      23 UNK        -0.0193 
     14 C14         2.0476  -18.4302  -49.9549 C.ar      23 UNK        -0.1150 
     15 C15         0.4225  -20.2946  -50.5075 C.3       23 UNK        -0.0205 
     16 S16         1.0422  -21.9648  -50.1565 S.3       23 UNK        -0.2404 
     17 C17         1.3922  -21.8539  -48.3717 C.3       23 UNK        -0.0398 
     18 CA          0.2183  -22.3889  -47.5104 C.3       11 UNK         0.1400 
     19 N           0.6974  -23.0002  -46.2680 N.am      11 UNK        -0.5000 
     20 C          -0.0628  -23.7305  -45.4404 C.2       10 UNK         0.5000 
     21 O          -1.2502  -23.9770  -45.6451 O.2       10 UNK        -0.5000 
     22 CA          0.5970  -24.2398  -44.1457 C.3       10 UNK         0.1400 
     23 CB          1.1971  -25.6359  -44.3678 C.3       10 UNK        -0.1800 
     24 N           1.6289  -23.3577  -43.5964 N.am      10 UNK        -0.5000 
     25 C           1.4805  -22.0646  -43.2758 C.2       9 UNK         0.5000 
     26 O           0.4454  -21.4255  -43.4784 O.2       9 UNK        -0.5000 
     27 CA          2.6886  -21.3596  -42.6228 C.3       9 UNK         0.1400 
     28 CB          3.9582  -22.2358  -42.5280 C.3       9 UNK        -0.1800 
     29 N           3.0199  -20.0859  -43.2636 N.am      9 UNK        -0.5000 
     30 C           3.2920  -19.8702  -44.5601 C.2       8 UNK         0.5000 
     31 O           3.1668  -20.7208  -45.4436 O.2       8 UNK        -0.5000 
     32 CA          3.8098  -18.4667  -44.9365 C.3       8 UNK         0.1400 
     33 CB          2.7239  -17.6523  -45.6479 C.3       8 UNK        -0.1800 
     34 N           4.2770  -17.6845  -43.7926 N.am      8 UNK        -0.5000 
     35 C           5.4022  -17.8795  -43.0989 C.2       7 UNK         0.5000 
     36 O           6.2192  -18.7622  -43.3615 O.2       7 UNK        -0.5000 
     37 CA          5.6522  -16.9430  -41.8978 C.3       7 UNK         0.1400 
     38 CB          6.2976  -15.6218  -42.3570 C.3       7 UNK        -0.1800 
     39 N           4.4806  -16.6915  -41.0399 N.am      7 UNK        -0.5000 
     40 C           3.3345  -16.0572  -41.3282 C.2       6 UNK         0.5000 
     41 O           3.0532  -15.6024  -42.4388 O.2       6 UNK        -0.5000 
     42 CA          2.3202  -15.9202  -40.1811 C.3       6 UNK         0.1400 
     43 CB          1.9758  -14.4449  -39.9222 C.3       6 UNK        -0.1800 
     44 N           1.0908  -16.6470  -40.4827 N.am      6 UNK        -0.5000 
     45 C           0.9521  -17.9774  -40.4549 C.2       5 UNK         0.5000 
     46 O           1.8649  -18.7545  -40.1715 O.2       5 UNK        -0.5000 
     47 CA         -0.4581  -18.5031  -40.7707 C.3       5 UNK         0.1400 
     48 CB         -0.6415  -20.0024  -40.4814 C.3       5 UNK        -0.1800 
     49 N          -1.4415  -17.7481  -39.9899 N.am      5 UNK        -0.5000 
     50 C          -2.6457  -17.2958  -40.3649 C.2       4 UNK         0.5000 
     51 O          -3.3374  -16.6266  -39.5971 O.2       4 UNK        -0.5000 
     52 CA         -3.1823  -17.5753  -41.7899 C.3       4 UNK         0.1400 
     53 CB         -4.6336  -18.0822  -41.7387 C.3       4 UNK        -0.1800 
     54 N          -3.1350  -16.3935  -42.6556 N.am      4 UNK        -0.5000 
     55 C          -2.1098  -15.5509  -42.8484 C.2       3 UNK         0.5000 
     56 O          -1.0076  -15.6657  -42.3099 O.2       3 UNK        -0.5000 
     57 CA         -2.3510  -14.4223  -43.8718 C.3       3 UNK         0.1400 
     58 CB         -1.2189  -13.3786  -43.8722 C.3       3 UNK        -0.1800 
     59 N          -2.4971  -14.9491  -45.2305 N.am      3 UNK        -0.5000 
     60 C          -3.5858  -15.5539  -45.7271 C.2       2 UNK         0.5000 
     61 O          -4.6124  -15.7336  -45.0703 O.2       2 UNK        -0.5000 
     62 CA         -3.5243  -16.0317  -47.1920 C.3       2 UNK         0.1400 
     63 CB         -4.8076  -15.6640  -47.9579 C.3       2 UNK        -0.1800 
     64 N          -2.3648  -15.4786  -47.9037 N.am      2 UNK        -0.5000 
     65 C          -1.4030  -16.2074  -48.4826 C.2       1 UNK         0.5000 
     66 O          -1.3777  -17.4386  -48.4794 O.2       1 UNK        -0.5000 
     67 C          -0.8356  -21.2932  -47.2378 C.2       11 UNK         0.5000 
     68 O          -1.8449  -21.2167  -47.9437 O.2       11 UNK        -0.5000 
     69 N          -0.5907  -20.4885  -46.1945 N.am      12 UNK        -0.5000 
     70 CA         -1.4924  -19.4327  -45.7467 C.3       12 UNK         0.1400 
     71 CB         -0.6997  -18.3309  -45.0423 C.3       12 UNK        -0.1800 
     72 C          -2.6246  -19.9603  -44.8606 C.2       12 UNK         0.5000 
     73 O          -3.7336  -19.4363  -44.9473 O.2       12 UNK        -0.5000 
     74 N          -2.3610  -21.0142  -44.0743 N.am      13 UNK        -0.5000 
     75 CA         -3.3791  -21.7538  -43.3184 C.3       13 UNK         0.1400 
     76 CB         -2.7045  -22.8287  -42.4540 C.3       13 UNK        -0.1800 
     77 C          -4.4405  -22.3933  -44.2381 C.2       13 UNK         0.5000 
     78 O          -5.6181  -22.4297  -43.8830 O.2       13 UNK        -0.5000 
     79 N          -4.0042  -22.8283  -45.4283 N.am      14 UNK        -0.5000 
     80 CA         -4.8415  -23.3069  -46.5271 C.3       14 UNK         0.1400 
     81 CB         -3.9936  -24.2235  -47.4254 C.3       14 UNK        -0.1800 
     82 C          -5.4894  -22.1747  -47.3550 C.2       14 UNK         0.5000 
     83 O          -6.1282  -22.4792  -48.3612 O.2       14 UNK        -0.5000 
     84 N          -5.3161  -20.9064  -46.9491 N.am      15 UNK        -0.5000 
     85 CA         -5.8553  -19.6903  -47.5662 C.3       15 UNK         0.1400 
     86 CB         -7.3904  -19.6423  -47.4230 C.3       15 UNK        -0.1800 
     87 C          -5.3809  -19.5202  -49.0210 C.2       15 UNK         0.5000 
     88 O          -6.1914  -19.5599  -49.9486 O.2       15 UNK        -0.5000 
     89 N          -4.0579  -19.3781  -49.1883 N.am      16 UNK        -0.5000 
     90 CA         -3.3511  -19.2648  -50.4685 C.3       16 UNK         0.1400 
     91 CB         -3.7247  -17.9569  -51.1971 C.3       16 UNK        -0.1800 
     92 C          -3.5312  -20.5245  -51.3366 C.2       16 UNK         0.5000 
     93 O          -3.7930  -20.4207  -52.5368 O.2       16 UNK        -0.5000 
     94 N          -3.4203  -21.6937  -50.6864 N.am      17 UNK        -0.5000 
     95 CA         -3.6343  -23.0325  -51.2462 C.3       17 UNK         0.1400 
     96 CB         -2.4756  -23.3978  -52.1976 C.3       17 UNK        -0.1800 
     97 C          -5.0238  -23.1711  -51.9073 C.2       17 UNK         0.5000 
     98 O          -5.1166  -23.5195  -53.0841 O.2       17 UNK        -0.5000 
     99 N          -6.0767  -22.8324  -51.1482 N.am      18 UNK        -0.5000 
    100 CA        -7.4785  -22.7320  -51.5721 C.3       18 UNK         0.1400 
    101 CB        -8.0530  -24.1255  -51.9012 C.3       18 UNK        -0.1800 
    102 C         -7.6800  -21.7044  -52.7078 C.2       18 UNK         0.5000 
    103 O         -8.4283  -21.9579  -53.6536 O.2       18 UNK        -0.5000 
    104 N         -6.9769  -20.5689  -52.5907 N.am      19 UNK        -0.5000 
    105 CA        -6.9022  -19.4441  -53.5283 C.3       19 UNK         0.1400 
    106 CB        -8.2638  -18.7246  -53.6179 C.3       19 UNK        -0.1800 
    107 C         -6.3218  -19.7909  -54.9191 C.2       19 UNK         0.5000 
    108 O         -6.5092  -19.0151  -55.8584 O.2       19 UNK        -0.5000 
    109 N         -5.6254  -20.9294  -55.0438 N.am      20 UNK        -0.5000 
    110 CA        -5.0165  -21.3856  -56.2944 C.3       20 UNK         0.1400 
    111 CB        -4.9577  -22.9205  -56.2972 C.3       20 UNK        -0.1800 
    112 C         -3.6111  -20.8013  -56.5266 C.2       20 UNK         0.5000 
    113 O         -3.1510  -20.7899  -57.6697 O.2       20 UNK        -0.5000 
    114 N         -2.9388  -20.3573  -55.4558 N.am      21 UNK        -0.5000 
    115 CA        -1.5790  -19.8207  -55.5003 C.3       21 UNK         0.1400 
    116 CB        -1.0504  -19.7248  -54.0653 C.3       21 UNK        -0.1800 
    117 C         -1.4867  -18.4384  -56.1877 C.2       21 UNK         0.5000 
    118 O         -2.4771  -17.7066  -56.2024 O.2       21 UNK        -0.5000 
    119 N         -0.3198  -18.0315  -56.7106 N.am      22 UNK        -0.5000 
    120 CA         0.9437  -18.7912  -56.8322 C.3       22 UNK         0.1400 
    121 C          1.0469  -19.6299  -58.1411 C.2       22 UNK         0.5000 
    122 N          0.0540  -19.6198  -59.0216 N.am      22 UNK        -0.7600 
    123 O          2.0383  -20.3221  -58.3525 O.2       22 UNK        -0.5000 
    124 C124        2.1854  -17.8770  -56.6499 C.3       23 UNK        -0.0398 
    125 S125        2.2303  -17.0931  -55.0018 S.3       23 UNK        -0.2404 
    126 C126        3.3178  -18.2234  -54.0749 C.3       23 UNK        -0.0205 
    127 H127       -1.4976  -16.6256  -53.3774 H         1 UNK         0.0600 
    128 H128       -0.0958  -15.5699  -53.5602 H         1 UNK         0.0600 
    129 H129        0.0800  -17.1451  -52.7801 H         1 UNK         0.0600 
    130 H130        0.6758  -16.5979  -50.6665 H         1 UNK         0.3000 
    131 H131       -0.5156  -14.3861  -49.2293 H         1 UNK         0.0600 
    132 H132        0.9273  -14.9675  -47.4032 H         1 UNK         0.0800 
    133 H133        1.2034  -16.5760  -47.9765 H         1 UNK         0.0800 
    134 H134        3.6328  -16.9647  -48.3476 H         1 UNK         0.0800 
    135 H135        4.5542  -16.1992  -49.6059 H         1 UNK         0.0800 
    136 H136        4.0903  -16.6300  -51.9863 H         1 UNK         0.1150 
    137 H137        1.6117  -19.9960  -52.9259 H         1 UNK         0.1150 
    138 H138        1.7118  -18.4867  -48.9303 H         1 UNK         0.1150 
    139 H139       -0.1327  -19.9074  -49.6535 H         1 UNK         0.0800 
    140 H140       -0.2973  -20.3621  -51.3226 H         1 UNK         0.0800 
    141 H141        1.6825  -20.8392  -48.0929 H         1 UNK         0.0800 
    142 H142        2.2824  -22.4621  -48.2049 H         1 UNK         0.0800 
    143 H143       -0.2846  -23.1843  -48.0656 H         1 UNK         0.0600 
    144 H144        1.6528  -22.8049  -46.0008 H         1 UNK         0.3000 
    145 H145       -0.1839  -24.3275  -43.3902 H         1 UNK         0.0600 
    146 H146        1.5745  -26.0571  -43.4358 H         1 UNK         0.0600 
    147 H147        0.4467  -26.3273  -44.7538 H         1 UNK         0.0600 
    148 H148        2.0198  -25.6110  -45.0836 H         1 UNK         0.0600 
    149 H149        2.5234  -23.7872  -43.4107 H         1 UNK         0.3000 
    150 H150        2.3817  -21.1191  -41.6046 H         1 UNK         0.0600 
    151 H151        3.7802  -23.1365  -41.9392 H         1 UNK         0.0600 
    152 H152        4.7660  -21.6932  -42.0363 H         1 UNK         0.0600 
    153 H153        4.3207  -22.5389  -43.5112 H         1 UNK         0.0600 
    154 H154        3.1171  -19.3016  -42.6354 H         1 UNK         0.3000 
    155 H155        4.6444  -18.6060  -45.6266 H         1 UNK         0.0600 
    156 H156        2.2624  -18.2209  -46.4562 H         1 UNK         0.0600 
    157 H157        3.1391  -16.7402  -46.0758 H         1 UNK         0.0600 
    158 H158        1.9439  -17.3525  -44.9494 H         1 UNK         0.0600 
    159 H159        3.6845  -16.9127  -43.4908 H         1 UNK         0.3000 
    160 H160        6.3763  -17.4511  -41.2589 H         1 UNK         0.0600 
    161 H161        5.6390  -15.0511  -43.0123 H         1 UNK         0.0600 
    162 H162        7.2196  -15.8106  -42.9083 H         1 UNK         0.0600 
    163 H163        6.5522  -14.9908  -41.5055 H         1 UNK         0.0600 
    164 H164        4.5693  -17.0675  -40.1057 H         1 UNK         0.3000 
    165 H165        2.7526  -16.3317  -39.2665 H         1 UNK         0.0600 
    166 H166        1.3012  -14.3414  -39.0722 H         1 UNK         0.0600 
    167 H167        2.8736  -13.8674  -39.6981 H         1 UNK         0.0600 
    168 H168        1.4956  -13.9852  -40.7875 H         1 UNK         0.0600 
    169 H169        0.3157  -16.0994  -40.8452 H         1 UNK         0.3000 
    170 H170       -0.5708  -18.3339  -41.8404 H         1 UNK         0.0600 
    171 H171       -1.6345  -20.3389  -40.7776 H         1 UNK         0.0600 
    172 H172        0.0823  -20.6038  -41.0270 H         1 UNK         0.0600 
    173 H173       -0.5161  -20.2234  -39.4210 H         1 UNK         0.0600 
    174 H174       -1.1225  -17.5007  -39.0640 H         1 UNK         0.3000 
    175 H175       -2.6151  -18.3658  -42.2744 H         1 UNK         0.0600 
    176 H176       -4.7153  -18.9684  -41.1081 H         1 UNK         0.0600 
    177 H177       -5.3128  -17.3284  -41.3384 H         1 UNK         0.0600 
    178 H178       -4.9908  -18.3577  -42.7312 H         1 UNK         0.0600 
    179 H179       -3.9651  -16.2263  -43.2144 H         1 UNK         0.3000 
    180 H180       -3.2739  -13.9122  -43.5877 H         1 UNK         0.0600 
    181 H181       -1.0845  -12.9480  -42.8790 H         1 UNK         0.0600 
    182 H182       -1.4403  -12.5568  -44.5534 H         1 UNK         0.0600 
    183 H183       -0.2653  -13.8155  -44.1718 H         1 UNK         0.0600 
    184 H184       -1.6847  -14.8747  -45.8227 H         1 UNK         0.3000 
    185 H185       -3.4636  -17.1202  -47.1486 H         1 UNK         0.0600 
    186 H186       -5.6891  -16.1002  -47.4861 H         1 UNK         0.0600 
    187 H187       -4.9552  -14.5843  -47.9983 H         1 UNK         0.0600 
    188 H188       -4.7782  -16.0353  -48.9813 H         1 UNK         0.0600 
    189 H189       -2.3296  -14.4706  -47.9734 H         1 UNK         0.3000 
    190 H190        0.2178  -20.6719  -45.6141 H         1 UNK         0.3000 
    191 H191       -1.9731  -18.9898  -46.6178 H         1 UNK         0.0600 
    192 H192       -0.0348  -18.7283  -44.2749 H         1 UNK         0.0600 
    193 H193       -1.3674  -17.6164  -44.5679 H         1 UNK         0.0600 
    194 H194       -0.1093  -17.7750  -45.7682 H         1 UNK         0.0600 
    195 H195       -1.4016  -21.3419  -44.0036 H         1 UNK         0.3000 
    196 H196       -3.8817  -21.0440  -42.6584 H         1 UNK         0.0600 
    197 H197       -3.4129  -23.2475  -41.7386 H         1 UNK         0.0600 
    198 H198       -1.8653  -22.4272  -41.8873 H         1 UNK         0.0600 
    199 H199       -2.3351  -23.6539  -43.0614 H         1 UNK         0.0600 
    200 H200       -3.0052  -22.8296  -45.6018 H         1 UNK         0.3000 
    201 H201       -5.6559  -23.9028  -46.1107 H         1 UNK         0.0600 
    202 H202       -3.5758  -25.0537  -46.8558 H         1 UNK         0.0600 
    203 H203       -3.1641  -23.6824  -47.8816 H         1 UNK         0.0600 
    204 H204       -4.5910  -24.6553  -48.2291 H         1 UNK         0.0600 
    205 H205       -4.7617  -20.7435  -46.1166 H         1 UNK         0.3000 
    206 H206       -5.4509  -18.8472  -47.0045 H         1 UNK         0.0600 
    207 H207       -7.6895  -19.7171  -46.3775 H         1 UNK         0.0600 
    208 H208       -7.7865  -18.7022  -47.8084 H         1 UNK         0.0600 
    209 H209       -7.8784  -20.4498  -47.9697 H         1 UNK         0.0600 
    210 H210       -3.4564  -19.4407  -48.3782 H         1 UNK         0.3000 
    211 H211       -2.2895  -19.2119  -50.2339 H         1 UNK         0.0600 
    212 H212       -4.7890  -17.8944  -51.4175 H         1 UNK         0.0600 
    213 H213       -3.1932  -17.8629  -52.1428 H         1 UNK         0.0600 
    214 H214       -3.4589  -17.0894  -50.5958 H         1 UNK         0.0600 
    215 H215       -3.1862  -21.6561  -49.7013 H         1 UNK         0.3000 
    216 H216       -3.6130  -23.7330  -50.4111 H         1 UNK         0.0600 
    217 H217       -2.5675  -24.4268  -52.5465 H         1 UNK         0.0600 
    218 H218       -1.5117  -23.3087  -51.6964 H         1 UNK         0.0600 
    219 H219       -2.4549  -22.7551  -53.0784 H         1 UNK         0.0600 
    220 H220       -5.9163  -22.5717  -50.1767 H         1 UNK         0.3000 
    221 H221       -8.0262  -22.3442  -50.7119 H         1 UNK         0.0600 
    222 H222       -7.5886  -24.5577  -52.7880 H         1 UNK         0.0600 
    223 H223       -7.9040  -24.8179  -51.0727 H         1 UNK         0.0600 
    224 H224       -9.1259  -24.0706  -52.0885 H         1 UNK         0.0600 
    225 H225       -6.4282  -20.4461  -51.7448 H         1 UNK         0.3000 
    226 H226       -6.1940  -18.7434  -53.0869 H         1 UNK         0.0600 
    227 H227       -9.0151  -19.3407  -54.1126 H         1 UNK         0.0600 
    228 H228       -8.6386  -18.4676  -52.6271 H         1 UNK         0.0600 
    229 H229       -8.1813  -17.7947  -54.1815 H         1 UNK         0.0600 
    230 H230       -5.4871  -21.5121  -54.2267 H         1 UNK         0.3000 
    231 H231       -5.6462  -21.0774  -57.1317 H         1 UNK         0.0600 
    232 H232       -5.9350  -23.3566  -56.0891 H         1 UNK         0.0600 
    233 H233       -4.2551  -23.2968  -55.5532 H         1 UNK         0.0600 
    234 H234       -4.6327  -23.2948  -57.2686 H         1 UNK         0.0600 
    235 H235       -3.3900  -20.3775  -54.5466 H         1 UNK         0.3000 
    236 H236       -0.9751  -20.5402  -56.0544 H         1 UNK         0.0600 
    237 H237       -0.0776  -19.2414  -54.0448 H         1 UNK         0.0600 
    238 H238       -1.7062  -19.1252  -53.4373 H         1 UNK         0.0600 
    239 H239       -0.9485  -20.7110  -53.6129 H         1 UNK         0.0600 
    240 H240       -0.2896  -17.1100  -57.1199 H         1 UNK         0.3000 
    241 H241        1.0045  -19.5267  -56.0319 H         1 UNK         0.0600 
    242 H242       -0.7770  -19.0723  -58.8601 H         1 UNK         0.3800 
    243 H243        0.1293  -20.1757  -59.8593 H         1 UNK         0.3800 
    244 H244        3.1130  -18.4336  -56.7955 H         1 UNK         0.0800 
    245 H245        2.1881  -17.0891  -57.4046 H         1 UNK         0.0800 
    246 H246        3.2881  -19.2208  -54.5164 H         1 UNK         0.0800 
    247 H247        4.3505  -17.8809  -54.1550 H         1 UNK         0.0800 
@<TRIPOS>BOND
     1    1    2 1    
     2    1  127 1    
     3    1  128 1    
     4    1  129 1    
     5    2    3 2    
     6    2    4 am   BACKBONE|DICT|INTERRES
     7    4    5 1    
     8    4  130 1    
     9    5    6 1    
    10    5   65 1    
    11    5  131 1    
    12    6    7 1    
    13    6  132 1    
    14    6  133 1    
    15    7    8 1    
    16    8    9 1    
    17    8  134 1    
    18    8  135 1    
    19    9   10 ar   
    20    9   14 ar   
    21   10   11 ar   
    22   10  136 1    
    23   11   12 ar   
    24   11  126 1    
    25   12   13 ar   
    26   12  137 1    
    27   13   14 ar   
    28   13   15 1    
    29   14  138 1    
    30   15   16 1    
    31   15  139 1    
    32   15  140 1    
    33   16   17 1    
    34   17   18 1    
    35   17  141 1    
    36   17  142 1    
    37   18   19 1    
    38   18   67 1    
    39   18  143 1    
    40   19   20 am   BACKBONE|DICT|INTERRES
    41   19  144 1    
    42   20   21 2    
    43   20   22 1    
    44   22   23 1    
    45   22   24 1    
    46   22  145 1    
    47   23  146 1    
    48   23  147 1    
    49   23  148 1    
    50   24   25 am   BACKBONE|DICT|INTERRES
    51   24  149 1    
    52   25   26 2    
    53   25   27 1    
    54   27   28 1    
    55   27   29 1    
    56   27  150 1    
    57   28  151 1    
    58   28  152 1    
    59   28  153 1    
    60   29   30 am   BACKBONE|DICT|INTERRES
    61   29  154 1    
    62   30   31 2    
    63   30   32 1    
    64   32   33 1    
    65   32   34 1    
    66   32  155 1    
    67   33  156 1    
    68   33  157 1    
    69   33  158 1    
    70   34   35 am   BACKBONE|DICT|INTERRES
    71   34  159 1    
    72   35   36 2    
    73   35   37 1    
    74   37   38 1    
    75   37   39 1    
    76   37  160 1    
    77   38  161 1    
    78   38  162 1    
    79   38  163 1    
    80   39   40 am   BACKBONE|DICT|INTERRES
    81   39  164 1    
    82   40   41 2    
    83   40   42 1    
    84   42   43 1    
    85   42   44 1    
    86   42  165 1    
    87   43  166 1    
    88   43  167 1    
    89   43  168 1    
    90   44   45 am   BACKBONE|DICT|INTERRES
    91   44  169 1    
    92   45   46 2    
    93   45   47 1    
    94   47   48 1    
    95   47   49 1    
    96   47  170 1    
    97   48  171 1    
    98   48  172 1    
    99   48  173 1    
   100   49   50 am   BACKBONE|DICT|INTERRES
   101   49  174 1    
   102   50   51 2    
   103   50   52 1    
   104   52   53 1    
   105   52   54 1    
   106   52  175 1    
   107   53  176 1    
   108   53  177 1    
   109   53  178 1    
   110   54   55 am   BACKBONE|DICT|INTERRES
   111   54  179 1    
   112   55   56 2    
   113   55   57 1    
   114   57   58 1    
   115   57   59 1    
   116   57  180 1    
   117   58  181 1    
   118   58  182 1    
   119   58  183 1    
   120   59   60 am   BACKBONE|DICT|INTERRES
   121   59  184 1    
   122   60   61 2    
   123   60   62 1    
   124   62   63 1    
   125   62   64 1    
   126   62  185 1    
   127   63  186 1    
   128   63  187 1    
   129   63  188 1    
   130   64   65 am   BACKBONE|DICT|INTERRES
   131   64  189 1    
   132   65   66 2    
   133   67   68 2    
   134   67   69 am   BACKBONE|DICT|INTERRES
   135   69   70 1    
   136   69  190 1    
   137   70   71 1    
   138   70   72 1    
   139   70  191 1    
   140   71  192 1    
   141   71  193 1    
   142   71  194 1    
   143   72   73 2    
   144   72   74 am   BACKBONE|DICT|INTERRES
   145   74   75 1    
   146   74  195 1    
   147   75   76 1    
   148   75   77 1    
   149   75  196 1    
   150   76  197 1    
   151   76  198 1    
   152   76  199 1    
   153   77   78 2    
   154   77   79 am   BACKBONE|DICT|INTERRES
   155   79   80 1    
   156   79  200 1    
   157   80   81 1    
   158   80   82 1    
   159   80  201 1    
   160   81  202 1    
   161   81  203 1    
   162   81  204 1    
   163   82   83 2    
   164   82   84 am   BACKBONE|DICT|INTERRES
   165   84   85 1    
   166   84  205 1    
   167   85   86 1    
   168   85   87 1    
   169   85  206 1    
   170   86  207 1    
   171   86  208 1    
   172   86  209 1    
   173   87   88 2    
   174   87   89 am   BACKBONE|DICT|INTERRES
   175   89   90 1    
   176   89  210 1    
   177   90   91 1    
   178   90   92 1    
   179   90  211 1    
   180   91  212 1    
   181   91  213 1    
   182   91  214 1    
   183   92   93 2    
   184   92   94 am   BACKBONE|DICT|INTERRES
   185   94   95 1    
   186   94  215 1    
   187   95   96 1    
   188   95   97 1    
   189   95  216 1    
   190   96  217 1    
   191   96  218 1    
   192   96  219 1    
   193   97   98 2    
   194   97   99 am   BACKBONE|DICT|INTERRES
   195   99  100 1    
   196   99  220 1    
   197  100  101 1    
   198  100  102 1    
   199  100  221 1    
   200  101  222 1    
   201  101  223 1    
   202  101  224 1    
   203  102  103 2    
   204  102  104 am   BACKBONE|DICT|INTERRES
   205  104  105 1    
   206  104  225 1    
   207  105  106 1    
   208  105  107 1    
   209  105  226 1    
   210  106  227 1    
   211  106  228 1    
   212  106  229 1    
   213  107  108 2    
   214  107  109 am   BACKBONE|DICT|INTERRES
   215  109  110 1    
   216  109  230 1    
   217  110  111 1    
   218  110  112 1    
   219  110  231 1    
   220  111  232 1    
   221  111  233 1    
   222  111  234 1    
   223  112  113 2    
   224  112  114 am   BACKBONE|DICT|INTERRES
   225  114  115 1    
   226  114  235 1    
   227  115  116 1    
   228  115  117 1    
   229  115  236 1    
   230  116  237 1    
   231  116  238 1    
   232  116  239 1    
   233  117  118 2    
   234  117  119 am   BACKBONE|DICT|INTERRES
   235  119  120 1    
   236  119  240 1    
   237  120  121 1    
   238  120  124 1    
   239  120  241 1    
   240  121  122 am   BACKBONE|DICT|INTERRES
   241  121  123 2    
   242  122  242 1    
   243  122  243 1    
   244  124  125 1    
   245  124  244 1    
   246  124  245 1    
   247  125  126 1    
   248  126  246 1    
   249  126  247 1    
@<TRIPOS>SUBSTRUCTURE
     1 UNK         1 GROUP             0       ****    0 ROOT    
