@<TRIPOS>MOLECULE
3R540
247   249    1
SMALL
USER_CHARGES


@<TRIPOS>ATOM
      1 CA         -1.6818  -11.1448  -46.4452 C.3       0 UNK        -0.1800 
      2 C          -0.1837  -11.3983  -46.3641 C.2       0 UNK         0.5000 
      3 O           0.3570  -11.4983  -45.2653 O.2       0 UNK        -0.5000 
      4 N           0.4881  -11.4821  -47.5214 N.am      1 UNK        -0.5000 
      5 CA          1.9063  -11.8465  -47.7032 C.3       1 UNK         0.1400 
      6 C6          2.2379  -13.2843  -47.2175 C.3       23 UNK        -0.0398 
      7 S7          1.2088  -14.5578  -48.0167 S.3       23 UNK        -0.2404 
      8 C8          2.3538  -15.1670  -49.2895 C.3       23 UNK        -0.0205 
      9 C9          1.7477  -16.2935  -50.1129 C.ar      23 UNK        -0.0193 
     10 C10         0.6334  -16.0517  -50.9234 C.ar      23 UNK        -0.1150 
     11 C11         0.1056  -17.0668  -51.7256 C.ar      23 UNK        -0.0193 
     12 C12         0.7081  -18.3278  -51.7206 C.ar      23 UNK        -0.1150 
     13 C13         1.8127  -18.5868  -50.9073 C.ar      23 UNK        -0.0193 
     14 C14         2.3268  -17.5669  -50.1014 C.ar      23 UNK        -0.1150 
     15 C15         2.4598  -19.9633  -50.9222 C.3       23 UNK        -0.0205 
     16 S16         1.9689  -20.9646  -49.4870 S.3       23 UNK        -0.2404 
     17 C17         0.1653  -21.1096  -49.7300 C.3       23 UNK        -0.0398 
     18 CA         -0.4100  -22.2994  -48.9297 C.3       11 UNK         0.1400 
     19 N          -0.3391  -22.0802  -47.4870 N.am      11 UNK        -0.5000 
     20 C          -0.5438  -23.0279  -46.5656 C.2       10 UNK         0.5000 
     21 O          -0.8797  -24.1823  -46.8329 O.2       10 UNK        -0.5000 
     22 CA         -0.3739  -22.5965  -45.0973 C.3       10 UNK         0.1400 
     23 CB          1.1104  -22.4322  -44.7376 C.3       10 UNK        -0.1800 
     24 N          -1.1030  -21.3642  -44.7979 N.am      10 UNK        -0.5000 
     25 C          -2.4348  -21.2522  -44.8875 C.2       9 UNK         0.5000 
     26 O          -3.1716  -22.1941  -45.1717 O.2       9 UNK        -0.5000 
     27 CA         -3.0488  -19.8555  -44.6867 C.3       9 UNK         0.1400 
     28 CB         -3.1623  -19.5142  -43.1949 C.3       9 UNK        -0.1800 
     29 N          -2.3054  -18.8088  -45.3861 N.am      9 UNK        -0.5000 
     30 C          -2.1412  -18.7545  -46.7160 C.2       8 UNK         0.5000 
     31 O          -2.6389  -19.5591  -47.5034 O.2       8 UNK        -0.5000 
     32 CA         -1.2299  -17.6386  -47.2526 C.3       8 UNK         0.1400 
     33 CB         -2.0120  -16.3213  -47.3761 C.3       8 UNK        -0.1800 
     34 N          -0.0372  -17.4473  -46.4236 N.am      8 UNK        -0.5000 
     35 C           0.9096  -18.3792  -46.2401 C.2       7 UNK         0.5000 
     36 O           0.8825  -19.4900  -46.7670 O.2       7 UNK        -0.5000 
     37 CA          2.0323  -18.0454  -45.2405 C.3       7 UNK         0.1400 
     38 CB          3.0265  -17.0302  -45.8227 C.3       7 UNK        -0.1800 
     39 N           1.5074  -17.5445  -43.9704 N.am      7 UNK        -0.5000 
     40 C           0.7649  -18.2711  -43.1211 C.2       6 UNK         0.5000 
     41 O           0.5093  -19.4630  -43.2863 O.2       6 UNK        -0.5000 
     42 CA          0.1684  -17.5378  -41.9032 C.3       6 UNK         0.1400 
     43 CB          1.1209  -17.6301  -40.7020 C.3       6 UNK        -0.1800 
     44 N          -0.1359  -16.1308  -42.1624 N.am      6 UNK        -0.5000 
     45 C          -0.9461  -15.6654  -43.1240 C.2       5 UNK         0.5000 
     46 O          -1.6114  -16.3942  -43.8602 O.2       5 UNK        -0.5000 
     47 CA         -0.9963  -14.1367  -43.3232 C.3       5 UNK         0.1400 
     48 CB         -2.3822  -13.5846  -42.9576 C.3       5 UNK        -0.1800 
     49 N           0.0253  -13.4001  -42.5694 N.am      5 UNK        -0.5000 
     50 C           1.3397  -13.4293  -42.8255 C.2       4 UNK         0.5000 
     51 O           1.8576  -14.1338  -43.6960 O.2       4 UNK        -0.5000 
     52 CA          2.2302  -12.5849  -41.9085 C.3       4 UNK         0.1400 
     53 CB          2.8262  -13.4698  -40.7952 C.3       4 UNK        -0.1800 
     54 N           3.2835  -11.9757  -42.7134 N.am      4 UNK        -0.5000 
     55 C           4.1165  -11.0105  -42.3074 C.2       3 UNK         0.5000 
     56 O           4.1008  -10.5167  -41.1789 O.2       3 UNK        -0.5000 
     57 CA          5.1276  -10.4968  -43.3469 C.3       3 UNK         0.1400 
     58 CB          6.1415  -11.5884  -43.7274 C.3       3 UNK        -0.1800 
     59 N           4.4727  -10.0006  -44.5554 N.am      3 UNK        -0.5000 
     60 C           3.7431   -8.8820  -44.6441 C.2       2 UNK         0.5000 
     61 O           3.5469   -8.1202  -43.6965 O.2       2 UNK        -0.5000 
     62 CA          3.1307   -8.5429  -46.0199 C.3       2 UNK         0.1400 
     63 CB          4.1782   -7.9112  -46.9568 C.3       2 UNK        -0.1800 
     64 N           2.4287   -9.6579  -46.6704 N.am      2 UNK        -0.5000 
     65 C           2.9145  -10.8212  -47.1282 C.2       1 UNK         0.5000 
     66 O           4.1135  -11.1055  -47.1087 O.2       1 UNK        -0.5000 
     67 C          -1.8216  -22.6820  -49.4153 C.2       11 UNK         0.5000 
     68 O          -1.9286  -23.6320  -50.1892 O.2       11 UNK        -0.5000 
     69 N          -2.8620  -21.9621  -48.9729 N.am      12 UNK        -0.5000 
     70 CA         -4.2159  -22.0939  -49.5137 C.3       12 UNK         0.1400 
     71 CB         -4.7660  -20.6965  -49.8282 C.3       12 UNK        -0.1800 
     72 C          -5.1870  -22.8466  -48.5924 C.2       12 UNK         0.5000 
     73 O          -5.9089  -23.7159  -49.0792 O.2       12 UNK        -0.5000 
     74 N          -5.2306  -22.4951  -47.2988 N.am      13 UNK        -0.5000 
     75 CA         -6.2274  -23.0257  -46.3586 C.3       13 UNK         0.1400 
     76 CB         -6.4540  -22.0465  -45.1946 C.3       13 UNK        -0.1800 
     77 C          -5.8569  -24.4315  -45.8582 C.2       13 UNK         0.5000 
     78 O          -6.7065  -25.3230  -45.8669 O.2       13 UNK        -0.5000 
     79 N          -4.5827  -24.6202  -45.4878 N.am      14 UNK        -0.5000 
     80 CA         -3.9888  -25.9353  -45.2192 C.3       14 UNK         0.1400 
     81 CB         -2.7852  -25.7773  -44.2800 C.3       14 UNK        -0.1800 
     82 C          -3.5934  -26.6696  -46.5193 C.2       14 UNK         0.5000 
     83 O          -3.3091  -27.8669  -46.4770 O.2       14 UNK        -0.5000 
     84 N          -3.6227  -25.9422  -47.6451 N.am      15 UNK        -0.5000 
     85 CA         -3.4906  -26.4040  -49.0257 C.3       15 UNK         0.1400 
     86 CB         -4.6444  -27.3605  -49.3938 C.3       15 UNK        -0.1800 
     87 C          -2.1001  -26.9682  -49.3749 C.2       15 UNK         0.5000 
     88 O          -2.0038  -27.8783  -50.2010 O.2       15 UNK        -0.5000 
     89 N          -1.0325  -26.3996  -48.7924 N.am      16 UNK        -0.5000 
     90 CA          0.3565  -26.7564  -49.1095 C.3       16 UNK         0.1400 
     91 CB          1.3092  -26.1022  -48.0975 C.3       16 UNK        -0.1800 
     92 C           0.7732  -26.4051  -50.5549 C.2       16 UNK         0.5000 
     93 O           1.6984  -27.0251  -51.0798 O.2       16 UNK        -0.5000 
     94 N           0.0706  -25.4497  -51.1782 N.am      17 UNK        -0.5000 
     95 CA          0.1958  -25.0725  -52.5859 C.3       17 UNK         0.1400 
     96 CB          0.5247  -23.5711  -52.6684 C.3       17 UNK        -0.1800 
     97 C          -1.0933  -25.4243  -53.3601 C.2       17 UNK         0.5000 
     98 O          -1.3813  -24.7929  -54.3780 O.2       17 UNK        -0.5000 
     99 N          -1.8467  -26.4198  -52.8646 N.am      18 UNK        -0.5000 
    100 CA        -3.1671  -26.8561  -53.3288 C.3       18 UNK         0.1400 
    101 CB        -3.0988  -27.4151  -54.7681 C.3       18 UNK        -0.1800 
    102 C         -4.2363  -25.7600  -53.1259 C.2       18 UNK         0.5000 
    103 O         -4.1354  -24.9758  -52.1804 O.2       18 UNK        -0.5000 
    104 N         -5.2557  -25.7198  -53.9932 N.am      19 UNK        -0.5000 
    105 CA        -6.3514  -24.7468  -53.9713 C.3       19 UNK         0.1400 
    106 CB        -7.5493  -25.3370  -54.7370 C.3       19 UNK        -0.1800 
    107 C         -5.9090  -23.3729  -54.5215 C.2       19 UNK         0.5000 
    108 O         -6.4402  -22.9032  -55.5294 O.2       19 UNK        -0.5000 
    109 N         -4.9135  -22.7685  -53.8617 N.am      20 UNK        -0.5000 
    110 CA        -4.2709  -21.5152  -54.2605 C.3       20 UNK         0.1400 
    111 CB        -2.9493  -21.3757  -53.4900 C.3       20 UNK        -0.1800 
    112 C         -5.1633  -20.2693  -54.0775 C.2       20 UNK         0.5000 
    113 O         -4.9615  -19.2804  -54.7824 O.2       20 UNK        -0.5000 
    114 N         -6.1386  -20.3505  -53.1565 N.am      21 UNK        -0.5000 
    115 CA        -7.1691  -19.3438  -52.8553 C.3       21 UNK         0.1400 
    116 CB        -8.1379  -19.1915  -54.0465 C.3       21 UNK        -0.1800 
    117 C         -6.6085  -17.9896  -52.3605 C.2       21 UNK         0.5000 
    118 O         -7.1920  -16.9380  -52.6293 O.2       21 UNK        -0.5000 
    119 N         -5.4847  -18.0465  -51.6377 N.am      22 UNK        -0.5000 
    120 CA        -4.7396  -16.8896  -51.1094 C.3       22 UNK         0.1400 
    121 C         -5.3772  -16.2158  -49.8594 C.2       22 UNK         0.5000 
    122 N         -6.3869  -16.8005  -49.2263 N.am      22 UNK        -0.7600 
    123 O         -4.9510  -15.1358  -49.4613 O.2       22 UNK        -0.5000 
    124 C124       -3.2534  -17.2467  -50.8414 C.3       23 UNK        -0.0398 
    125 S125       -2.4531  -17.9591  -52.3180 S.3       23 UNK        -0.2404 
    126 C126       -1.0875  -16.7986  -52.6306 C.3       23 UNK        -0.0205 
    127 H127       -2.2240  -11.9626  -45.9702 H         1 UNK         0.0600 
    128 H128       -2.0248  -11.0634  -47.4768 H         1 UNK         0.0600 
    129 H129       -1.9350  -10.2201  -45.9268 H         1 UNK         0.0600 
    130 H130       -0.0256  -11.3626  -48.3833 H         1 UNK         0.3000 
    131 H131        2.0735  -11.8254  -48.7811 H         1 UNK         0.0600 
    132 H132        3.2869  -13.5284  -47.3926 H         1 UNK         0.0800 
    133 H133        2.0939  -13.3624  -46.1408 H         1 UNK         0.0800 
    134 H134        2.6249  -14.3457  -49.9542 H         1 UNK         0.0800 
    135 H135        3.2763  -15.4986  -48.8106 H         1 UNK         0.0800 
    136 H136        0.1871  -15.0671  -50.9348 H         1 UNK         0.1150 
    137 H137        0.3109  -19.1104  -52.3518 H         1 UNK         0.1150 
    138 H138        3.1873  -17.7648  -49.4779 H         1 UNK         0.1150 
    139 H139        2.2098  -20.4992  -51.8393 H         1 UNK         0.0800 
    140 H140        3.5452  -19.8539  -50.9206 H         1 UNK         0.0800 
    141 H141       -0.0264  -21.2261  -50.7972 H         1 UNK         0.0800 
    142 H142       -0.3122  -20.1745  -49.4312 H         1 UNK         0.0800 
    143 H143        0.2208  -23.1635  -49.1466 H         1 UNK         0.0600 
    144 H144       -0.0337  -21.1579  -47.1859 H         1 UNK         0.3000 
    145 H145       -0.7818  -23.3833  -44.4625 H         1 UNK         0.0600 
    146 H146        1.2352  -22.2094  -43.6779 H         1 UNK         0.0600 
    147 H147        1.5796  -21.6276  -45.3040 H         1 UNK         0.0600 
    148 H148        1.6655  -23.3477  -44.9459 H         1 UNK         0.0600 
    149 H149       -0.5501  -20.5594  -44.5185 H         1 UNK         0.3000 
    150 H150       -4.0570  -19.8724  -45.1054 H         1 UNK         0.0600 
    151 H151       -3.8080  -20.2286  -42.6828 H         1 UNK         0.0600 
    152 H152       -3.5889  -18.5221  -43.0455 H         1 UNK         0.0600 
    153 H153       -2.1917  -19.5416  -42.7018 H         1 UNK         0.0600 
    154 H154       -1.8981  -18.0714  -44.8180 H         1 UNK         0.3000 
    155 H155       -0.9011  -17.9327  -48.2520 H         1 UNK         0.0600 
    156 H156       -2.9690  -16.4793  -47.8735 H         1 UNK         0.0600 
    157 H157       -1.4660  -15.5893  -47.9683 H         1 UNK         0.0600 
    158 H158       -2.2235  -15.8785  -46.4031 H         1 UNK         0.0600 
    159 H159        0.0361  -16.5718  -45.9279 H         1 UNK         0.3000 
    160 H160        2.5768  -18.9708  -45.0407 H         1 UNK         0.0600 
    161 H161        2.5851  -16.0377  -45.9052 H         1 UNK         0.0600 
    162 H162        3.3600  -17.3302  -46.8169 H         1 UNK         0.0600 
    163 H163        3.9120  -16.9449  -45.1930 H         1 UNK         0.0600 
    164 H164        1.6592  -16.5649  -43.7683 H         1 UNK         0.3000 
    165 H165       -0.7663  -18.0335  -41.6380 H         1 UNK         0.0600 
    166 H166        0.6758  -17.1893  -39.8099 H         1 UNK         0.0600 
    167 H167        1.3537  -18.6698  -40.4676 H         1 UNK         0.0600 
    168 H168        2.0642  -17.1176  -40.8958 H         1 UNK         0.0600 
    169 H169        0.3632  -15.4533  -41.6067 H         1 UNK         0.3000 
    170 H170       -0.8274  -13.9521  -44.3863 H         1 UNK         0.0600 
    171 H171       -2.6053  -13.7258  -41.8994 H         1 UNK         0.0600 
    172 H172       -2.4516  -12.5192  -43.1787 H         1 UNK         0.0600 
    173 H173       -3.1661  -14.0839  -43.5287 H         1 UNK         0.0600 
    174 H174       -0.3142  -12.8078  -41.8253 H         1 UNK         0.3000 
    175 H175        1.6296  -11.7897  -41.4620 H         1 UNK         0.0600 
    176 H176        3.4738  -14.2460  -41.2050 H         1 UNK         0.0600 
    177 H177        3.4127  -12.8862  -40.0861 H         1 UNK         0.0600 
    178 H178        2.0395  -13.9656  -40.2252 H         1 UNK         0.0600 
    179 H179        3.3383  -12.3224  -43.6621 H         1 UNK         0.3000 
    180 H180        5.6791   -9.6694  -42.8953 H         1 UNK         0.0600 
    181 H181        6.9182  -11.1908  -44.3808 H         1 UNK         0.0600 
    182 H182        5.6668  -12.4230  -44.2449 H         1 UNK         0.0600 
    183 H183        6.6361  -11.9883  -42.8413 H         1 UNK         0.0600 
    184 H184        4.5677  -10.5572  -45.4011 H         1 UNK         0.3000 
    185 H185        2.3648   -7.7871  -45.8384 H         1 UNK         0.0600 
    186 H186        3.7288   -7.6075  -47.9022 H         1 UNK         0.0600 
    187 H187        4.6155   -7.0206  -46.5040 H         1 UNK         0.0600 
    188 H188        4.9968   -8.5960  -47.1792 H         1 UNK         0.0600 
    189 H189        1.4237   -9.5596  -46.7042 H         1 UNK         0.3000 
    190 H190       -2.6982  -21.1834  -48.3366 H         1 UNK         0.3000 
    191 H191       -4.1880  -22.6411  -50.4590 H         1 UNK         0.0600 
    192 H192       -4.8407  -20.0757  -48.9347 H         1 UNK         0.0600 
    193 H193       -5.7624  -20.7589  -50.2665 H         1 UNK         0.0600 
    194 H194       -4.1179  -20.1848  -50.5374 H         1 UNK         0.0600 
    195 H195       -4.5604  -21.8330  -46.9321 H         1 UNK         0.3000 
    196 H196       -7.1797  -23.1089  -46.8874 H         1 UNK         0.0600 
    197 H197       -6.6745  -21.0430  -45.5587 H         1 UNK         0.0600 
    198 H198       -5.5958  -21.9819  -44.5282 H         1 UNK         0.0600 
    199 H199       -7.3030  -22.3647  -44.5886 H         1 UNK         0.0600 
    200 H200       -3.9620  -23.8123  -45.4571 H         1 UNK         0.3000 
    201 H201       -4.7279  -26.5545  -44.7068 H         1 UNK         0.0600 
    202 H202       -3.0433  -25.1978  -43.3935 H         1 UNK         0.0600 
    203 H203       -1.9533  -25.2850  -44.7765 H         1 UNK         0.0600 
    204 H204       -2.4280  -26.7508  -43.9426 H         1 UNK         0.0600 
    205 H205       -3.8395  -24.9625  -47.5380 H         1 UNK         0.3000 
    206 H206       -3.6136  -25.5149  -49.6423 H         1 UNK         0.0600 
    207 H207       -5.6114  -26.9164  -49.1568 H         1 UNK         0.0600 
    208 H208       -4.6466  -27.5804  -50.4614 H         1 UNK         0.0600 
    209 H209       -4.5697  -28.3105  -48.8640 H         1 UNK         0.0600 
    210 H210       -1.1684  -25.6510  -48.1180 H         1 UNK         0.3000 
    211 H211        0.4484  -27.8390  -49.0006 H         1 UNK         0.0600 
    212 H212        1.3196  -25.0170  -48.1935 H         1 UNK         0.0600 
    213 H213        2.3320  -26.4501  -48.2465 H         1 UNK         0.0600 
    214 H214        1.0286  -26.3472  -47.0730 H         1 UNK         0.0600 
    215 H215       -0.6889  -24.9907  -50.6802 H         1 UNK         0.3000 
    216 H216        1.0094  -25.6247  -53.0595 H         1 UNK         0.0600 
    217 H217        0.7542  -23.2756  -53.6927 H         1 UNK         0.0600 
    218 H218        1.3901  -23.3184  -52.0554 H         1 UNK         0.0600 
    219 H219       -0.3153  -22.9630  -52.3343 H         1 UNK         0.0600 
    220 H220       -1.5409  -26.8569  -52.0034 H         1 UNK         0.3000 
    221 H221       -3.4536  -27.6790  -52.6733 H         1 UNK         0.0600 
    222 H222       -2.9422  -26.6284  -55.5070 H         1 UNK         0.0600 
    223 H223       -2.2839  -28.1319  -54.8701 H         1 UNK         0.0600 
    224 H224       -4.0165  -27.9410  -55.0331 H         1 UNK         0.0600 
    225 H225       -5.2576  -26.3738  -54.7623 H         1 UNK         0.3000 
    226 H226       -6.6653  -24.5940  -52.9364 H         1 UNK         0.0600 
    227 H227       -7.8784  -26.2755  -54.2906 H         1 UNK         0.0600 
    228 H228       -8.4004  -24.6550  -54.7180 H         1 UNK         0.0600 
    229 H229       -7.3052  -25.5303  -55.7824 H         1 UNK         0.0600 
    230 H230       -4.5019  -23.2724  -53.0811 H         1 UNK         0.3000 
    231 H231       -4.0316  -21.5883  -55.3235 H         1 UNK         0.0600 
    232 H232       -2.3943  -20.4997  -53.8257 H         1 UNK         0.0600 
    233 H233       -2.3079  -22.2416  -53.6528 H         1 UNK         0.0600 
    234 H234       -3.1098  -21.2782  -52.4167 H         1 UNK         0.0600 
    235 H235       -6.2170  -21.2210  -52.6512 H         1 UNK         0.3000 
    236 H236       -7.7452  -19.7456  -52.0207 H         1 UNK         0.0600 
    237 H237       -7.6507  -18.7335  -54.9078 H         1 UNK         0.0600 
    238 H238       -8.5318  -20.1584  -54.3600 H         1 UNK         0.0600 
    239 H239       -8.9910  -18.5656  -53.7821 H         1 UNK         0.0600 
    240 H240       -5.0564  -18.9473  -51.4950 H         1 UNK         0.3000 
    241 H241       -4.7483  -16.1235  -51.8872 H         1 UNK         0.0600 
    242 H242       -6.7951  -16.3486  -48.4235 H         1 UNK         0.3800 
    243 H243       -6.7574  -17.6786  -49.5498 H         1 UNK         0.3800 
    244 H244       -3.1705  -17.9680  -50.0268 H         1 UNK         0.0800 
    245 H245       -2.6971  -16.3641  -50.5209 H         1 UNK         0.0800 
    246 H246       -0.7668  -16.9105  -53.6670 H         1 UNK         0.0800 
    247 H247       -1.4447  -15.7726  -52.5290 H         1 UNK         0.0800 
@<TRIPOS>BOND
     1    1    2 1    
     2    1  127 1    
     3    1  128 1    
     4    1  129 1    
     5    2    3 2    
     6    2    4 am   BACKBONE|DICT|INTERRES
     7    4    5 1    
     8    4  130 1    
     9    5    6 1    
    10    5   65 1    
    11    5  131 1    
    12    6    7 1    
    13    6  132 1    
    14    6  133 1    
    15    7    8 1    
    16    8    9 1    
    17    8  134 1    
    18    8  135 1    
    19    9   10 ar   
    20    9   14 ar   
    21   10   11 ar   
    22   10  136 1    
    23   11   12 ar   
    24   11  126 1    
    25   12   13 ar   
    26   12  137 1    
    27   13   14 ar   
    28   13   15 1    
    29   14  138 1    
    30   15   16 1    
    31   15  139 1    
    32   15  140 1    
    33   16   17 1    
    34   17   18 1    
    35   17  141 1    
    36   17  142 1    
    37   18   19 1    
    38   18   67 1    
    39   18  143 1    
    40   19   20 am   BACKBONE|DICT|INTERRES
    41   19  144 1    
    42   20   21 2    
    43   20   22 1    
    44   22   23 1    
    45   22   24 1    
    46   22  145 1    
    47   23  146 1    
    48   23  147 1    
    49   23  148 1    
    50   24   25 am   BACKBONE|DICT|INTERRES
    51   24  149 1    
    52   25   26 2    
    53   25   27 1    
    54   27   28 1    
    55   27   29 1    
    56   27  150 1    
    57   28  151 1    
    58   28  152 1    
    59   28  153 1    
    60   29   30 am   BACKBONE|DICT|INTERRES
    61   29  154 1    
    62   30   31 2    
    63   30   32 1    
    64   32   33 1    
    65   32   34 1    
    66   32  155 1    
    67   33  156 1    
    68   33  157 1    
    69   33  158 1    
    70   34   35 am   BACKBONE|DICT|INTERRES
    71   34  159 1    
    72   35   36 2    
    73   35   37 1    
    74   37   38 1    
    75   37   39 1    
    76   37  160 1    
    77   38  161 1    
    78   38  162 1    
    79   38  163 1    
    80   39   40 am   BACKBONE|DICT|INTERRES
    81   39  164 1    
    82   40   41 2    
    83   40   42 1    
    84   42   43 1    
    85   42   44 1    
    86   42  165 1    
    87   43  166 1    
    88   43  167 1    
    89   43  168 1    
    90   44   45 am   BACKBONE|DICT|INTERRES
    91   44  169 1    
    92   45   46 2    
    93   45   47 1    
    94   47   48 1    
    95   47   49 1    
    96   47  170 1    
    97   48  171 1    
    98   48  172 1    
    99   48  173 1    
   100   49   50 am   BACKBONE|DICT|INTERRES
   101   49  174 1    
   102   50   51 2    
   103   50   52 1    
   104   52   53 1    
   105   52   54 1    
   106   52  175 1    
   107   53  176 1    
   108   53  177 1    
   109   53  178 1    
   110   54   55 am   BACKBONE|DICT|INTERRES
   111   54  179 1    
   112   55   56 2    
   113   55   57 1    
   114   57   58 1    
   115   57   59 1    
   116   57  180 1    
   117   58  181 1    
   118   58  182 1    
   119   58  183 1    
   120   59   60 am   BACKBONE|DICT|INTERRES
   121   59  184 1    
   122   60   61 2    
   123   60   62 1    
   124   62   63 1    
   125   62   64 1    
   126   62  185 1    
   127   63  186 1    
   128   63  187 1    
   129   63  188 1    
   130   64   65 am   BACKBONE|DICT|INTERRES
   131   64  189 1    
   132   65   66 2    
   133   67   68 2    
   134   67   69 am   BACKBONE|DICT|INTERRES
   135   69   70 1    
   136   69  190 1    
   137   70   71 1    
   138   70   72 1    
   139   70  191 1    
   140   71  192 1    
   141   71  193 1    
   142   71  194 1    
   143   72   73 2    
   144   72   74 am   BACKBONE|DICT|INTERRES
   145   74   75 1    
   146   74  195 1    
   147   75   76 1    
   148   75   77 1    
   149   75  196 1    
   150   76  197 1    
   151   76  198 1    
   152   76  199 1    
   153   77   78 2    
   154   77   79 am   BACKBONE|DICT|INTERRES
   155   79   80 1    
   156   79  200 1    
   157   80   81 1    
   158   80   82 1    
   159   80  201 1    
   160   81  202 1    
   161   81  203 1    
   162   81  204 1    
   163   82   83 2    
   164   82   84 am   BACKBONE|DICT|INTERRES
   165   84   85 1    
   166   84  205 1    
   167   85   86 1    
   168   85   87 1    
   169   85  206 1    
   170   86  207 1    
   171   86  208 1    
   172   86  209 1    
   173   87   88 2    
   174   87   89 am   BACKBONE|DICT|INTERRES
   175   89   90 1    
   176   89  210 1    
   177   90   91 1    
   178   90   92 1    
   179   90  211 1    
   180   91  212 1    
   181   91  213 1    
   182   91  214 1    
   183   92   93 2    
   184   92   94 am   BACKBONE|DICT|INTERRES
   185   94   95 1    
   186   94  215 1    
   187   95   96 1    
   188   95   97 1    
   189   95  216 1    
   190   96  217 1    
   191   96  218 1    
   192   96  219 1    
   193   97   98 2    
   194   97   99 am   BACKBONE|DICT|INTERRES
   195   99  100 1    
   196   99  220 1    
   197  100  101 1    
   198  100  102 1    
   199  100  221 1    
   200  101  222 1    
   201  101  223 1    
   202  101  224 1    
   203  102  103 2    
   204  102  104 am   BACKBONE|DICT|INTERRES
   205  104  105 1    
   206  104  225 1    
   207  105  106 1    
   208  105  107 1    
   209  105  226 1    
   210  106  227 1    
   211  106  228 1    
   212  106  229 1    
   213  107  108 2    
   214  107  109 am   BACKBONE|DICT|INTERRES
   215  109  110 1    
   216  109  230 1    
   217  110  111 1    
   218  110  112 1    
   219  110  231 1    
   220  111  232 1    
   221  111  233 1    
   222  111  234 1    
   223  112  113 2    
   224  112  114 am   BACKBONE|DICT|INTERRES
   225  114  115 1    
   226  114  235 1    
   227  115  116 1    
   228  115  117 1    
   229  115  236 1    
   230  116  237 1    
   231  116  238 1    
   232  116  239 1    
   233  117  118 2    
   234  117  119 am   BACKBONE|DICT|INTERRES
   235  119  120 1    
   236  119  240 1    
   237  120  121 1    
   238  120  124 1    
   239  120  241 1    
   240  121  122 am   BACKBONE|DICT|INTERRES
   241  121  123 2    
   242  122  242 1    
   243  122  243 1    
   244  124  125 1    
   245  124  244 1    
   246  124  245 1    
   247  125  126 1    
   248  126  246 1    
   249  126  247 1    
@<TRIPOS>SUBSTRUCTURE
     1 UNK         1 GROUP             0       ****    0 ROOT    
