@<TRIPOS>MOLECULE
3R540
247   249    1
SMALL
USER_CHARGES


@<TRIPOS>ATOM
      1 CA          7.0965  -11.4713  -50.5533 C.3       0 UNK        -0.1800 
      2 C           5.9671  -12.2606  -49.9059 C.2       0 UNK         0.5000 
      3 O           5.3001  -11.7491  -49.0063 O.2       0 UNK        -0.5000 
      4 N           5.7570  -13.5050  -50.3531 N.am      1 UNK        -0.5000 
      5 CA          4.6760  -14.3845  -49.9022 C.3       1 UNK         0.1400 
      6 C6          4.9576  -15.8543  -50.2980 C.3       23 UNK        -0.0398 
      7 S7          3.7791  -17.0463  -49.5695 S.3       23 UNK        -0.2404 
      8 C8          3.1373  -17.8263  -51.0820 C.3       23 UNK        -0.0205 
      9 C9          1.8766  -18.6276  -50.8084 C.ar      23 UNK        -0.0193 
     10 C10         0.6255  -18.0563  -51.0469 C.ar      23 UNK        -0.1150 
     11 C11        -0.5461  -18.7834  -50.8182 C.ar      23 UNK        -0.0193 
     12 C12        -0.4549  -20.0975  -50.3493 C.ar      23 UNK        -0.1150 
     13 C13         0.7916  -20.6856  -50.1108 C.ar      23 UNK        -0.0193 
     14 C14         1.9547  -19.9439  -50.3461 C.ar      23 UNK        -0.1150 
     15 C15         0.8797  -22.1369  -49.6525 C.3       23 UNK        -0.0205 
     16 S16         1.8448  -22.3432  -48.1223 S.3       23 UNK        -0.2404 
     17 C17         0.6970  -21.6932  -46.8648 C.3       23 UNK        -0.0398 
     18 CA          0.1612  -22.8033  -45.9261 C.3       11 UNK         0.1400 
     19 N          -0.0027  -22.3161  -44.5527 N.am      11 UNK        -0.5000 
     20 C          -0.2104  -23.0757  -43.4680 C.2       10 UNK         0.5000 
     21 O          -0.4081  -24.2911  -43.5202 O.2       10 UNK        -0.5000 
     22 CA         -0.1941  -22.3337  -42.1147 C.3       10 UNK         0.1400 
     23 CB         -0.1523  -23.2827  -40.8995 C.3       10 UNK        -0.1800 
     24 N           0.8821  -21.3381  -42.0515 N.am      10 UNK        -0.5000 
     25 C           2.2035  -21.5561  -42.1456 C.2       9 UNK         0.5000 
     26 O           2.7145  -22.6760  -42.1860 O.2       9 UNK        -0.5000 
     27 CA          3.1181  -20.3184  -42.2486 C.3       9 UNK         0.1400 
     28 CB          3.6710  -20.1923  -43.6777 C.3       9 UNK        -0.1800 
     29 N           2.4536  -19.0631  -41.8944 N.am      9 UNK        -0.5000 
     30 C           2.1587  -18.6713  -40.6483 C.2       8 UNK         0.5000 
     31 O           2.4588  -19.3119  -39.6403 O.2       8 UNK        -0.5000 
     32 CA          1.3641  -17.3580  -40.5093 C.3       8 UNK         0.1400 
     33 CB          2.3056  -16.1446  -40.5350 C.3       8 UNK        -0.1800 
     34 N           0.3324  -17.2003  -41.5386 N.am      8 UNK        -0.5000 
     35 C          -0.7406  -17.9957  -41.6649 C.2       7 UNK         0.5000 
     36 O          -0.9824  -18.9433  -40.9172 O.2       7 UNK        -0.5000 
     37 CA         -1.6822  -17.7150  -42.8486 C.3       7 UNK         0.1400 
     38 CB         -2.6133  -16.5350  -42.5331 C.3       7 UNK        -0.1800 
     39 N          -0.9572  -17.4586  -44.0928 N.am      7 UNK        -0.5000 
     40 C          -0.1980  -18.3629  -44.7278 C.2       6 UNK         0.5000 
     41 O          -0.0778  -19.5314  -44.3606 O.2       6 UNK        -0.5000 
     42 CA          0.6041  -17.8729  -45.9454 C.3       6 UNK         0.1400 
     43 CB         -0.2726  -17.8265  -47.2043 C.3       6 UNK        -0.1800 
     44 N           1.2120  -16.5640  -45.7228 N.am      6 UNK        -0.5000 
     45 C           2.1308  -16.2910  -44.7871 C.2       5 UNK         0.5000 
     46 O           2.5881  -17.1271  -44.0100 O.2       5 UNK        -0.5000 
     47 CA          2.5794  -14.8261  -44.6724 C.3       5 UNK         0.1400 
     48 CB          3.6482  -14.4979  -45.7267 C.3       5 UNK        -0.1800 
     49 N           1.4509  -13.9063  -44.8095 N.am      5 UNK        -0.5000 
     50 C           0.5015  -13.7303  -43.8809 C.2       4 UNK         0.5000 
     51 O           0.4938  -14.3053  -42.7916 O.2       4 UNK        -0.5000 
     52 CA         -0.6494  -12.7751  -44.2508 C.3       4 UNK         0.1400 
     53 CB         -0.2238  -11.3113  -44.0621 C.3       4 UNK        -0.1800 
     54 N          -1.1339  -12.9681  -45.6200 N.am      4 UNK        -0.5000 
     55 C          -1.7583  -14.0758  -46.0425 C.2       3 UNK         0.5000 
     56 O          -1.9895  -15.0436  -45.3195 O.2       3 UNK        -0.5000 
     57 CA         -2.1676  -14.1357  -47.5257 C.3       3 UNK         0.1400 
     58 CB         -3.4841  -13.3756  -47.7463 C.3       3 UNK        -0.1800 
     59 N          -1.1712  -13.6609  -48.4945 N.am      3 UNK        -0.5000 
     60 C           0.1381  -13.9388  -48.5119 C.2       2 UNK         0.5000 
     61 O           0.7223  -14.5581  -47.6190 O.2       2 UNK        -0.5000 
     62 CA          0.9431  -13.4262  -49.7179 C.3       2 UNK         0.1400 
     63 CB          0.8826  -11.8896  -49.8261 C.3       2 UNK        -0.1800 
     64 N           2.3210  -13.8634  -49.5288 N.am      2 UNK        -0.5000 
     65 C           3.3124  -13.8725  -50.4215 C.2       1 UNK         0.5000 
     66 O           3.1931  -13.5101  -51.5946 O.2       1 UNK        -0.5000 
     67 C          -1.1031  -23.4842  -46.4935 C.2       11 UNK         0.5000 
     68 O          -0.9923  -24.2751  -47.4279 O.2       11 UNK        -0.5000 
     69 N          -2.2679  -23.2352  -45.8770 N.am      12 UNK        -0.5000 
     70 CA         -3.5340  -23.9263  -46.1368 C.3       12 UNK         0.1400 
     71 CB         -4.6397  -23.2601  -45.3040 C.3       12 UNK        -0.1800 
     72 C          -3.4926  -25.4470  -45.8653 C.2       12 UNK         0.5000 
     73 O          -4.3242  -26.1766  -46.4057 O.2       12 UNK        -0.5000 
     74 N          -2.5345  -25.9043  -45.0454 N.am      13 UNK        -0.5000 
     75 CA         -2.2624  -27.3230  -44.8138 C.3       13 UNK         0.1400 
     76 CB         -1.6659  -27.4899  -43.4074 C.3       13 UNK        -0.1800 
     77 C          -1.3147  -27.9257  -45.8717 C.2       13 UNK         0.5000 
     78 O          -1.2692  -29.1497  -46.0021 O.2       13 UNK        -0.5000 
     79 N          -0.5623  -27.0780  -46.5876 N.am      14 UNK        -0.5000 
     80 CA          0.4412  -27.4804  -47.5735 C.3       14 UNK         0.1400 
     81 CB          1.6585  -26.5481  -47.4592 C.3       14 UNK        -0.1800 
     82 C          -0.1139  -27.4611  -49.0073 C.2       14 UNK         0.5000 
     83 O           0.2435  -28.3304  -49.8036 O.2       14 UNK        -0.5000 
     84 N          -0.9693  -26.4808  -49.3151 N.am      15 UNK        -0.5000 
     85 CA         -1.5904  -26.2747  -50.6194 C.3       15 UNK         0.1400 
     86 CB         -0.6714  -25.3954  -51.4868 C.3       15 UNK        -0.1800 
     87 C          -2.9688  -25.6250  -50.4344 C.2       15 UNK         0.5000 
     88 O          -3.3098  -25.1958  -49.3305 O.2       15 UNK        -0.5000 
     89 N          -3.7415  -25.5408  -51.5240 N.am      16 UNK        -0.5000 
     90 CA         -5.0822  -24.9517  -51.5697 C.3       16 UNK         0.1400 
     91 CB         -5.8120  -25.4812  -52.8165 C.3       16 UNK        -0.1800 
     92 C          -5.0500  -23.4081  -51.5099 C.2       16 UNK         0.5000 
     93 O          -5.4880  -22.7350  -52.4449 O.2       16 UNK        -0.5000 
     94 N          -4.5366  -22.8683  -50.3973 N.am      17 UNK        -0.5000 
     95 CA         -4.3599  -21.4364  -50.1364 C.3       17 UNK         0.1400 
     96 CB         -3.6642  -21.2567  -48.7775 C.3       17 UNK        -0.1800 
     97 C          -5.6672  -20.6204  -50.1770 C.2       17 UNK         0.5000 
     98 O          -5.6287  -19.4365  -50.5067 O.2       17 UNK        -0.5000 
     99 N          -6.7937  -21.2723  -49.8580 N.am      18 UNK        -0.5000 
    100 CA        -8.1372  -20.6982  -49.9256 C.3       18 UNK         0.1400 
    101 CB        -9.0723  -21.5236  -49.0280 C.3       18 UNK        -0.1800 
    102 C         -8.6965  -20.6252  -51.3611 C.2       18 UNK         0.5000 
    103 O         -9.5686  -19.7948  -51.6196 O.2       18 UNK        -0.5000 
    104 N         -8.2098  -21.4927  -52.2613 N.am      19 UNK        -0.5000 
    105 CA        -8.5891  -21.5079  -53.6762 C.3       19 UNK         0.1400 
    106 CB        -8.4472  -22.9327  -54.2332 C.3       19 UNK        -0.1800 
    107 C         -7.7415  -20.5200  -54.4957 C.2       19 UNK         0.5000 
    108 O         -8.2444  -19.9421  -55.4606 O.2       19 UNK        -0.5000 
    109 N         -6.4771  -20.3372  -54.0911 N.am      20 UNK        -0.5000 
    110 CA        -5.5562  -19.3355  -54.6248 C.3       20 UNK         0.1400 
    111 CB        -4.1626  -19.5862  -54.0257 C.3       20 UNK        -0.1800 
    112 C         -6.0202  -17.8986  -54.3128 C.2       20 UNK         0.5000 
    113 O         -6.6913  -17.6718  -53.3033 O.2       20 UNK        -0.5000 
    114 N         -5.6257  -16.9458  -55.1692 N.am      21 UNK        -0.5000 
    115 CA        -5.8900  -15.5152  -54.9814 C.3       21 UNK         0.1400 
    116 CB        -5.5275  -14.7512  -56.2645 C.3       21 UNK        -0.1800 
    117 C         -5.1348  -14.9419  -53.7673 C.2       21 UNK         0.5000 
    118 O         -5.7166  -14.1907  -52.9843 O.2       21 UNK        -0.5000 
    119 N         -3.8668  -15.3534  -53.6220 N.am      22 UNK        -0.5000 
    120 CA        -2.9990  -15.0981  -52.4607 C.3       22 UNK         0.1400 
    121 C         -2.6342  -13.6004  -52.2064 C.2       22 UNK         0.5000 
    122 N         -2.7426  -12.7239  -53.1969 N.am      22 UNK        -0.7600 
    123 O         -2.2203  -13.2241  -51.1138 O.2       22 UNK        -0.5000 
    124 C124       -3.5052  -15.8563  -51.1968 C.3       23 UNK        -0.0398 
    125 S125       -2.1431  -16.5906  -50.2354 S.3       23 UNK        -0.2404 
    126 C126       -1.9003  -18.1591  -51.1246 C.3       23 UNK        -0.0205 
    127 H127        6.7042  -10.5644  -51.0133 H         1 UNK         0.0600 
    128 H128        7.6067  -12.0500  -51.3237 H         1 UNK         0.0600 
    129 H129        7.8318  -11.1832  -49.8019 H         1 UNK         0.0600 
    130 H130        6.3196  -13.8547  -51.1154 H         1 UNK         0.3000 
    131 H131        4.6648  -14.3389  -48.8108 H         1 UNK         0.0600 
    132 H132        5.9523  -16.1397  -49.9528 H         1 UNK         0.0800 
    133 H133        4.9816  -15.9573  -51.3842 H         1 UNK         0.0800 
    134 H134        3.9052  -18.4724  -51.5102 H         1 UNK         0.0800 
    135 H135        2.9275  -17.0588  -51.8291 H         1 UNK         0.0800 
    136 H136        0.5611  -17.0418  -51.4146 H         1 UNK         0.1150 
    137 H137       -1.3537  -20.6725  -50.1931 H         1 UNK         0.1150 
    138 H138        2.9223  -20.3936  -50.1727 H         1 UNK         0.1150 
    139 H139       -0.1134  -22.5647  -49.5063 H         1 UNK         0.0800 
    140 H140        1.3525  -22.7212  -50.4427 H         1 UNK         0.0800 
    141 H141       -0.1115  -21.1257  -47.3283 H         1 UNK         0.0800 
    142 H142        1.2758  -20.9682  -46.2928 H         1 UNK         0.0800 
    143 H143        0.9193  -23.5871  -45.8600 H         1 UNK         0.0600 
    144 H144        0.0864  -21.3090  -44.4210 H         1 UNK         0.3000 
    145 H145       -1.1285  -21.7733  -42.0627 H         1 UNK         0.0600 
    146 H146       -0.1429  -22.7233  -39.9640 H         1 UNK         0.0600 
    147 H147       -1.0295  -23.9304  -40.8819 H         1 UNK         0.0600 
    148 H148        0.7267  -23.9273  -40.9148 H         1 UNK         0.0600 
    149 H149        0.5746  -20.3744  -42.0376 H         1 UNK         0.3000 
    150 H150        3.9578  -20.4718  -41.5678 H         1 UNK         0.0600 
    151 H151        4.2025  -21.0965  -43.9768 H         1 UNK         0.0600 
    152 H152        4.3732  -19.3622  -43.7570 H         1 UNK         0.0600 
    153 H153        2.8728  -20.0252  -44.4020 H         1 UNK         0.0600 
    154 H154        2.2412  -18.4337  -42.6646 H         1 UNK         0.3000 
    155 H155        0.8643  -17.3767  -39.5386 H         1 UNK         0.0600 
    156 H156        3.0668  -16.2242  -39.7580 H         1 UNK         0.0600 
    157 H157        1.7586  -15.2178  -40.3607 H         1 UNK         0.0600 
    158 H158        2.8207  -16.0534  -41.4913 H         1 UNK         0.0600 
    159 H159        0.4483  -16.4271  -42.1832 H         1 UNK         0.3000 
    160 H160       -2.3003  -18.6026  -42.9989 H         1 UNK         0.0600 
    161 H161       -2.0600  -15.6006  -42.4320 H         1 UNK         0.0600 
    162 H162       -3.1547  -16.7008  -41.6008 H         1 UNK         0.0600 
    163 H163       -3.3560  -16.4000  -43.3194 H         1 UNK         0.0600 
    164 H164       -1.0579  -16.5295  -44.4920 H         1 UNK         0.3000 
    165 H165        1.4142  -18.5826  -46.1213 H         1 UNK         0.0600 
    166 H166        0.3115  -17.5398  -48.0792 H         1 UNK         0.0600 
    167 H167       -0.7165  -18.7993  -47.4154 H         1 UNK         0.0600 
    168 H168       -1.0880  -17.1115  -47.1004 H         1 UNK         0.0600 
    169 H169        0.9179  -15.8126  -46.3440 H         1 UNK         0.3000 
    170 H170        3.0218  -14.6841  -43.6842 H         1 UNK         0.0600 
    171 H171        4.5235  -15.1368  -45.6030 H         1 UNK         0.0600 
    172 H172        3.2768  -14.6486  -46.7396 H         1 UNK         0.0600 
    173 H173        3.9847  -13.4646  -45.6418 H         1 UNK         0.0600 
    174 H174        1.3242  -13.4776  -45.7157 H         1 UNK         0.3000 
    175 H175       -1.4777  -12.9777  -43.5683 H         1 UNK         0.0600 
    176 H176        0.1295  -11.1360  -43.0450 H         1 UNK         0.0600 
    177 H177        0.5824  -11.0336  -44.7423 H         1 UNK         0.0600 
    178 H178       -1.0589  -10.6326  -44.2363 H         1 UNK         0.0600 
    179 H179       -0.9676  -12.2236  -46.2808 H         1 UNK         0.3000 
    180 H180       -2.3521  -15.1854  -47.7516 H         1 UNK         0.0600 
    181 H181       -3.3592  -12.3034  -47.5912 H         1 UNK         0.0600 
    182 H182       -4.2574  -13.7212  -47.0589 H         1 UNK         0.0600 
    183 H183       -3.8611  -13.5244  -48.7579 H         1 UNK         0.0600 
    184 H184       -1.5578  -13.2229  -49.3272 H         1 UNK         0.3000 
    185 H185        0.5407  -13.8852  -50.6230 H         1 UNK         0.0600 
    186 H186       -0.1401  -11.5433  -49.9788 H         1 UNK         0.0600 
    187 H187        1.2633  -11.4097  -48.9237 H         1 UNK         0.0600 
    188 H188        1.4690  -11.5257  -50.6696 H         1 UNK         0.0600 
    189 H189        2.4733  -14.2527  -48.6063 H         1 UNK         0.3000 
    190 H190       -2.2633  -22.5794  -45.1102 H         1 UNK         0.3000 
    191 H191       -3.7750  -23.7934  -47.1914 H         1 UNK         0.0600 
    192 H192       -4.4472  -23.3529  -44.2344 H         1 UNK         0.0600 
    193 H193       -5.6091  -23.7182  -45.5044 H         1 UNK         0.0600 
    194 H194       -4.7290  -22.1993  -45.5387 H         1 UNK         0.0600 
    195 H195       -1.8976  -25.2475  -44.6064 H         1 UNK         0.3000 
    196 H196       -3.1986  -27.8840  -44.8491 H         1 UNK         0.0600 
    197 H197       -1.5099  -28.5434  -43.1720 H         1 UNK         0.0600 
    198 H198       -2.3298  -27.0815  -42.6453 H         1 UNK         0.0600 
    199 H199       -0.7018  -26.9883  -43.3162 H         1 UNK         0.0600 
    200 H200       -0.7161  -26.0826  -46.4888 H         1 UNK         0.3000 
    201 H201        0.7818  -28.4961  -47.3611 H         1 UNK         0.0600 
    202 H202        2.0785  -26.5687  -46.4535 H         1 UNK         0.0600 
    203 H203        1.4027  -25.5145  -47.6943 H         1 UNK         0.0600 
    204 H204        2.4475  -26.8527  -48.1479 H         1 UNK         0.0600 
    205 H205       -1.2274  -25.7939  -48.6097 H         1 UNK         0.3000 
    206 H206       -1.7428  -27.2388  -51.1088 H         1 UNK         0.0600 
    207 H207        0.3147  -25.8456  -51.6018 H         1 UNK         0.0600 
    208 H208       -1.0811  -25.2583  -52.4879 H         1 UNK         0.0600 
    209 H209       -0.5379  -24.4066  -51.0486 H         1 UNK         0.0600 
    210 H210       -3.3809  -25.8843  -52.4023 H         1 UNK         0.3000 
    211 H211       -5.6390  -25.2946  -50.6950 H         1 UNK         0.0600 
    212 H212       -6.8455  -25.1350  -52.8376 H         1 UNK         0.0600 
    213 H213       -5.8400  -26.5709  -52.8247 H         1 UNK         0.0600 
    214 H214       -5.3319  -25.1505  -53.7384 H         1 UNK         0.0600 
    215 H215       -4.1564  -23.5138  -49.7103 H         1 UNK         0.3000 
    216 H216       -3.7046  -21.0486  -50.9180 H         1 UNK         0.0600 
    217 H217       -3.3852  -20.2143  -48.6169 H         1 UNK         0.0600 
    218 H218       -2.7544  -21.8534  -48.7103 H         1 UNK         0.0600 
    219 H219       -4.3162  -21.5488  -47.9543 H         1 UNK         0.0600 
    220 H220       -6.7247  -22.2408  -49.5831 H         1 UNK         0.3000 
    221 H221       -8.1016  -19.6794  -49.5335 H         1 UNK         0.0600 
    222 H222       -9.1443  -22.5586  -49.3647 H         1 UNK         0.0600 
    223 H223       -8.7244  -21.5290  -47.9949 H         1 UNK         0.0600 
    224 H224      -10.0808  -21.1078  -49.0276 H         1 UNK         0.0600 
    225 H225       -7.4501  -22.1056  -51.9947 H         1 UNK         0.3000 
    226 H226       -9.6369  -21.2150  -53.7723 H         1 UNK         0.0600 
    227 H227       -9.0148  -23.6496  -53.6398 H         1 UNK         0.0600 
    228 H228       -8.8225  -22.9866  -55.2558 H         1 UNK         0.0600 
    229 H229       -7.4069  -23.2573  -54.2532 H         1 UNK         0.0600 
    230 H230       -6.1434  -20.8872  -53.3097 H         1 UNK         0.3000 
    231 H231       -5.5055  -19.4633  -55.7079 H         1 UNK         0.0600 
    232 H232       -3.8153  -20.5972  -54.2403 H         1 UNK         0.0600 
    233 H233       -4.1653  -19.4569  -52.9430 H         1 UNK         0.0600 
    234 H234       -3.4265  -18.8947  -54.4369 H         1 UNK         0.0600 
    235 H235       -5.0848  -17.2046  -55.9818 H         1 UNK         0.3000 
    236 H236       -6.9595  -15.3872  -54.8006 H         1 UNK         0.0600 
    237 H237       -5.7267  -13.6846  -56.1520 H         1 UNK         0.0600 
    238 H238       -4.4733  -14.8634  -56.5202 H         1 UNK         0.0600 
    239 H239       -6.1173  -15.1025  -57.1114 H         1 UNK         0.0600 
    240 H240       -3.4785  -15.9523  -54.3355 H         1 UNK         0.3000 
    241 H241       -2.0482  -15.5432  -52.7551 H         1 UNK         0.0600 
    242 H242       -2.5002  -11.7601  -53.0310 H         1 UNK         0.3800 
    243 H243       -3.0774  -13.0096  -54.1027 H         1 UNK         0.3800 
    244 H244       -4.0911  -15.2006  -50.5515 H         1 UNK         0.0800 
    245 H245       -4.1821  -16.6677  -51.4713 H         1 UNK         0.0800 
    246 H246       -2.7144  -18.8355  -50.8639 H         1 UNK         0.0800 
    247 H247       -1.9656  -17.9892  -52.1998 H         1 UNK         0.0800 
@<TRIPOS>BOND
     1    1    2 1    
     2    1  127 1    
     3    1  128 1    
     4    1  129 1    
     5    2    3 2    
     6    2    4 am   BACKBONE|DICT|INTERRES
     7    4    5 1    
     8    4  130 1    
     9    5    6 1    
    10    5   65 1    
    11    5  131 1    
    12    6    7 1    
    13    6  132 1    
    14    6  133 1    
    15    7    8 1    
    16    8    9 1    
    17    8  134 1    
    18    8  135 1    
    19    9   10 ar   
    20    9   14 ar   
    21   10   11 ar   
    22   10  136 1    
    23   11   12 ar   
    24   11  126 1    
    25   12   13 ar   
    26   12  137 1    
    27   13   14 ar   
    28   13   15 1    
    29   14  138 1    
    30   15   16 1    
    31   15  139 1    
    32   15  140 1    
    33   16   17 1    
    34   17   18 1    
    35   17  141 1    
    36   17  142 1    
    37   18   19 1    
    38   18   67 1    
    39   18  143 1    
    40   19   20 am   BACKBONE|DICT|INTERRES
    41   19  144 1    
    42   20   21 2    
    43   20   22 1    
    44   22   23 1    
    45   22   24 1    
    46   22  145 1    
    47   23  146 1    
    48   23  147 1    
    49   23  148 1    
    50   24   25 am   BACKBONE|DICT|INTERRES
    51   24  149 1    
    52   25   26 2    
    53   25   27 1    
    54   27   28 1    
    55   27   29 1    
    56   27  150 1    
    57   28  151 1    
    58   28  152 1    
    59   28  153 1    
    60   29   30 am   BACKBONE|DICT|INTERRES
    61   29  154 1    
    62   30   31 2    
    63   30   32 1    
    64   32   33 1    
    65   32   34 1    
    66   32  155 1    
    67   33  156 1    
    68   33  157 1    
    69   33  158 1    
    70   34   35 am   BACKBONE|DICT|INTERRES
    71   34  159 1    
    72   35   36 2    
    73   35   37 1    
    74   37   38 1    
    75   37   39 1    
    76   37  160 1    
    77   38  161 1    
    78   38  162 1    
    79   38  163 1    
    80   39   40 am   BACKBONE|DICT|INTERRES
    81   39  164 1    
    82   40   41 2    
    83   40   42 1    
    84   42   43 1    
    85   42   44 1    
    86   42  165 1    
    87   43  166 1    
    88   43  167 1    
    89   43  168 1    
    90   44   45 am   BACKBONE|DICT|INTERRES
    91   44  169 1    
    92   45   46 2    
    93   45   47 1    
    94   47   48 1    
    95   47   49 1    
    96   47  170 1    
    97   48  171 1    
    98   48  172 1    
    99   48  173 1    
   100   49   50 am   BACKBONE|DICT|INTERRES
   101   49  174 1    
   102   50   51 2    
   103   50   52 1    
   104   52   53 1    
   105   52   54 1    
   106   52  175 1    
   107   53  176 1    
   108   53  177 1    
   109   53  178 1    
   110   54   55 am   BACKBONE|DICT|INTERRES
   111   54  179 1    
   112   55   56 2    
   113   55   57 1    
   114   57   58 1    
   115   57   59 1    
   116   57  180 1    
   117   58  181 1    
   118   58  182 1    
   119   58  183 1    
   120   59   60 am   BACKBONE|DICT|INTERRES
   121   59  184 1    
   122   60   61 2    
   123   60   62 1    
   124   62   63 1    
   125   62   64 1    
   126   62  185 1    
   127   63  186 1    
   128   63  187 1    
   129   63  188 1    
   130   64   65 am   BACKBONE|DICT|INTERRES
   131   64  189 1    
   132   65   66 2    
   133   67   68 2    
   134   67   69 am   BACKBONE|DICT|INTERRES
   135   69   70 1    
   136   69  190 1    
   137   70   71 1    
   138   70   72 1    
   139   70  191 1    
   140   71  192 1    
   141   71  193 1    
   142   71  194 1    
   143   72   73 2    
   144   72   74 am   BACKBONE|DICT|INTERRES
   145   74   75 1    
   146   74  195 1    
   147   75   76 1    
   148   75   77 1    
   149   75  196 1    
   150   76  197 1    
   151   76  198 1    
   152   76  199 1    
   153   77   78 2    
   154   77   79 am   BACKBONE|DICT|INTERRES
   155   79   80 1    
   156   79  200 1    
   157   80   81 1    
   158   80   82 1    
   159   80  201 1    
   160   81  202 1    
   161   81  203 1    
   162   81  204 1    
   163   82   83 2    
   164   82   84 am   BACKBONE|DICT|INTERRES
   165   84   85 1    
   166   84  205 1    
   167   85   86 1    
   168   85   87 1    
   169   85  206 1    
   170   86  207 1    
   171   86  208 1    
   172   86  209 1    
   173   87   88 2    
   174   87   89 am   BACKBONE|DICT|INTERRES
   175   89   90 1    
   176   89  210 1    
   177   90   91 1    
   178   90   92 1    
   179   90  211 1    
   180   91  212 1    
   181   91  213 1    
   182   91  214 1    
   183   92   93 2    
   184   92   94 am   BACKBONE|DICT|INTERRES
   185   94   95 1    
   186   94  215 1    
   187   95   96 1    
   188   95   97 1    
   189   95  216 1    
   190   96  217 1    
   191   96  218 1    
   192   96  219 1    
   193   97   98 2    
   194   97   99 am   BACKBONE|DICT|INTERRES
   195   99  100 1    
   196   99  220 1    
   197  100  101 1    
   198  100  102 1    
   199  100  221 1    
   200  101  222 1    
   201  101  223 1    
   202  101  224 1    
   203  102  103 2    
   204  102  104 am   BACKBONE|DICT|INTERRES
   205  104  105 1    
   206  104  225 1    
   207  105  106 1    
   208  105  107 1    
   209  105  226 1    
   210  106  227 1    
   211  106  228 1    
   212  106  229 1    
   213  107  108 2    
   214  107  109 am   BACKBONE|DICT|INTERRES
   215  109  110 1    
   216  109  230 1    
   217  110  111 1    
   218  110  112 1    
   219  110  231 1    
   220  111  232 1    
   221  111  233 1    
   222  111  234 1    
   223  112  113 2    
   224  112  114 am   BACKBONE|DICT|INTERRES
   225  114  115 1    
   226  114  235 1    
   227  115  116 1    
   228  115  117 1    
   229  115  236 1    
   230  116  237 1    
   231  116  238 1    
   232  116  239 1    
   233  117  118 2    
   234  117  119 am   BACKBONE|DICT|INTERRES
   235  119  120 1    
   236  119  240 1    
   237  120  121 1    
   238  120  124 1    
   239  120  241 1    
   240  121  122 am   BACKBONE|DICT|INTERRES
   241  121  123 2    
   242  122  242 1    
   243  122  243 1    
   244  124  125 1    
   245  124  244 1    
   246  124  245 1    
   247  125  126 1    
   248  126  246 1    
   249  126  247 1    
@<TRIPOS>SUBSTRUCTURE
     1 UNK         1 GROUP             0       ****    0 ROOT    
