@<TRIPOS>MOLECULE
3R540
247   249    1
SMALL
USER_CHARGES


@<TRIPOS>ATOM
      1 CA          6.1553  -15.3817  -46.4200 C.3       0 UNK        -0.1800 
      2 C           5.1252  -14.6123  -45.6057 C.2       0 UNK         0.5000 
      3 O           5.2144  -14.5783  -44.3787 O.2       0 UNK        -0.5000 
      4 N           4.1444  -14.0049  -46.2856 N.am      1 UNK        -0.5000 
      5 CA          3.0484  -13.2417  -45.6757 C.3       1 UNK         0.1400 
      6 C6          1.8908  -12.9758  -46.6716 C.3       23 UNK        -0.0398 
      7 S7          1.1562  -14.5144  -47.3190 S.3       23 UNK        -0.2404 
      8 C8          1.9009  -14.5917  -48.9768 C.3       23 UNK        -0.0205 
      9 C9          1.7629  -15.9744  -49.5952 C.ar      23 UNK        -0.0193 
     10 C10         0.7944  -16.2213  -50.5738 C.ar      23 UNK        -0.1150 
     11 C11         0.6999  -17.4805  -51.1744 C.ar      23 UNK        -0.0193 
     12 C12         1.5853  -18.4914  -50.7955 C.ar      23 UNK        -0.1150 
     13 C13         2.5461  -18.2635  -49.8070 C.ar      23 UNK        -0.0193 
     14 C14         2.6301  -17.0022  -49.2097 C.ar      23 UNK        -0.1150 
     15 C15         3.5031  -19.3757  -49.4026 C.3       23 UNK        -0.0205 
     16 S16         2.8455  -20.3871  -48.0392 S.3       23 UNK        -0.2404 
     17 C17         1.4195  -21.1933  -48.8429 C.3       23 UNK        -0.0398 
     18 CA          0.9119  -22.4287  -48.0657 C.3       11 UNK         0.1400 
     19 N           0.4035  -22.0873  -46.7340 N.am      11 UNK        -0.5000 
     20 C           0.0166  -22.9752  -45.8077 C.2       10 UNK         0.5000 
     21 O           0.1046  -24.1950  -45.9486 O.2       10 UNK        -0.5000 
     22 CA         -0.6306  -22.4055  -44.5340 C.3       10 UNK         0.1400 
     23 CB          0.4332  -21.9313  -43.5320 C.3       10 UNK        -0.1800 
     24 N          -1.5539  -21.3115  -44.8382 N.am      10 UNK        -0.5000 
     25 C          -2.7391  -21.4746  -45.4427 C.2       9 UNK         0.5000 
     26 O          -3.1937  -22.5715  -45.7653 O.2       9 UNK        -0.5000 
     27 CA         -3.5344  -20.1998  -45.7773 C.3       9 UNK         0.1400 
     28 CB         -4.3743  -19.7473  -44.5743 C.3       9 UNK        -0.1800 
     29 N          -2.6758  -19.0995  -46.2139 N.am      9 UNK        -0.5000 
     30 C          -2.0078  -19.0874  -47.3770 C.2       8 UNK         0.5000 
     31 O          -2.0516  -20.0034  -48.1955 O.2       8 UNK        -0.5000 
     32 CA         -1.1012  -17.8728  -47.6477 C.3       8 UNK         0.1400 
     33 CB         -1.9394  -16.7002  -48.1816 C.3       8 UNK        -0.1800 
     34 N          -0.3636  -17.4172  -46.4701 N.am      8 UNK        -0.5000 
     35 C           0.3923  -18.1698  -45.6592 C.2       7 UNK         0.5000 
     36 O           0.5997  -19.3688  -45.8305 O.2       7 UNK        -0.5000 
     37 CA          0.9467  -17.4852  -44.3966 C.3       7 UNK         0.1400 
     38 CB          2.3940  -17.0241  -44.6195 C.3       7 UNK        -0.1800 
     39 N           0.1330  -16.3556  -43.9318 N.am      7 UNK        -0.5000 
     40 C          -1.1453  -16.4348  -43.5307 C.2       6 UNK         0.5000 
     41 O          -1.7970  -17.4809  -43.5610 O.2       6 UNK        -0.5000 
     42 CA         -1.7932  -15.1339  -43.0089 C.3       6 UNK         0.1400 
     43 CB         -3.0985  -15.3966  -42.2359 C.3       6 UNK        -0.1800 
     44 N          -0.8778  -14.3823  -42.1465 N.am      6 UNK        -0.5000 
     45 C           0.0094  -13.4762  -42.5705 C.2       5 UNK         0.5000 
     46 O           0.1545  -13.1690  -43.7549 O.2       5 UNK        -0.5000 
     47 CA          0.9351  -12.8795  -41.5018 C.3       5 UNK         0.1400 
     48 CB          2.2187  -13.7186  -41.3916 C.3       5 UNK        -0.1800 
     49 N           1.2995  -11.5095  -41.8520 N.am      5 UNK        -0.5000 
     50 C           0.7049  -10.4142  -41.3661 C.2       4 UNK         0.5000 
     51 O          -0.2280  -10.4477  -40.5620 O.2       4 UNK        -0.5000 
     52 CA          1.2350   -9.0507  -41.8370 C.3       4 UNK         0.1400 
     53 CB          2.4902   -8.6492  -41.0435 C.3       4 UNK        -0.1800 
     54 N           1.5345   -9.0191  -43.2701 N.am      4 UNK        -0.5000 
     55 C           1.3182   -7.9563  -44.0605 C.2       3 UNK         0.5000 
     56 O           0.7736   -6.9223  -43.6679 O.2       3 UNK        -0.5000 
     57 CA          1.7894   -8.0556  -45.5316 C.3       3 UNK         0.1400 
     58 CB          2.0314   -6.6763  -46.1805 C.3       3 UNK        -0.1800 
     59 N           2.9565   -8.9249  -45.7158 N.am      3 UNK        -0.5000 
     60 C           4.1693   -8.8052  -45.1518 C.2       2 UNK         0.5000 
     61 O           4.5183   -7.8338  -44.4793 O.2       2 UNK        -0.5000 
     62 CA          5.1464   -9.9897  -45.3543 C.3       2 UNK         0.1400 
     63 CB          6.0438  -10.2125  -44.1192 C.3       2 UNK        -0.1800 
     64 N           4.5029  -11.2581  -45.7379 N.am      2 UNK        -0.5000 
     65 C           3.5405  -11.9134  -45.0673 C.2       1 UNK         0.5000 
     66 O           3.0271  -11.4914  -44.0308 O.2       1 UNK        -0.5000 
     67 C          -0.1430  -23.1910  -48.8925 C.2       11 UNK         0.5000 
     68 O           0.1858  -24.2121  -49.4964 O.2       11 UNK        -0.5000 
     69 N          -1.3967  -22.7153  -48.8651 N.am      12 UNK        -0.5000 
     70 CA         -2.5422  -23.3674  -49.4957 C.3       12 UNK         0.1400 
     71 CB         -3.7785  -22.4688  -49.3881 C.3       12 UNK        -0.1800 
     72 C          -2.8287  -24.7551  -48.9016 C.2       12 UNK         0.5000 
     73 O          -3.0117  -25.7025  -49.6624 O.2       12 UNK        -0.5000 
     74 N          -2.8109  -24.8682  -47.5653 N.am      13 UNK        -0.5000 
     75 CA         -2.9849  -26.1299  -46.8430 C.3       13 UNK         0.1400 
     76 CB         -3.0540  -25.8636  -45.3321 C.3       13 UNK        -0.1800 
     77 C          -1.8917  -27.1641  -47.1697 C.2       13 UNK         0.5000 
     78 O          -2.2133  -28.3338  -47.3794 O.2       13 UNK        -0.5000 
     79 N          -0.6331  -26.7105  -47.2606 N.am      14 UNK        -0.5000 
     80 CA          0.5160  -27.5202  -47.6734 C.3       14 UNK         0.1400 
     81 CB          1.8112  -26.7292  -47.4353 C.3       14 UNK        -0.1800 
     82 C           0.4244  -27.9942  -49.1378 C.2       14 UNK         0.5000 
     83 O           0.8093  -29.1254  -49.4354 O.2       14 UNK        -0.5000 
     84 N          -0.1114  -27.1367  -50.0167 N.am      15 UNK        -0.5000 
     85 CA         -0.3837  -27.4340  -51.4253 C.3       15 UNK         0.1400 
     86 CB         -0.5100  -26.1070  -52.1924 C.3       15 UNK        -0.1800 
     87 C          -1.6424  -28.3014  -51.6448 C.2       15 UNK         0.5000 
     88 O          -1.8491  -28.7775  -52.7619 O.2       15 UNK        -0.5000 
     89 N          -2.4620  -28.4717  -50.5960 N.am      16 UNK        -0.5000 
     90 CA         -3.7834  -29.1088  -50.5789 C.3       16 UNK         0.1400 
     91 CB         -3.6804  -30.6155  -50.8953 C.3       16 UNK        -0.1800 
     92 C          -4.8070  -28.3619  -51.4632 C.2       16 UNK         0.5000 
     93 O          -5.6089  -28.9895  -52.1581 O.2       16 UNK        -0.5000 
     94 N          -4.7469  -27.0273  -51.4197 N.am      17 UNK        -0.5000 
     95 CA         -5.5899  -26.0943  -52.1582 C.3       17 UNK         0.1400 
     96 CB         -4.6702  -25.1984  -53.0070 C.3       17 UNK        -0.1800 
     97 C          -6.4120  -25.2340  -51.1838 C.2       17 UNK         0.5000 
     98 O          -6.1425  -25.2157  -49.9801 O.2       17 UNK        -0.5000 
     99 N          -7.3890  -24.5026  -51.7317 N.am      18 UNK        -0.5000 
    100 CA        -8.1048  -23.4378  -51.0298 C.3       18 UNK         0.1400 
    101 CB        -9.4066  -23.1332  -51.7869 C.3       18 UNK        -0.1800 
    102 C         -7.2320  -22.1732  -50.9554 C.2       18 UNK         0.5000 
    103 O         -6.4383  -21.9298  -51.8675 O.2       18 UNK        -0.5000 
    104 N         -7.4237  -21.3553  -49.9125 N.am      19 UNK        -0.5000 
    105 CA        -6.6948  -20.0961  -49.7044 C.3       19 UNK         0.1400 
    106 CB        -7.0266  -19.5399  -48.3117 C.3       19 UNK        -0.1800 
    107 C         -6.9511  -19.0372  -50.7971 C.2       19 UNK         0.5000 
    108 O         -6.0886  -18.1932  -51.0374 O.2       19 UNK        -0.5000 
    109 N         -8.1146  -19.1213  -51.4581 N.am      20 UNK        -0.5000 
    110 CA        -8.4759  -18.3052  -52.6177 C.3       20 UNK         0.1400 
    111 CB        -9.9871  -18.4300  -52.8646 C.3       20 UNK        -0.1800 
    112 C         -7.6893  -18.6850  -53.8888 C.2       20 UNK         0.5000 
    113 O         -7.4416  -17.8154  -54.7250 O.2       20 UNK        -0.5000 
    114 N         -7.3119  -19.9657  -54.0129 N.am      21 UNK        -0.5000 
    115 CA        -6.4736  -20.4793  -55.0964 C.3       21 UNK         0.1400 
    116 CB        -6.7927  -21.9644  -55.3339 C.3       21 UNK        -0.1800 
    117 C         -4.9832  -20.2788  -54.7753 C.2       21 UNK         0.5000 
    118 O         -4.2242  -19.8504  -55.6450 O.2       21 UNK        -0.5000 
    119 N         -4.6073  -20.5637  -53.5213 N.am      22 UNK        -0.5000 
    120 CA        -3.2659  -20.3747  -52.9478 C.3       22 UNK         0.1400 
    121 C         -2.1769  -21.3584  -53.4802 C.2       22 UNK         0.5000 
    122 N         -2.5466  -22.4630  -54.1171 N.am      22 UNK        -0.7600 
    123 O         -0.9829  -21.1402  -53.2984 O.2       22 UNK        -0.5000 
    124 C124       -2.8317  -18.8803  -52.9582 C.3       23 UNK        -0.0398 
    125 S125       -1.8683  -18.4200  -51.4805 S.3       23 UNK        -0.2404 
    126 C126       -0.3529  -17.7595  -52.2339 C.3       23 UNK        -0.0205 
    127 H127        7.1506  -14.9711  -46.2506 H         1 UNK         0.0600 
    128 H128        5.9449  -15.3360  -47.4888 H         1 UNK         0.0600 
    129 H129        6.1614  -16.4298  -46.1204 H         1 UNK         0.0600 
    130 H130        4.1220  -14.0825  -47.2908 H         1 UNK         0.3000 
    131 H131        2.6489  -13.8374  -44.8525 H         1 UNK         0.0600 
    132 H132        1.0900  -12.4205  -46.1798 H         1 UNK         0.0800 
    133 H133        2.2224  -12.3513  -47.5030 H         1 UNK         0.0800 
    134 H134        2.9586  -14.3331  -48.9243 H         1 UNK         0.0800 
    135 H135        1.4334  -13.8386  -49.6131 H         1 UNK         0.0800 
    136 H136        0.1149  -15.4345  -50.8698 H         1 UNK         0.1150 
    137 H137        1.5153  -19.4623  -51.2655 H         1 UNK         0.1150 
    138 H138        3.3748  -16.8178  -48.4480 H         1 UNK         0.1150 
    139 H139        3.7258  -20.0146  -50.2585 H         1 UNK         0.0800 
    140 H140        4.4562  -18.9461  -49.0908 H         1 UNK         0.0800 
    141 H141        1.7201  -21.4827  -49.8516 H         1 UNK         0.0800 
    142 H142        0.6205  -20.4584  -48.9536 H         1 UNK         0.0800 
    143 H143        1.7562  -23.1069  -47.9239 H         1 UNK         0.0600 
    144 H144        0.3566  -21.0961  -46.5079 H         1 UNK         0.3000 
    145 H145       -1.2000  -23.2086  -44.0614 H         1 UNK         0.0600 
    146 H146       -0.0260  -21.5568  -42.6171 H         1 UNK         0.0600 
    147 H147        1.0934  -22.7530  -43.2518 H         1 UNK         0.0600 
    148 H148        1.0580  -21.1383  -43.9427 H         1 UNK         0.0600 
    149 H149       -1.2198  -20.3729  -44.6704 H         1 UNK         0.3000 
    150 H150       -4.2175  -20.4403  -46.5947 H         1 UNK         0.0600 
    151 H151       -5.0471  -20.5415  -44.2481 H         1 UNK         0.0600 
    152 H152       -4.9893  -18.8831  -44.8257 H         1 UNK         0.0600 
    153 H153       -3.7477  -19.4772  -43.7235 H         1 UNK         0.0600 
    154 H154       -2.5357  -18.3412  -45.5582 H         1 UNK         0.3000 
    155 H155       -0.3726  -18.1611  -48.4073 H         1 UNK         0.0600 
    156 H156       -2.6063  -16.3009  -47.4167 H         1 UNK         0.0600 
    157 H157       -1.3042  -15.8866  -48.5300 H         1 UNK         0.0600 
    158 H158       -2.5603  -17.0074  -49.0230 H         1 UNK         0.0600 
    159 H159       -0.4400  -16.4347  -46.2525 H         1 UNK         0.3000 
    160 H160        0.9496  -18.2322  -43.6001 H         1 UNK         0.0600 
    161 H161        2.4657  -16.3026  -45.4316 H         1 UNK         0.0600 
    162 H162        3.0339  -17.8679  -44.8809 H         1 UNK         0.0600 
    163 H163        2.8104  -16.5648  -43.7227 H         1 UNK         0.0600 
    164 H164        0.5769  -15.4477  -43.9147 H         1 UNK         0.3000 
    165 H165       -2.0452  -14.5319  -43.8845 H         1 UNK         0.0600 
    166 H166       -3.5481  -14.4642  -41.8938 H         1 UNK         0.0600 
    167 H167       -3.8353  -15.8963  -42.8662 H         1 UNK         0.0600 
    168 H168       -2.9293  -16.0282  -41.3630 H         1 UNK         0.0600 
    169 H169       -0.9031  -14.6181  -41.1645 H         1 UNK         0.3000 
    170 H170        0.4259  -12.9013  -40.5359 H         1 UNK         0.0600 
    171 H171        1.9922  -14.7497  -41.1174 H         1 UNK         0.0600 
    172 H172        2.7702  -13.7436  -42.3324 H         1 UNK         0.0600 
    173 H173        2.8847  -13.3183  -40.6270 H         1 UNK         0.0600 
    174 H174        2.0127  -11.4246  -42.5730 H         1 UNK         0.3000 
    175 H175        0.4483   -8.3273  -41.6118 H         1 UNK         0.0600 
    176 H176        3.3264   -9.3178  -41.2526 H         1 UNK         0.0600 
    177 H177        2.8047   -7.6352  -41.2913 H         1 UNK         0.0600 
    178 H178        2.3028   -8.6789  -39.9694 H         1 UNK         0.0600 
    179 H179        1.9862   -9.8401  -43.6596 H         1 UNK         0.3000 
    180 H180        0.9705   -8.5314  -46.0728 H         1 UNK         0.0600 
    181 H181        2.7920   -6.1054  -45.6473 H         1 UNK         0.0600 
    182 H182        1.1187   -6.0793  -46.1852 H         1 UNK         0.0600 
    183 H183        2.3540   -6.7791  -47.2166 H         1 UNK         0.0600 
    184 H184        2.7894   -9.7606  -46.2559 H         1 UNK         0.3000 
    185 H185        5.7916   -9.7084  -46.1876 H         1 UNK         0.0600 
    186 H186        6.6480   -9.3301  -43.9055 H         1 UNK         0.0600 
    187 H187        5.4550  -10.4300  -43.2273 H         1 UNK         0.0600 
    188 H188        6.7316  -11.0434  -44.2765 H         1 UNK         0.0600 
    189 H189        4.8569  -11.6839  -46.5830 H         1 UNK         0.3000 
    190 H190       -1.5834  -21.8321  -48.3970 H         1 UNK         0.3000 
    191 H191       -2.3079  -23.4948  -50.5546 H         1 UNK         0.0600 
    192 H192       -4.0952  -22.3308  -48.3544 H         1 UNK         0.0600 
    193 H193       -4.6144  -22.9036  -49.9336 H         1 UNK         0.0600 
    194 H194       -3.5862  -21.4849  -49.8107 H         1 UNK         0.0600 
    195 H195       -2.6992  -24.0323  -46.9997 H         1 UNK         0.3000 
    196 H196       -3.9419  -26.5540  -47.1544 H         1 UNK         0.0600 
    197 H197       -3.2025  -26.7914  -44.7783 H         1 UNK         0.0600 
    198 H198       -3.8853  -25.2026  -45.0866 H         1 UNK         0.0600 
    199 H199       -2.1389  -25.4025  -44.9610 H         1 UNK         0.0600 
    200 H200       -0.4453  -25.7403  -47.0229 H         1 UNK         0.3000 
    201 H201        0.5414  -28.4092  -47.0399 H         1 UNK         0.0600 
    202 H202        1.9180  -26.4556  -46.3855 H         1 UNK         0.0600 
    203 H203        1.8371  -25.8114  -48.0231 H         1 UNK         0.0600 
    204 H204        2.6861  -27.3201  -47.7089 H         1 UNK         0.0600 
    205 H205       -0.3461  -26.2011  -49.7010 H         1 UNK         0.3000 
    206 H206        0.4666  -27.9831  -51.8347 H         1 UNK         0.0600 
    207 H207        0.3910  -25.5025  -52.0873 H         1 UNK         0.0600 
    208 H208       -0.6614  -26.2818  -53.2582 H         1 UNK         0.0600 
    209 H209       -1.3530  -25.5147  -51.8357 H         1 UNK         0.0600 
    210 H210       -2.2036  -28.0040  -49.7368 H         1 UNK         0.3000 
    211 H211       -4.1466  -29.0147  -49.5546 H         1 UNK         0.0600 
    212 H212       -3.3846  -30.7961  -51.9289 H         1 UNK         0.0600 
    213 H213       -4.6386  -31.1122  -50.7394 H         1 UNK         0.0600 
    214 H214       -2.9530  -31.1044  -50.2472 H         1 UNK         0.0600 
    215 H215       -4.0995  -26.5905  -50.7634 H         1 UNK         0.3000 
    216 H216       -6.2792  -26.6290  -52.8146 H         1 UNK         0.0600 
    217 H217       -5.2463  -24.5038  -53.6184 H         1 UNK         0.0600 
    218 H218       -4.0564  -25.7935  -53.6834 H         1 UNK         0.0600 
    219 H219       -3.9988  -24.6074  -52.3819 H         1 UNK         0.0600 
    220 H220       -7.5296  -24.5477  -52.7299 H         1 UNK         0.3000 
    221 H221       -8.3493  -23.7681  -50.0180 H         1 UNK         0.0600 
    222 H222       -9.2125  -22.7842  -52.8023 H         1 UNK         0.0600 
    223 H223      -10.0392  -24.0187  -51.8531 H         1 UNK         0.0600 
    224 H224       -9.9852  -22.3607  -51.2789 H         1 UNK         0.0600 
    225 H225       -8.1002  -21.6063  -49.2056 H         1 UNK         0.3000 
    226 H226       -5.6276  -20.3194  -49.7289 H         1 UNK         0.0600 
    227 H227       -6.7591  -20.2504  -47.5292 H         1 UNK         0.0600 
    228 H228       -6.4720  -18.6211  -48.1160 H         1 UNK         0.0600 
    229 H229       -8.0884  -19.3114  -48.2120 H         1 UNK         0.0600 
    230 H230       -8.7742  -19.8312  -51.1773 H         1 UNK         0.3000 
    231 H231       -8.2520  -17.2613  -52.3875 H         1 UNK         0.0600 
    232 H232      -10.2965  -17.8142  -53.7102 H         1 UNK         0.0600 
    233 H233      -10.5575  -18.0982  -51.9969 H         1 UNK         0.0600 
    234 H234      -10.2763  -19.4586  -53.0845 H         1 UNK         0.0600 
    235 H235       -7.4972  -20.6024  -53.2504 H         1 UNK         0.3000 
    236 H236       -6.6978  -19.9374  -56.0178 H         1 UNK         0.0600 
    237 H237       -7.8382  -22.1011  -55.6105 H         1 UNK         0.0600 
    238 H238       -6.1864  -22.3677  -56.1459 H         1 UNK         0.0600 
    239 H239       -6.6008  -22.5708  -54.4491 H         1 UNK         0.0600 
    240 H240       -5.2963  -20.9713  -52.8924 H         1 UNK         0.3000 
    241 H241       -3.3989  -20.6658  -51.9075 H         1 UNK         0.0600 
    242 H242       -3.5199  -22.6552  -54.2841 H         1 UNK         0.3800 
    243 H243       -1.8401  -23.0953  -54.4571 H         1 UNK         0.3800 
    244 H244       -2.2895  -18.6351  -53.8728 H         1 UNK         0.0800 
    245 H245       -3.7109  -18.2340  -52.9549 H         1 UNK         0.0800 
    246 H246        0.0344  -18.4749  -52.9613 H         1 UNK         0.0800 
    247 H247       -0.5875  -16.8482  -52.7860 H         1 UNK         0.0800 
@<TRIPOS>BOND
     1    1    2 1    
     2    1  127 1    
     3    1  128 1    
     4    1  129 1    
     5    2    3 2    
     6    2    4 am   BACKBONE|DICT|INTERRES
     7    4    5 1    
     8    4  130 1    
     9    5    6 1    
    10    5   65 1    
    11    5  131 1    
    12    6    7 1    
    13    6  132 1    
    14    6  133 1    
    15    7    8 1    
    16    8    9 1    
    17    8  134 1    
    18    8  135 1    
    19    9   10 ar   
    20    9   14 ar   
    21   10   11 ar   
    22   10  136 1    
    23   11   12 ar   
    24   11  126 1    
    25   12   13 ar   
    26   12  137 1    
    27   13   14 ar   
    28   13   15 1    
    29   14  138 1    
    30   15   16 1    
    31   15  139 1    
    32   15  140 1    
    33   16   17 1    
    34   17   18 1    
    35   17  141 1    
    36   17  142 1    
    37   18   19 1    
    38   18   67 1    
    39   18  143 1    
    40   19   20 am   BACKBONE|DICT|INTERRES
    41   19  144 1    
    42   20   21 2    
    43   20   22 1    
    44   22   23 1    
    45   22   24 1    
    46   22  145 1    
    47   23  146 1    
    48   23  147 1    
    49   23  148 1    
    50   24   25 am   BACKBONE|DICT|INTERRES
    51   24  149 1    
    52   25   26 2    
    53   25   27 1    
    54   27   28 1    
    55   27   29 1    
    56   27  150 1    
    57   28  151 1    
    58   28  152 1    
    59   28  153 1    
    60   29   30 am   BACKBONE|DICT|INTERRES
    61   29  154 1    
    62   30   31 2    
    63   30   32 1    
    64   32   33 1    
    65   32   34 1    
    66   32  155 1    
    67   33  156 1    
    68   33  157 1    
    69   33  158 1    
    70   34   35 am   BACKBONE|DICT|INTERRES
    71   34  159 1    
    72   35   36 2    
    73   35   37 1    
    74   37   38 1    
    75   37   39 1    
    76   37  160 1    
    77   38  161 1    
    78   38  162 1    
    79   38  163 1    
    80   39   40 am   BACKBONE|DICT|INTERRES
    81   39  164 1    
    82   40   41 2    
    83   40   42 1    
    84   42   43 1    
    85   42   44 1    
    86   42  165 1    
    87   43  166 1    
    88   43  167 1    
    89   43  168 1    
    90   44   45 am   BACKBONE|DICT|INTERRES
    91   44  169 1    
    92   45   46 2    
    93   45   47 1    
    94   47   48 1    
    95   47   49 1    
    96   47  170 1    
    97   48  171 1    
    98   48  172 1    
    99   48  173 1    
   100   49   50 am   BACKBONE|DICT|INTERRES
   101   49  174 1    
   102   50   51 2    
   103   50   52 1    
   104   52   53 1    
   105   52   54 1    
   106   52  175 1    
   107   53  176 1    
   108   53  177 1    
   109   53  178 1    
   110   54   55 am   BACKBONE|DICT|INTERRES
   111   54  179 1    
   112   55   56 2    
   113   55   57 1    
   114   57   58 1    
   115   57   59 1    
   116   57  180 1    
   117   58  181 1    
   118   58  182 1    
   119   58  183 1    
   120   59   60 am   BACKBONE|DICT|INTERRES
   121   59  184 1    
   122   60   61 2    
   123   60   62 1    
   124   62   63 1    
   125   62   64 1    
   126   62  185 1    
   127   63  186 1    
   128   63  187 1    
   129   63  188 1    
   130   64   65 am   BACKBONE|DICT|INTERRES
   131   64  189 1    
   132   65   66 2    
   133   67   68 2    
   134   67   69 am   BACKBONE|DICT|INTERRES
   135   69   70 1    
   136   69  190 1    
   137   70   71 1    
   138   70   72 1    
   139   70  191 1    
   140   71  192 1    
   141   71  193 1    
   142   71  194 1    
   143   72   73 2    
   144   72   74 am   BACKBONE|DICT|INTERRES
   145   74   75 1    
   146   74  195 1    
   147   75   76 1    
   148   75   77 1    
   149   75  196 1    
   150   76  197 1    
   151   76  198 1    
   152   76  199 1    
   153   77   78 2    
   154   77   79 am   BACKBONE|DICT|INTERRES
   155   79   80 1    
   156   79  200 1    
   157   80   81 1    
   158   80   82 1    
   159   80  201 1    
   160   81  202 1    
   161   81  203 1    
   162   81  204 1    
   163   82   83 2    
   164   82   84 am   BACKBONE|DICT|INTERRES
   165   84   85 1    
   166   84  205 1    
   167   85   86 1    
   168   85   87 1    
   169   85  206 1    
   170   86  207 1    
   171   86  208 1    
   172   86  209 1    
   173   87   88 2    
   174   87   89 am   BACKBONE|DICT|INTERRES
   175   89   90 1    
   176   89  210 1    
   177   90   91 1    
   178   90   92 1    
   179   90  211 1    
   180   91  212 1    
   181   91  213 1    
   182   91  214 1    
   183   92   93 2    
   184   92   94 am   BACKBONE|DICT|INTERRES
   185   94   95 1    
   186   94  215 1    
   187   95   96 1    
   188   95   97 1    
   189   95  216 1    
   190   96  217 1    
   191   96  218 1    
   192   96  219 1    
   193   97   98 2    
   194   97   99 am   BACKBONE|DICT|INTERRES
   195   99  100 1    
   196   99  220 1    
   197  100  101 1    
   198  100  102 1    
   199  100  221 1    
   200  101  222 1    
   201  101  223 1    
   202  101  224 1    
   203  102  103 2    
   204  102  104 am   BACKBONE|DICT|INTERRES
   205  104  105 1    
   206  104  225 1    
   207  105  106 1    
   208  105  107 1    
   209  105  226 1    
   210  106  227 1    
   211  106  228 1    
   212  106  229 1    
   213  107  108 2    
   214  107  109 am   BACKBONE|DICT|INTERRES
   215  109  110 1    
   216  109  230 1    
   217  110  111 1    
   218  110  112 1    
   219  110  231 1    
   220  111  232 1    
   221  111  233 1    
   222  111  234 1    
   223  112  113 2    
   224  112  114 am   BACKBONE|DICT|INTERRES
   225  114  115 1    
   226  114  235 1    
   227  115  116 1    
   228  115  117 1    
   229  115  236 1    
   230  116  237 1    
   231  116  238 1    
   232  116  239 1    
   233  117  118 2    
   234  117  119 am   BACKBONE|DICT|INTERRES
   235  119  120 1    
   236  119  240 1    
   237  120  121 1    
   238  120  124 1    
   239  120  241 1    
   240  121  122 am   BACKBONE|DICT|INTERRES
   241  121  123 2    
   242  122  242 1    
   243  122  243 1    
   244  124  125 1    
   245  124  244 1    
   246  124  245 1    
   247  125  126 1    
   248  126  246 1    
   249  126  247 1    
@<TRIPOS>SUBSTRUCTURE
     1 UNK         1 GROUP             0       ****    0 ROOT    
