@<TRIPOS>MOLECULE
3R540
247   249    1
SMALL
USER_CHARGES


@<TRIPOS>ATOM
      1 CA          8.4566  -13.4269  -47.8889 C.3       0 UNK        -0.1800 
      2 C           7.4456  -13.4244  -49.0277 C.2       0 UNK         0.5000 
      3 O           7.5748  -12.6163  -49.9474 O.2       0 UNK        -0.5000 
      4 N           6.4604  -14.3312  -48.9582 N.am      1 UNK        -0.5000 
      5 CA          5.3364  -14.5289  -49.8873 C.3       1 UNK         0.1400 
      6 C6          5.7533  -14.7368  -51.3712 C.3       23 UNK        -0.0398 
      7 S7          6.7577  -16.2448  -51.5982 S.3       23 UNK        -0.2404 
      8 C8          5.5377  -17.4015  -52.3038 C.3       23 UNK        -0.0205 
      9 C9          4.3706  -17.6472  -51.3584 C.ar      23 UNK        -0.0193 
     10 C10         3.1260  -17.0601  -51.6042 C.ar      23 UNK        -0.1150 
     11 C11         2.0595  -17.2632  -50.7243 C.ar      23 UNK        -0.0193 
     12 C12         2.2432  -18.0617  -49.5928 C.ar      23 UNK        -0.1150 
     13 C13         3.4761  -18.6740  -49.3487 C.ar      23 UNK        -0.0193 
     14 C14         4.5364  -18.4599  -50.2341 C.ar      23 UNK        -0.1150 
     15 C15         3.6701  -19.5732  -48.1377 C.3       23 UNK        -0.0205 
     16 S16         3.1711  -21.2854  -48.4951 S.3       23 UNK        -0.2404 
     17 C17         1.3496  -21.2047  -48.3677 C.3       23 UNK        -0.0398 
     18 CA          0.7816  -22.4875  -47.7205 C.3       11 UNK         0.1400 
     19 N           1.2676  -22.6753  -46.3509 N.am      11 UNK        -0.5000 
     20 C           1.2651  -23.8413  -45.6945 C.2       10 UNK         0.5000 
     21 O           0.8432  -24.8937  -46.1723 O.2       10 UNK        -0.5000 
     22 CA          1.7869  -23.8095  -44.2467 C.3       10 UNK         0.1400 
     23 CB          3.3224  -23.8393  -44.2228 C.3       10 UNK        -0.1800 
     24 N           1.3101  -22.6376  -43.5087 N.am      10 UNK        -0.5000 
     25 C           0.0300  -22.4406  -43.1649 C.2       9 UNK         0.5000 
     26 O          -0.8703  -23.2434  -43.4092 O.2       9 UNK        -0.5000 
     27 CA         -0.3107  -21.1109  -42.4666 C.3       9 UNK         0.1400 
     28 CB         -0.0995  -21.2246  -40.9500 C.3       9 UNK        -0.1800 
     29 N           0.4310  -19.9517  -42.9686 N.am      9 UNK        -0.5000 
     30 C           0.4273  -19.5043  -44.2309 C.2       8 UNK         0.5000 
     31 O          -0.0855  -20.1212  -45.1644 O.2       8 UNK        -0.5000 
     32 CA          1.0998  -18.1389  -44.4889 C.3       8 UNK         0.1400 
     33 CB          0.8158  -17.6115  -45.9074 C.3       8 UNK        -0.1800 
     34 N           0.6674  -17.1203  -43.5339 N.am      8 UNK        -0.5000 
     35 C           1.0980  -16.9698  -42.2753 C.2       7 UNK         0.5000 
     36 O           1.9309  -17.7084  -41.7489 O.2       7 UNK        -0.5000 
     37 CA          0.4561  -15.8366  -41.4616 C.3       7 UNK         0.1400 
     38 CB          1.0527  -14.4797  -41.8608 C.3       7 UNK        -0.1800 
     39 N          -0.9900  -15.8079  -41.6755 N.am      7 UNK        -0.5000 
     40 C          -1.8933  -16.3458  -40.8455 C.2       6 UNK         0.5000 
     41 O          -1.6076  -16.8757  -39.7710 O.2       6 UNK        -0.5000 
     42 CA         -3.3698  -16.2856  -41.2855 C.3       6 UNK         0.1400 
     43 CB         -4.0358  -15.0056  -40.7578 C.3       6 UNK        -0.1800 
     44 N          -3.5445  -16.3492  -42.7370 N.am      6 UNK        -0.5000 
     45 C          -3.2857  -17.4272  -43.4897 C.2       5 UNK         0.5000 
     46 O          -2.9227  -18.5092  -43.0292 O.2       5 UNK        -0.5000 
     47 CA         -3.4533  -17.2713  -45.0145 C.3       5 UNK         0.1400 
     48 CB         -4.8471  -17.7580  -45.4389 C.3       5 UNK        -0.1800 
     49 N          -3.2586  -15.9154  -45.5442 N.am      5 UNK        -0.5000 
     50 C          -2.1776  -15.1417  -45.3804 C.2       4 UNK         0.5000 
     51 O          -1.2585  -15.4082  -44.6036 O.2       4 UNK        -0.5000 
     52 CA         -2.1329  -13.8638  -46.2365 C.3       4 UNK         0.1400 
     53 CB         -2.9927  -12.7382  -45.6275 C.3       4 UNK        -0.1800 
     54 N          -0.7547  -13.4418  -46.5144 N.am      4 UNK        -0.5000 
     55 C           0.1234  -12.8261  -45.7069 C.2       3 UNK         0.5000 
     56 O          -0.1534  -12.3687  -44.5978 O.2       3 UNK        -0.5000 
     57 CA          1.5761  -12.7050  -46.2164 C.3       3 UNK         0.1400 
     58 CB          2.5307  -13.5282  -45.3352 C.3       3 UNK        -0.1800 
     59 N           1.7574  -13.1240  -47.6097 N.am      3 UNK        -0.5000 
     60 C           1.4567  -12.3777  -48.6814 C.2       2 UNK         0.5000 
     61 O           0.9381  -11.2627  -48.6073 O.2       2 UNK        -0.5000 
     62 CA          1.7898  -12.9948  -50.0590 C.3       2 UNK         0.1400 
     63 CB          1.8509  -11.9472  -51.1900 C.3       2 UNK        -0.1800 
     64 N           3.0041  -13.8255  -50.0590 N.am      2 UNK        -0.5000 
     65 C           4.2528  -13.4356  -49.7543 C.2       1 UNK         0.5000 
     66 O           4.5431  -12.2948  -49.3884 O.2       1 UNK        -0.5000 
     67 C          -0.7588  -22.5322  -47.7818 C.2       11 UNK         0.5000 
     68 O          -1.3110  -23.0107  -48.7731 O.2       11 UNK        -0.5000 
     69 N          -1.4233  -22.0888  -46.7063 N.am      12 UNK        -0.5000 
     70 CA         -2.8617  -22.2243  -46.4954 C.3       12 UNK         0.1400 
     71 CB         -3.2904  -21.3804  -45.2863 C.3       12 UNK        -0.1800 
     72 C          -3.2851  -23.6913  -46.3245 C.2       12 UNK         0.5000 
     73 O          -4.2425  -24.1183  -46.9688 O.2       12 UNK        -0.5000 
     74 N          -2.5388  -24.4476  -45.5056 N.am      13 UNK        -0.5000 
     75 CA         -2.7307  -25.8848  -45.2930 C.3       13 UNK         0.1400 
     76 CB         -1.8321  -26.3597  -44.1413 C.3       13 UNK        -0.1800 
     77 C          -2.4774  -26.7179  -46.5639 C.2       13 UNK         0.5000 
     78 O          -3.2121  -27.6718  -46.8222 O.2       13 UNK        -0.5000 
     79 N          -1.4688  -26.3204  -47.3518 N.am      14 UNK        -0.5000 
     80 CA         -1.1549  -26.8956  -48.6620 C.3       14 UNK         0.1400 
     81 CB          0.2670  -26.4723  -49.0618 C.3       14 UNK        -0.1800 
     82 C          -2.1557  -26.4981  -49.7676 C.2       14 UNK         0.5000 
     83 O          -2.1682  -27.1423  -50.8171 O.2       14 UNK        -0.5000 
     84 N          -2.9538  -25.4473  -49.5213 N.am      15 UNK        -0.5000 
     85 CA         -3.9107  -24.8104  -50.4298 C.3       15 UNK         0.1400 
     86 CB         -5.0890  -25.7567  -50.7365 C.3       15 UNK        -0.1800 
     87 C          -3.2178  -24.2605  -51.6930 C.2       15 UNK         0.5000 
     88 O          -3.6341  -24.5565  -52.8147 O.2       15 UNK        -0.5000 
     89 N          -2.1532  -23.4729  -51.4794 N.am      16 UNK        -0.5000 
     90 CA         -1.2499  -22.9474  -52.5108 C.3       16 UNK         0.1400 
     91 CB         -0.1126  -22.1737  -51.8286 C.3       16 UNK        -0.1800 
     92 C          -1.9179  -22.0745  -53.5938 C.2       16 UNK         0.5000 
     93 O          -1.4043  -22.0101  -54.7113 O.2       16 UNK        -0.5000 
     94 N          -3.0515  -21.4470  -53.2577 N.am      17 UNK        -0.5000 
     95 CA         -3.9081  -20.7026  -54.1834 C.3       17 UNK         0.1400 
     96 CB         -3.8325  -19.2001  -53.8607 C.3       17 UNK        -0.1800 
     97 C          -5.3482  -21.2474  -54.1333 C.2       17 UNK         0.5000 
     98 O          -6.3019  -20.4793  -54.2698 O.2       17 UNK        -0.5000 
     99 N          -5.4843  -22.5636  -53.9110 N.am      18 UNK        -0.5000 
    100 CA        -6.7375  -23.3029  -53.7482 C.3       18 UNK         0.1400 
    101 CB        -7.5093  -23.3662  -55.0864 C.3       18 UNK        -0.1800 
    102 C         -7.5580  -22.7595  -52.5587 C.2       18 UNK         0.5000 
    103 O         -6.9927  -22.5559  -51.4812 O.2       18 UNK        -0.5000 
    104 N         -8.8573  -22.5121  -52.7719 N.am      19 UNK        -0.5000 
    105 CA        -9.8164  -22.0245  -51.7766 C.3       19 UNK         0.1400 
    106 CB       -11.2211  -22.0359  -52.3995 C.3       19 UNK        -0.1800 
    107 C         -9.4974  -20.6319  -51.1942 C.2       19 UNK         0.5000 
    108 O         -9.9962  -20.3086  -50.1155 O.2       19 UNK        -0.5000 
    109 N         -8.6692  -19.8390  -51.8910 N.am      20 UNK        -0.5000 
    110 CA        -8.1748  -18.5465  -51.4108 C.3       20 UNK         0.1400 
    111 CB        -7.6375  -17.7335  -52.5987 C.3       20 UNK        -0.1800 
    112 C         -7.0957  -18.6807  -50.3172 C.2       20 UNK         0.5000 
    113 O         -6.8122  -17.6939  -49.6355 O.2       20 UNK        -0.5000 
    114 N         -6.4922  -19.8761  -50.1836 N.am      21 UNK        -0.5000 
    115 CA        -5.5071  -20.2696  -49.1644 C.3       21 UNK         0.1400 
    116 CB        -6.1926  -20.3504  -47.7863 C.3       21 UNK        -0.1800 
    117 C         -4.2267  -19.4024  -49.1405 C.2       21 UNK         0.5000 
    118 O         -3.5193  -19.3658  -48.1352 O.2       21 UNK        -0.5000 
    119 N         -3.9583  -18.7140  -50.2549 N.am      22 UNK        -0.5000 
    120 CA        -2.9056  -17.7033  -50.4210 C.3       22 UNK         0.1400 
    121 C         -3.1259  -16.3989  -49.5914 C.2       22 UNK         0.5000 
    122 N         -4.3460  -16.0956  -49.1585 N.am      22 UNK        -0.7600 
    123 O         -2.1957  -15.6304  -49.3650 O.2       22 UNK        -0.5000 
    124 C124       -1.4714  -18.3028  -50.3113 C.3       23 UNK        -0.0398 
    125 S125       -0.4402  -17.8275  -51.7410 S.3       23 UNK        -0.2404 
    126 C126        0.7088  -16.6267  -51.0046 C.3       23 UNK        -0.0205 
    127 H127        9.4583  -13.6115  -48.2770 H         1 UNK         0.0600 
    128 H128        8.2333  -14.1945  -47.1474 H         1 UNK         0.0600 
    129 H129        8.4574  -12.4597  -47.3863 H         1 UNK         0.0600 
    130 H130        6.4432  -14.9440  -48.1556 H         1 UNK         0.3000 
    131 H131        4.8667  -15.4532  -49.5474 H         1 UNK         0.0600 
    132 H132        4.8775  -14.8022  -52.0179 H         1 UNK         0.0800 
    133 H133        6.3177  -13.8840  -51.7478 H         1 UNK         0.0800 
    134 H134        5.1864  -17.0168  -53.2625 H         1 UNK         0.0800 
    135 H135        6.0327  -18.3494  -52.5198 H         1 UNK         0.0800 
    136 H136        2.9867  -16.4460  -52.4831 H         1 UNK         0.1150 
    137 H137        1.4160  -18.2238  -48.9194 H         1 UNK         0.1150 
    138 H138        5.4951  -18.9240  -50.0484 H         1 UNK         0.1150 
    139 H139        4.7222  -19.5758  -47.8486 H         1 UNK         0.0800 
    140 H140        3.1295  -19.1905  -47.2737 H         1 UNK         0.0800 
    141 H141        0.9510  -21.0598  -49.3718 H         1 UNK         0.0800 
    142 H142        1.0501  -20.3313  -47.7893 H         1 UNK         0.0800 
    143 H143        1.1367  -23.3319  -48.3146 H         1 UNK         0.0600 
    144 H144        1.5818  -21.8465  -45.8689 H         1 UNK         0.3000 
    145 H145        1.4203  -24.7052  -43.7406 H         1 UNK         0.0600 
    146 H146        3.6996  -23.8910  -43.2013 H         1 UNK         0.0600 
    147 H147        3.7522  -22.9553  -44.6957 H         1 UNK         0.0600 
    148 H148        3.7031  -24.7130  -44.7535 H         1 UNK         0.0600 
    149 H149        1.9893  -21.9291  -43.2734 H         1 UNK         0.3000 
    150 H150       -1.3693  -20.9126  -42.6429 H         1 UNK         0.0600 
    151 H151       -0.6586  -22.0663  -40.5390 H         1 UNK         0.0600 
    152 H152       -0.4433  -20.3259  -40.4370 H         1 UNK         0.0600 
    153 H153        0.9516  -21.3731  -40.6998 H         1 UNK         0.0600 
    154 H154        0.9027  -19.3782  -42.2781 H         1 UNK         0.3000 
    155 H155        2.1774  -18.2828  -44.3896 H         1 UNK         0.0600 
    156 H156        1.1609  -18.3132  -46.6606 H         1 UNK         0.0600 
    157 H157        1.3196  -16.6633  -46.0912 H         1 UNK         0.0600 
    158 H158       -0.2511  -17.4640  -46.0760 H         1 UNK         0.0600 
    159 H159       -0.0432  -16.4776  -43.8798 H         1 UNK         0.3000 
    160 H160        0.6837  -16.0067  -40.4072 H         1 UNK         0.0600 
    161 H161        0.8381  -14.2417  -42.9023 H         1 UNK         0.0600 
    162 H162        2.1362  -14.4738  -41.7362 H         1 UNK         0.0600 
    163 H163        0.6479  -13.6757  -41.2461 H         1 UNK         0.0600 
    164 H164       -1.3043  -15.4453  -42.5690 H         1 UNK         0.3000 
    165 H165       -3.8814  -17.1438  -40.8446 H         1 UNK         0.0600 
    166 H166       -5.0995  -14.9871  -40.9955 H         1 UNK         0.0600 
    167 H167       -3.9451  -14.9372  -39.6729 H         1 UNK         0.0600 
    168 H168       -3.5800  -14.1102  -41.1825 H         1 UNK         0.0600 
    169 H169       -3.8383  -15.5023  -43.2004 H         1 UNK         0.3000 
    170 H170       -2.7065  -17.9105  -45.4899 H         1 UNK         0.0600 
    171 H171       -5.6374  -17.1528  -44.9934 H         1 UNK         0.0600 
    172 H172       -4.9657  -17.7166  -46.5214 H         1 UNK         0.0600 
    173 H173       -5.0129  -18.7917  -45.1340 H         1 UNK         0.0600 
    174 H174       -3.9721  -15.6032  -46.1853 H         1 UNK         0.3000 
    175 H175       -2.5581  -14.1082  -47.2100 H         1 UNK         0.0600 
    176 H176       -2.7243  -12.5304  -44.5914 H         1 UNK         0.0600 
    177 H177       -2.8931  -11.8128  -46.1947 H         1 UNK         0.0600 
    178 H178       -4.0485  -13.0107  -45.6346 H         1 UNK         0.0600 
    179 H179       -0.3884  -13.7767  -47.3932 H         1 UNK         0.3000 
    180 H180        1.8622  -11.6544  -46.1315 H         1 UNK         0.0600 
    181 H181        3.5594  -13.4549  -45.6888 H         1 UNK         0.0600 
    182 H182        2.2544  -14.5827  -45.3146 H         1 UNK         0.0600 
    183 H183        2.5197  -13.1663  -44.3067 H         1 UNK         0.0600 
    184 H184        2.1860  -14.0256  -47.7568 H         1 UNK         0.3000 
    185 H185        0.9604  -13.6654  -50.2865 H         1 UNK         0.0600 
    186 H186        2.0610  -12.4169  -52.1510 H         1 UNK         0.0600 
    187 H187        0.9008  -11.4211  -51.2896 H         1 UNK         0.0600 
    188 H188        2.6216  -11.1979  -51.0071 H         1 UNK         0.0600 
    189 H189        2.8635  -14.7888  -50.3290 H         1 UNK         0.3000 
    190 H190       -0.9006  -21.6104  -45.9774 H         1 UNK         0.3000 
    191 H191       -3.3662  -21.8421  -47.3827 H         1 UNK         0.0600 
    192 H192       -3.0420  -20.3306  -45.4377 H         1 UNK         0.0600 
    193 H193       -2.8035  -21.7074  -44.3695 H         1 UNK         0.0600 
    194 H194       -4.3656  -21.4445  -45.1197 H         1 UNK         0.0600 
    195 H195       -1.7995  -24.0058  -44.9667 H         1 UNK         0.3000 
    196 H196       -3.7704  -26.0409  -44.9979 H         1 UNK         0.0600 
    197 H197       -2.0669  -25.8329  -43.2162 H         1 UNK         0.0600 
    198 H198       -0.7765  -26.1964  -44.3594 H         1 UNK         0.0600 
    199 H199       -1.9684  -27.4252  -43.9524 H         1 UNK         0.0600 
    200 H200       -0.8554  -25.5823  -47.0212 H         1 UNK         0.3000 
    201 H201       -1.1754  -27.9837  -48.5738 H         1 UNK         0.0600 
    202 H202        0.9964  -26.7703  -48.3084 H         1 UNK         0.0600 
    203 H203        0.3400  -25.3928  -49.1933 H         1 UNK         0.0600 
    204 H204        0.5639  -26.9370  -50.0028 H         1 UNK         0.0600 
    205 H205       -2.8451  -24.9863  -48.6276 H         1 UNK         0.3000 
    206 H206       -4.3133  -23.9472  -49.8975 H         1 UNK         0.0600 
    207 H207       -4.7780  -26.6198  -51.3257 H         1 UNK         0.0600 
    208 H208       -5.5456  -26.1243  -49.8175 H         1 UNK         0.0600 
    209 H209       -5.8664  -25.2392  -51.2979 H         1 UNK         0.0600 
    210 H210       -1.8740  -23.3023  -50.5147 H         1 UNK         0.3000 
    211 H211       -0.8139  -23.8086  -53.0210 H         1 UNK         0.0600 
    212 H212       -0.4946  -21.3206  -51.2688 H         1 UNK         0.0600 
    213 H213        0.6005  -21.7924  -52.5606 H         1 UNK         0.0600 
    214 H214        0.4405  -22.8119  -51.1391 H         1 UNK         0.0600 
    215 H215       -3.4053  -21.5748  -52.3211 H         1 UNK         0.3000 
    216 H216       -3.5686  -20.8424  -55.2115 H         1 UNK         0.0600 
    217 H217       -4.3380  -18.6117  -54.6273 H         1 UNK         0.0600 
    218 H218       -2.7996  -18.8543  -53.8139 H         1 UNK         0.0600 
    219 H219       -4.3103  -18.9721  -52.9107 H         1 UNK         0.0600 
    220 H220       -4.6467  -23.1171  -53.7590 H         1 UNK         0.3000 
    221 H221       -6.4583  -24.3231  -53.4832 H         1 UNK         0.0600 
    222 H222       -7.8628  -22.3855  -55.4069 H         1 UNK         0.0600 
    223 H223       -6.8747  -23.7607  -55.8801 H         1 UNK         0.0600 
    224 H224       -8.3732  -24.0281  -55.0152 H         1 UNK         0.0600 
    225 H225       -9.2264  -22.6840  -53.6958 H         1 UNK         0.3000 
    226 H226       -9.8076  -22.7285  -50.9420 H         1 UNK         0.0600 
    227 H227      -11.5004  -23.0374  -52.7274 H         1 UNK         0.0600 
    228 H228      -11.9727  -21.7117  -51.6783 H         1 UNK         0.0600 
    229 H229      -11.2837  -21.3694  -53.2606 H         1 UNK         0.0600 
    230 H230       -8.2889  -20.1760  -52.7659 H         1 UNK         0.3000 
    231 H231       -9.0116  -17.9949  -50.9773 H         1 UNK         0.0600 
    232 H232       -7.3410  -16.7324  -52.2830 H         1 UNK         0.0600 
    233 H233       -8.3949  -17.6175  -53.3740 H         1 UNK         0.0600 
    234 H234       -6.7642  -18.2033  -53.0499 H         1 UNK         0.0600 
    235 H235       -6.7942  -20.6304  -50.7921 H         1 UNK         0.3000 
    236 H236       -5.1802  -21.2761  -49.4293 H         1 UNK         0.0600 
    237 H237       -6.5412  -19.3741  -47.4497 H         1 UNK         0.0600 
    238 H238       -7.0527  -21.0193  -47.8160 H         1 UNK         0.0600 
    239 H239       -5.5148  -20.7343  -47.0268 H         1 UNK         0.0600 
    240 H240       -4.6198  -18.7865  -51.0121 H         1 UNK         0.3000 
    241 H241       -3.0514  -17.3652  -51.4471 H         1 UNK         0.0600 
    242 H242       -5.1364  -16.7071  -49.3405 H         1 UNK         0.3800 
    243 H243       -4.4983  -15.2212  -48.6867 H         1 UNK         0.3800 
    244 H244       -0.9904  -18.0399  -49.3680 H         1 UNK         0.0800 
    245 H245       -1.5117  -19.3921  -50.3117 H         1 UNK         0.0800 
    246 H246        0.2961  -16.2030  -50.0887 H         1 UNK         0.0800 
    247 H247        0.8210  -15.7930  -51.6992 H         1 UNK         0.0800 
@<TRIPOS>BOND
     1    1    2 1    
     2    1  127 1    
     3    1  128 1    
     4    1  129 1    
     5    2    3 2    
     6    2    4 am   BACKBONE|DICT|INTERRES
     7    4    5 1    
     8    4  130 1    
     9    5    6 1    
    10    5   65 1    
    11    5  131 1    
    12    6    7 1    
    13    6  132 1    
    14    6  133 1    
    15    7    8 1    
    16    8    9 1    
    17    8  134 1    
    18    8  135 1    
    19    9   10 ar   
    20    9   14 ar   
    21   10   11 ar   
    22   10  136 1    
    23   11   12 ar   
    24   11  126 1    
    25   12   13 ar   
    26   12  137 1    
    27   13   14 ar   
    28   13   15 1    
    29   14  138 1    
    30   15   16 1    
    31   15  139 1    
    32   15  140 1    
    33   16   17 1    
    34   17   18 1    
    35   17  141 1    
    36   17  142 1    
    37   18   19 1    
    38   18   67 1    
    39   18  143 1    
    40   19   20 am   BACKBONE|DICT|INTERRES
    41   19  144 1    
    42   20   21 2    
    43   20   22 1    
    44   22   23 1    
    45   22   24 1    
    46   22  145 1    
    47   23  146 1    
    48   23  147 1    
    49   23  148 1    
    50   24   25 am   BACKBONE|DICT|INTERRES
    51   24  149 1    
    52   25   26 2    
    53   25   27 1    
    54   27   28 1    
    55   27   29 1    
    56   27  150 1    
    57   28  151 1    
    58   28  152 1    
    59   28  153 1    
    60   29   30 am   BACKBONE|DICT|INTERRES
    61   29  154 1    
    62   30   31 2    
    63   30   32 1    
    64   32   33 1    
    65   32   34 1    
    66   32  155 1    
    67   33  156 1    
    68   33  157 1    
    69   33  158 1    
    70   34   35 am   BACKBONE|DICT|INTERRES
    71   34  159 1    
    72   35   36 2    
    73   35   37 1    
    74   37   38 1    
    75   37   39 1    
    76   37  160 1    
    77   38  161 1    
    78   38  162 1    
    79   38  163 1    
    80   39   40 am   BACKBONE|DICT|INTERRES
    81   39  164 1    
    82   40   41 2    
    83   40   42 1    
    84   42   43 1    
    85   42   44 1    
    86   42  165 1    
    87   43  166 1    
    88   43  167 1    
    89   43  168 1    
    90   44   45 am   BACKBONE|DICT|INTERRES
    91   44  169 1    
    92   45   46 2    
    93   45   47 1    
    94   47   48 1    
    95   47   49 1    
    96   47  170 1    
    97   48  171 1    
    98   48  172 1    
    99   48  173 1    
   100   49   50 am   BACKBONE|DICT|INTERRES
   101   49  174 1    
   102   50   51 2    
   103   50   52 1    
   104   52   53 1    
   105   52   54 1    
   106   52  175 1    
   107   53  176 1    
   108   53  177 1    
   109   53  178 1    
   110   54   55 am   BACKBONE|DICT|INTERRES
   111   54  179 1    
   112   55   56 2    
   113   55   57 1    
   114   57   58 1    
   115   57   59 1    
   116   57  180 1    
   117   58  181 1    
   118   58  182 1    
   119   58  183 1    
   120   59   60 am   BACKBONE|DICT|INTERRES
   121   59  184 1    
   122   60   61 2    
   123   60   62 1    
   124   62   63 1    
   125   62   64 1    
   126   62  185 1    
   127   63  186 1    
   128   63  187 1    
   129   63  188 1    
   130   64   65 am   BACKBONE|DICT|INTERRES
   131   64  189 1    
   132   65   66 2    
   133   67   68 2    
   134   67   69 am   BACKBONE|DICT|INTERRES
   135   69   70 1    
   136   69  190 1    
   137   70   71 1    
   138   70   72 1    
   139   70  191 1    
   140   71  192 1    
   141   71  193 1    
   142   71  194 1    
   143   72   73 2    
   144   72   74 am   BACKBONE|DICT|INTERRES
   145   74   75 1    
   146   74  195 1    
   147   75   76 1    
   148   75   77 1    
   149   75  196 1    
   150   76  197 1    
   151   76  198 1    
   152   76  199 1    
   153   77   78 2    
   154   77   79 am   BACKBONE|DICT|INTERRES
   155   79   80 1    
   156   79  200 1    
   157   80   81 1    
   158   80   82 1    
   159   80  201 1    
   160   81  202 1    
   161   81  203 1    
   162   81  204 1    
   163   82   83 2    
   164   82   84 am   BACKBONE|DICT|INTERRES
   165   84   85 1    
   166   84  205 1    
   167   85   86 1    
   168   85   87 1    
   169   85  206 1    
   170   86  207 1    
   171   86  208 1    
   172   86  209 1    
   173   87   88 2    
   174   87   89 am   BACKBONE|DICT|INTERRES
   175   89   90 1    
   176   89  210 1    
   177   90   91 1    
   178   90   92 1    
   179   90  211 1    
   180   91  212 1    
   181   91  213 1    
   182   91  214 1    
   183   92   93 2    
   184   92   94 am   BACKBONE|DICT|INTERRES
   185   94   95 1    
   186   94  215 1    
   187   95   96 1    
   188   95   97 1    
   189   95  216 1    
   190   96  217 1    
   191   96  218 1    
   192   96  219 1    
   193   97   98 2    
   194   97   99 am   BACKBONE|DICT|INTERRES
   195   99  100 1    
   196   99  220 1    
   197  100  101 1    
   198  100  102 1    
   199  100  221 1    
   200  101  222 1    
   201  101  223 1    
   202  101  224 1    
   203  102  103 2    
   204  102  104 am   BACKBONE|DICT|INTERRES
   205  104  105 1    
   206  104  225 1    
   207  105  106 1    
   208  105  107 1    
   209  105  226 1    
   210  106  227 1    
   211  106  228 1    
   212  106  229 1    
   213  107  108 2    
   214  107  109 am   BACKBONE|DICT|INTERRES
   215  109  110 1    
   216  109  230 1    
   217  110  111 1    
   218  110  112 1    
   219  110  231 1    
   220  111  232 1    
   221  111  233 1    
   222  111  234 1    
   223  112  113 2    
   224  112  114 am   BACKBONE|DICT|INTERRES
   225  114  115 1    
   226  114  235 1    
   227  115  116 1    
   228  115  117 1    
   229  115  236 1    
   230  116  237 1    
   231  116  238 1    
   232  116  239 1    
   233  117  118 2    
   234  117  119 am   BACKBONE|DICT|INTERRES
   235  119  120 1    
   236  119  240 1    
   237  120  121 1    
   238  120  124 1    
   239  120  241 1    
   240  121  122 am   BACKBONE|DICT|INTERRES
   241  121  123 2    
   242  122  242 1    
   243  122  243 1    
   244  124  125 1    
   245  124  244 1    
   246  124  245 1    
   247  125  126 1    
   248  126  246 1    
   249  126  247 1    
@<TRIPOS>SUBSTRUCTURE
     1 UNK         1 GROUP             0       ****    0 ROOT    
