@<TRIPOS>MOLECULE
3R540
247   249    1
SMALL
USER_CHARGES


@<TRIPOS>ATOM
      1 CA         -3.2131  -16.3112  -46.5658 C.3       0 UNK        -0.1800 
      2 C          -2.5882  -15.1975  -47.3967 C.2       0 UNK         0.5000 
      3 O          -3.2596  -14.6170  -48.2486 O.2       0 UNK        -0.5000 
      4 N          -1.3146  -14.8860  -47.1375 N.am      1 UNK        -0.5000 
      5 CA         -0.5593  -13.8149  -47.7891 C.3       1 UNK         0.1400 
      6 C6         -0.0274  -14.2140  -49.1968 C.3       23 UNK        -0.0398 
      7 S7          0.8745  -15.8023  -49.2537 S.3       23 UNK        -0.2404 
      8 C8          1.0824  -16.0356  -51.0487 C.3       23 UNK        -0.0205 
      9 C9          1.2994  -17.4913  -51.4597 C.ar      23 UNK        -0.0193 
     10 C10         0.6637  -17.9772  -52.6062 C.ar      23 UNK        -0.1150 
     11 C11         0.8730  -19.2890  -53.0386 C.ar      23 UNK        -0.0193 
     12 C12         1.7108  -20.1322  -52.3034 C.ar      23 UNK        -0.1150 
     13 C13         2.3594  -19.6639  -51.1579 C.ar      23 UNK        -0.0193 
     14 C14         2.1558  -18.3410  -50.7468 C.ar      23 UNK        -0.1150 
     15 C15         3.3330  -20.5616  -50.4048 C.3       23 UNK        -0.0205 
     16 S16         2.7656  -20.9646  -48.7237 S.3       23 UNK        -0.2404 
     17 C17         1.9016  -22.5690  -48.9410 C.3       23 UNK        -0.0398 
     18 CA          0.8944  -22.9175  -47.7992 C.3       11 UNK         0.1400 
     19 N           1.4415  -22.6828  -46.4608 N.am      11 UNK        -0.5000 
     20 C           2.3942  -23.4526  -45.9196 C.2       10 UNK         0.5000 
     21 O           2.7578  -24.5266  -46.4015 O.2       10 UNK        -0.5000 
     22 CA          3.0931  -22.9305  -44.6521 C.3       10 UNK         0.1400 
     23 CB          4.2493  -21.9941  -45.0333 C.3       10 UNK        -0.1800 
     24 N           2.1918  -22.2366  -43.7360 N.am      10 UNK        -0.5000 
     25 C           1.2916  -22.8517  -42.9591 C.2       9 UNK         0.5000 
     26 O           1.1329  -24.0721  -42.9333 O.2       9 UNK        -0.5000 
     27 CA          0.4342  -21.9598  -42.0428 C.3       9 UNK         0.1400 
     28 CB          1.1073  -21.7932  -40.6719 C.3       9 UNK        -0.1800 
     29 N           0.1760  -20.6372  -42.6074 N.am      9 UNK        -0.5000 
     30 C          -0.6309  -20.3903  -43.6465 C.2       8 UNK         0.5000 
     31 O          -1.2479  -21.2513  -44.2758 O.2       8 UNK        -0.5000 
     32 CA         -0.7134  -18.9243  -44.0954 C.3       8 UNK         0.1400 
     33 CB         -1.5157  -18.0802  -43.0971 C.3       8 UNK        -0.1800 
     34 N           0.6100  -18.3323  -44.2883 N.am      8 UNK        -0.5000 
     35 C           1.5254  -18.7770  -45.1642 C.2       7 UNK         0.5000 
     36 O           1.3342  -19.7215  -45.9290 O.2       7 UNK        -0.5000 
     37 CA          2.9011  -18.0864  -45.1558 C.3       7 UNK         0.1400 
     38 CB          2.8945  -16.8854  -46.1122 C.3       7 UNK        -0.1800 
     39 N           3.3220  -17.6450  -43.8252 N.am      7 UNK        -0.5000 
     40 C           3.4546  -18.4322  -42.7465 C.2       6 UNK         0.5000 
     41 O           3.2942  -19.6525  -42.7663 O.2       6 UNK        -0.5000 
     42 CA          3.7666  -17.7327  -41.4081 C.3       6 UNK         0.1400 
     43 CB          5.2708  -17.8019  -41.1061 C.3       6 UNK        -0.1800 
     44 N           3.3271  -16.3330  -41.3503 N.am      6 UNK        -0.5000 
     45 C           2.0573  -15.9209  -41.4691 C.2       5 UNK         0.5000 
     46 O           1.1082  -16.6859  -41.6544 O.2       5 UNK        -0.5000 
     47 CA          1.8367  -14.3998  -41.4433 C.3       5 UNK         0.1400 
     48 CB          2.2459  -13.7777  -42.7894 C.3       5 UNK        -0.1800 
     49 N           0.4367  -14.0740  -41.1746 N.am      5 UNK        -0.5000 
     50 C          -0.0909  -13.9649  -39.9468 C.2       4 UNK         0.5000 
     51 O           0.5659  -14.1142  -38.9150 O.2       4 UNK        -0.5000 
     52 CA         -1.5850  -13.5968  -39.8288 C.3       4 UNK         0.1400 
     53 CB         -1.7418  -12.1767  -39.2605 C.3       4 UNK        -0.1800 
     54 N          -2.2954  -13.6604  -41.1058 N.am      4 UNK        -0.5000 
     55 C          -2.9024  -14.7495  -41.5943 C.2       3 UNK         0.5000 
     56 O          -2.9880  -15.8163  -40.9865 O.2       3 UNK        -0.5000 
     57 CA         -3.5118  -14.6283  -43.0078 C.3       3 UNK         0.1400 
     58 CB         -5.0216  -14.3599  -42.9236 C.3       3 UNK        -0.1800 
     59 N          -2.8893  -13.5937  -43.8440 N.am      3 UNK        -0.5000 
     60 C          -1.6107  -13.6040  -44.2413 C.2       2 UNK         0.5000 
     61 O          -0.8131  -14.4894  -43.9299 O.2       2 UNK        -0.5000 
     62 CA         -1.1509  -12.4262  -45.1191 C.3       2 UNK         0.1400 
     63 CB         -1.0814  -11.1416  -44.2769 C.3       2 UNK        -0.1800 
     64 N           0.1818  -12.6697  -45.6793 N.am      2 UNK        -0.5000 
     65 C           0.5273  -13.2850  -46.8216 C.2       1 UNK         0.5000 
     66 O           1.7150  -13.4360  -47.1019 O.2       1 UNK        -0.5000 
     67 C          -0.4461  -22.1977  -48.0025 C.2       11 UNK         0.5000 
     68 O          -1.4305  -22.8254  -48.4000 O.2       11 UNK        -0.5000 
     69 N          -0.4460  -20.8804  -47.7820 N.am      12 UNK        -0.5000 
     70 CA         -1.4194  -19.9529  -48.3465 C.3       12 UNK         0.1400 
     71 CB         -0.9208  -18.5252  -48.1262 C.3       12 UNK        -0.1800 
     72 C          -2.8610  -20.1393  -47.8559 C.2       12 UNK         0.5000 
     73 O          -3.7819  -19.9413  -48.6494 O.2       12 UNK        -0.5000 
     74 N          -3.0214  -20.5471  -46.5917 N.am      13 UNK        -0.5000 
     75 CA         -4.3112  -20.8617  -45.9809 C.3       13 UNK         0.1400 
     76 CB         -4.4980  -20.0215  -44.7082 C.3       13 UNK        -0.1800 
     77 C          -4.4098  -22.3617  -45.6638 C.2       13 UNK         0.5000 
     78 O          -5.4631  -22.9529  -45.8955 O.2       13 UNK        -0.5000 
     79 N          -3.3136  -22.9596  -45.1727 N.am      14 UNK        -0.5000 
     80 CA         -3.2286  -24.3610  -44.7520 C.3       14 UNK         0.1400 
     81 CB         -1.8606  -24.6104  -44.1058 C.3       14 UNK        -0.1800 
     82 C          -3.4802  -25.3755  -45.8808 C.2       14 UNK         0.5000 
     83 O          -4.1898  -26.3579  -45.6622 O.2       14 UNK        -0.5000 
     84 N          -2.9206  -25.1052  -47.0667 N.am      15 UNK        -0.5000 
     85 CA         -3.1703  -25.8681  -48.2931 C.3       15 UNK         0.1400 
     86 CB         -1.8257  -26.1533  -48.9851 C.3       15 UNK        -0.1800 
     87 C          -4.1301  -25.1136  -49.2348 C.2       15 UNK         0.5000 
     88 O          -4.4022  -25.5994  -50.3330 O.2       15 UNK        -0.5000 
     89 N          -4.6002  -23.9328  -48.7989 N.am      16 UNK        -0.5000 
     90 CA         -5.4237  -22.9594  -49.5234 C.3       16 UNK         0.1400 
     91 CB         -6.8370  -23.5229  -49.7737 C.3       16 UNK        -0.1800 
     92 C          -4.7487  -22.4441  -50.8114 C.2       16 UNK         0.5000 
     93 O          -5.4392  -22.0898  -51.7684 O.2       16 UNK        -0.5000 
     94 N          -3.4069  -22.4208  -50.8235 N.am      17 UNK        -0.5000 
     95 CA         -2.5997  -22.1660  -52.0144 C.3       17 UNK         0.1400 
     96 CB         -1.1186  -22.4155  -51.6946 C.3       17 UNK        -0.1800 
     97 C          -2.8108  -20.7668  -52.6151 C.2       17 UNK         0.5000 
     98 O          -2.8300  -20.6415  -53.8390 O.2       17 UNK        -0.5000 
     99 N          -3.0024  -19.7513  -51.7606 N.am      18 UNK        -0.5000 
    100 CA        -3.2447  -18.3723  -52.1883 C.3       18 UNK         0.1400 
    101 CB        -2.9238  -17.4007  -51.0456 C.3       18 UNK        -0.1800 
    102 C         -4.6754  -18.1633  -52.7109 C.2       18 UNK         0.5000 
    103 O         -4.8652  -17.3768  -53.6379 O.2       18 UNK        -0.5000 
    104 N         -5.6466  -18.9040  -52.1566 N.am      19 UNK        -0.5000 
    105 CA        -7.0302  -18.9402  -52.6405 C.3       19 UNK         0.1400 
    106 CB        -7.9286  -19.6122  -51.5915 C.3       19 UNK        -0.1800 
    107 C         -7.1403  -19.6502  -54.0038 C.2       19 UNK         0.5000 
    108 O         -7.9179  -19.2223  -54.8569 O.2       19 UNK        -0.5000 
    109 N         -6.3140  -20.6866  -54.1991 N.am      20 UNK        -0.5000 
    110 CA        -6.1156  -21.3906  -55.4669 C.3       20 UNK         0.1400 
    111 CB        -5.5040  -22.7686  -55.1658 C.3       20 UNK        -0.1800 
    112 C         -5.2327  -20.6159  -56.4710 C.2       20 UNK         0.5000 
    113 O         -5.0677  -21.0788  -57.6008 O.2       20 UNK        -0.5000 
    114 N         -4.6534  -19.4820  -56.0443 N.am      21 UNK        -0.5000 
    115 CA        -3.7519  -18.5933  -56.7885 C.3       21 UNK         0.1400 
    116 CB        -4.5325  -17.8395  -57.8842 C.3       21 UNK        -0.1800 
    117 C         -2.4957  -19.3115  -57.3293 C.2       21 UNK         0.5000 
    118 O         -2.0321  -19.0051  -58.4291 O.2       21 UNK        -0.5000 
    119 N         -1.9929  -20.2773  -56.5489 N.am      22 UNK        -0.5000 
    120 CA        -0.9026  -21.2081  -56.8859 C.3       22 UNK         0.1400 
    121 C         -1.2549  -22.2243  -58.0200 C.2       22 UNK         0.5000 
    122 N         -2.5102  -22.3745  -58.4288 N.am      22 UNK        -0.7600 
    123 O         -0.3783  -22.9245  -58.5199 O.2       22 UNK        -0.5000 
    124 C124        0.4716  -20.5063  -57.1267 C.3       23 UNK        -0.0398 
    125 S125        1.2135  -19.4995  -55.7796 S.3       23 UNK        -0.2404 
    126 C126        0.1957  -19.7930  -54.3013 C.3       23 UNK        -0.0205 
    127 H127       -2.4984  -16.7462  -45.8671 H         1 UNK         0.0600 
    128 H128       -3.5844  -17.1044  -47.2146 H         1 UNK         0.0600 
    129 H129       -4.0536  -15.9215  -45.9917 H         1 UNK         0.0600 
    130 H130       -0.8084  -15.3793  -46.4141 H         1 UNK         0.3000 
    131 H131       -1.2318  -12.9715  -47.9546 H         1 UNK         0.0600 
    132 H132        0.6102  -13.4291  -49.6069 H         1 UNK         0.0800 
    133 H133       -0.8752  -14.2909  -49.8787 H         1 UNK         0.0800 
    134 H134        0.2018  -15.6388  -51.5560 H         1 UNK         0.0800 
    135 H135        1.9310  -15.4406  -51.3880 H         1 UNK         0.0800 
    136 H136        0.0168  -17.3274  -53.1785 H         1 UNK         0.1150 
    137 H137        1.8768  -21.1460  -52.6398 H         1 UNK         0.1150 
    138 H138        2.6716  -17.9733  -49.8710 H         1 UNK         0.1150 
    139 H139        3.5322  -21.4814  -50.9568 H         1 UNK         0.0800 
    140 H140        4.2898  -20.0436  -50.3286 H         1 UNK         0.0800 
    141 H141        2.6684  -23.3430  -48.9891 H         1 UNK         0.0800 
    142 H142        1.4109  -22.5875  -49.9158 H         1 UNK         0.0800 
    143 H143        0.6630  -23.9823  -47.8783 H         1 UNK         0.0600 
    144 H144        1.2184  -21.7939  -46.0263 H         1 UNK         0.3000 
    145 H145        3.5177  -23.7895  -44.1279 H         1 UNK         0.0600 
    146 H146        4.7820  -21.6401  -44.1505 H         1 UNK         0.0600 
    147 H147        4.9732  -22.5068  -45.6678 H         1 UNK         0.0600 
    148 H148        3.8927  -21.1242  -45.5842 H         1 UNK         0.0600 
    149 H149        2.3192  -21.2356  -43.6354 H         1 UNK         0.3000 
    150 H150       -0.5250  -22.4580  -41.8917 H         1 UNK         0.0600 
    151 H151        1.2912  -22.7625  -40.2068 H         1 UNK         0.0600 
    152 H152        0.4783  -21.2204  -39.9903 H         1 UNK         0.0600 
    153 H153        2.0669  -21.2810  -40.7544 H         1 UNK         0.0600 
    154 H154        0.6816  -19.8646  -42.1984 H         1 UNK         0.3000 
    155 H155       -1.2431  -18.8995  -45.0452 H         1 UNK         0.0600 
    156 H156       -2.5487  -18.4202  -43.0285 H         1 UNK         0.0600 
    157 H157       -1.5352  -17.0356  -43.4021 H         1 UNK         0.0600 
    158 H158       -1.0931  -18.1205  -42.0929 H         1 UNK         0.0600 
    159 H159        0.8621  -17.5850  -43.6520 H         1 UNK         0.3000 
    160 H160        3.6384  -18.8052  -45.5157 H         1 UNK         0.0600 
    161 H161        3.8789  -16.4217  -46.1751 H         1 UNK         0.0600 
    162 H162        2.1818  -16.1211  -45.7989 H         1 UNK         0.0600 
    163 H163        2.6191  -17.1960  -47.1211 H         1 UNK         0.0600 
    164 H164        3.4752  -16.6550  -43.7073 H         1 UNK         0.3000 
    165 H165        3.2347  -18.2795  -40.6268 H         1 UNK         0.0600 
    166 H166        5.4952  -17.3942  -40.1202 H         1 UNK         0.0600 
    167 H167        5.6242  -18.8340  -41.1168 H         1 UNK         0.0600 
    168 H168        5.8551  -17.2473  -41.8414 H         1 UNK         0.0600 
    169 H169        4.0527  -15.6440  -41.2122 H         1 UNK         0.3000 
    170 H170        2.4644  -13.9681  -40.6608 H         1 UNK         0.0600 
    171 H171        3.3207  -13.8664  -42.9504 H         1 UNK         0.0600 
    172 H172        1.7533  -14.2666  -43.6301 H         1 UNK         0.0600 
    173 H173        2.0014  -12.7160  -42.8260 H         1 UNK         0.0600 
    174 H174       -0.1774  -14.0696  -41.9799 H         1 UNK         0.3000 
    175 H175       -2.0386  -14.2955  -39.1227 H         1 UNK         0.0600 
    176 H176       -1.2944  -11.4286  -39.9163 H         1 UNK         0.0600 
    177 H177       -2.7927  -11.9199  -39.1253 H         1 UNK         0.0600 
    178 H178       -1.2605  -12.0885  -38.2856 H         1 UNK         0.0600 
    179 H179       -2.2878  -12.8233  -41.6691 H         1 UNK         0.3000 
    180 H180       -3.3707  -15.5887  -43.5058 H         1 UNK         0.0600 
    181 H181       -5.2337  -13.3966  -42.4580 H         1 UNK         0.0600 
    182 H182       -5.5228  -15.1278  -42.3326 H         1 UNK         0.0600 
    183 H183       -5.4792  -14.3645  -43.9131 H         1 UNK         0.0600 
    184 H184       -3.4893  -12.8342  -44.1330 H         1 UNK         0.3000 
    185 H185       -1.8802  -12.2779  -45.9161 H         1 UNK         0.0600 
    186 H186       -2.0593  -10.8746  -43.8744 H         1 UNK         0.0600 
    187 H187       -0.3967  -11.2471  -43.4339 H         1 UNK         0.0600 
    188 H188       -0.7425  -10.2967  -44.8769 H         1 UNK         0.0600 
    189 H189        0.9381  -12.3893  -45.0747 H         1 UNK         0.3000 
    190 H190        0.3854  -20.4542  -47.3788 H         1 UNK         0.3000 
    191 H191       -1.4286  -20.1223  -49.4234 H         1 UNK         0.0600 
    192 H192        0.0603  -18.4029  -48.5821 H         1 UNK         0.0600 
    193 H193       -1.5879  -17.7936  -48.5757 H         1 UNK         0.0600 
    194 H194       -0.8248  -18.2711  -47.0750 H         1 UNK         0.0600 
    195 H195       -2.1971  -20.7419  -46.0360 H         1 UNK         0.3000 
    196 H196       -5.1278  -20.6157  -46.6630 H         1 UNK         0.0600 
    197 H197       -5.4919  -20.1748  -44.2861 H         1 UNK         0.0600 
    198 H198       -4.3943  -18.9569  -44.9190 H         1 UNK         0.0600 
    199 H199       -3.7745  -20.2854  -43.9373 H         1 UNK         0.0600 
    200 H200       -2.5033  -22.3850  -44.9534 H         1 UNK         0.3000 
    201 H201       -3.9957  -24.5221  -43.9918 H         1 UNK         0.0600 
    202 H202       -1.7396  -24.0036  -43.2098 H         1 UNK         0.0600 
    203 H203       -1.0427  -24.3712  -44.7870 H         1 UNK         0.0600 
    204 H204       -1.7472  -25.6531  -43.8065 H         1 UNK         0.0600 
    205 H205       -2.3543  -24.2711  -47.1746 H         1 UNK         0.3000 
    206 H206       -3.6367  -26.8275  -48.0612 H         1 UNK         0.0600 
    207 H207       -1.1327  -26.6544  -48.3092 H         1 UNK         0.0600 
    208 H208       -1.9630  -26.8048  -49.8488 H         1 UNK         0.0600 
    209 H209       -1.3470  -25.2415  -49.3408 H         1 UNK         0.0600 
    210 H210       -4.3470  -23.6649  -47.8589 H         1 UNK         0.3000 
    211 H211       -5.5254  -22.0944  -48.8674 H         1 UNK         0.0600 
    212 H212       -6.8234  -24.3494  -50.4847 H         1 UNK         0.0600 
    213 H213       -7.4998  -22.7570  -50.1767 H         1 UNK         0.0600 
    214 H214       -7.2860  -23.8828  -48.8479 H         1 UNK         0.0600 
    215 H215       -2.9083  -22.7062  -49.9888 H         1 UNK         0.3000 
    216 H216       -2.9048  -22.8952  -52.7677 H         1 UNK         0.0600 
    217 H217       -0.5219  -22.4297  -52.6056 H         1 UNK         0.0600 
    218 H218       -0.9748  -23.3797  -51.2066 H         1 UNK         0.0600 
    219 H219       -0.7059  -21.6444  -51.0448 H         1 UNK         0.0600 
    220 H220       -3.0631  -19.9449  -50.7697 H         1 UNK         0.3000 
    221 H221       -2.5650  -18.1427  -53.0118 H         1 UNK         0.0600 
    222 H222       -3.1450  -16.3713  -51.3306 H         1 UNK         0.0600 
    223 H223       -3.5010  -17.6227  -50.1476 H         1 UNK         0.0600 
    224 H224       -1.8641  -17.4397  -50.7957 H         1 UNK         0.0600 
    225 H225       -5.4030  -19.5566  -51.4255 H         1 UNK         0.3000 
    226 H226       -7.3736  -17.9116  -52.7707 H         1 UNK         0.0600 
    227 H227       -7.8731  -19.0946  -50.6338 H         1 UNK         0.0600 
    228 H228       -8.9720  -19.5987  -51.9088 H         1 UNK         0.0600 
    229 H229       -7.6517  -20.6531  -51.4275 H         1 UNK         0.0600 
    230 H230       -5.7688  -21.0210  -53.4100 H         1 UNK         0.3000 
    231 H231       -7.0888  -21.5430  -55.9376 H         1 UNK         0.0600 
    232 H232       -6.1307  -23.3373  -54.4784 H         1 UNK         0.0600 
    233 H233       -4.5141  -22.6789  -54.7181 H         1 UNK         0.0600 
    234 H234       -5.3997  -23.3607  -56.0758 H         1 UNK         0.0600 
    235 H235       -4.8329  -19.2049  -55.0893 H         1 UNK         0.3000 
    236 H236       -3.3910  -17.8549  -56.0713 H         1 UNK         0.0600 
    237 H237       -3.9085  -17.0826  -58.3608 H         1 UNK         0.0600 
    238 H238       -4.8851  -18.5138  -58.6653 H         1 UNK         0.0600 
    239 H239       -5.3994  -17.3271  -57.4668 H         1 UNK         0.0600 
    240 H240       -2.4408  -20.4435  -55.6501 H         1 UNK         0.3000 
    241 H241       -0.7934  -21.8503  -56.0134 H         1 UNK         0.0600 
    242 H242       -3.2656  -21.8141  -58.0486 H         1 UNK         0.3800 
    243 H243       -2.7116  -23.0456  -59.1527 H         1 UNK         0.3800 
    244 H244        0.4149  -19.8752  -58.0141 H         1 UNK         0.0800 
    245 H245        1.2251  -21.2586  -57.3645 H         1 UNK         0.0800 
    246 H246       -0.7557  -19.2785  -54.4252 H         1 UNK         0.0800 
    247 H247       -0.0145  -20.8551  -54.1959 H         1 UNK         0.0800 
@<TRIPOS>BOND
     1    1    2 1    
     2    1  127 1    
     3    1  128 1    
     4    1  129 1    
     5    2    3 2    
     6    2    4 am   BACKBONE|DICT|INTERRES
     7    4    5 1    
     8    4  130 1    
     9    5    6 1    
    10    5   65 1    
    11    5  131 1    
    12    6    7 1    
    13    6  132 1    
    14    6  133 1    
    15    7    8 1    
    16    8    9 1    
    17    8  134 1    
    18    8  135 1    
    19    9   10 ar   
    20    9   14 ar   
    21   10   11 ar   
    22   10  136 1    
    23   11   12 ar   
    24   11  126 1    
    25   12   13 ar   
    26   12  137 1    
    27   13   14 ar   
    28   13   15 1    
    29   14  138 1    
    30   15   16 1    
    31   15  139 1    
    32   15  140 1    
    33   16   17 1    
    34   17   18 1    
    35   17  141 1    
    36   17  142 1    
    37   18   19 1    
    38   18   67 1    
    39   18  143 1    
    40   19   20 am   BACKBONE|DICT|INTERRES
    41   19  144 1    
    42   20   21 2    
    43   20   22 1    
    44   22   23 1    
    45   22   24 1    
    46   22  145 1    
    47   23  146 1    
    48   23  147 1    
    49   23  148 1    
    50   24   25 am   BACKBONE|DICT|INTERRES
    51   24  149 1    
    52   25   26 2    
    53   25   27 1    
    54   27   28 1    
    55   27   29 1    
    56   27  150 1    
    57   28  151 1    
    58   28  152 1    
    59   28  153 1    
    60   29   30 am   BACKBONE|DICT|INTERRES
    61   29  154 1    
    62   30   31 2    
    63   30   32 1    
    64   32   33 1    
    65   32   34 1    
    66   32  155 1    
    67   33  156 1    
    68   33  157 1    
    69   33  158 1    
    70   34   35 am   BACKBONE|DICT|INTERRES
    71   34  159 1    
    72   35   36 2    
    73   35   37 1    
    74   37   38 1    
    75   37   39 1    
    76   37  160 1    
    77   38  161 1    
    78   38  162 1    
    79   38  163 1    
    80   39   40 am   BACKBONE|DICT|INTERRES
    81   39  164 1    
    82   40   41 2    
    83   40   42 1    
    84   42   43 1    
    85   42   44 1    
    86   42  165 1    
    87   43  166 1    
    88   43  167 1    
    89   43  168 1    
    90   44   45 am   BACKBONE|DICT|INTERRES
    91   44  169 1    
    92   45   46 2    
    93   45   47 1    
    94   47   48 1    
    95   47   49 1    
    96   47  170 1    
    97   48  171 1    
    98   48  172 1    
    99   48  173 1    
   100   49   50 am   BACKBONE|DICT|INTERRES
   101   49  174 1    
   102   50   51 2    
   103   50   52 1    
   104   52   53 1    
   105   52   54 1    
   106   52  175 1    
   107   53  176 1    
   108   53  177 1    
   109   53  178 1    
   110   54   55 am   BACKBONE|DICT|INTERRES
   111   54  179 1    
   112   55   56 2    
   113   55   57 1    
   114   57   58 1    
   115   57   59 1    
   116   57  180 1    
   117   58  181 1    
   118   58  182 1    
   119   58  183 1    
   120   59   60 am   BACKBONE|DICT|INTERRES
   121   59  184 1    
   122   60   61 2    
   123   60   62 1    
   124   62   63 1    
   125   62   64 1    
   126   62  185 1    
   127   63  186 1    
   128   63  187 1    
   129   63  188 1    
   130   64   65 am   BACKBONE|DICT|INTERRES
   131   64  189 1    
   132   65   66 2    
   133   67   68 2    
   134   67   69 am   BACKBONE|DICT|INTERRES
   135   69   70 1    
   136   69  190 1    
   137   70   71 1    
   138   70   72 1    
   139   70  191 1    
   140   71  192 1    
   141   71  193 1    
   142   71  194 1    
   143   72   73 2    
   144   72   74 am   BACKBONE|DICT|INTERRES
   145   74   75 1    
   146   74  195 1    
   147   75   76 1    
   148   75   77 1    
   149   75  196 1    
   150   76  197 1    
   151   76  198 1    
   152   76  199 1    
   153   77   78 2    
   154   77   79 am   BACKBONE|DICT|INTERRES
   155   79   80 1    
   156   79  200 1    
   157   80   81 1    
   158   80   82 1    
   159   80  201 1    
   160   81  202 1    
   161   81  203 1    
   162   81  204 1    
   163   82   83 2    
   164   82   84 am   BACKBONE|DICT|INTERRES
   165   84   85 1    
   166   84  205 1    
   167   85   86 1    
   168   85   87 1    
   169   85  206 1    
   170   86  207 1    
   171   86  208 1    
   172   86  209 1    
   173   87   88 2    
   174   87   89 am   BACKBONE|DICT|INTERRES
   175   89   90 1    
   176   89  210 1    
   177   90   91 1    
   178   90   92 1    
   179   90  211 1    
   180   91  212 1    
   181   91  213 1    
   182   91  214 1    
   183   92   93 2    
   184   92   94 am   BACKBONE|DICT|INTERRES
   185   94   95 1    
   186   94  215 1    
   187   95   96 1    
   188   95   97 1    
   189   95  216 1    
   190   96  217 1    
   191   96  218 1    
   192   96  219 1    
   193   97   98 2    
   194   97   99 am   BACKBONE|DICT|INTERRES
   195   99  100 1    
   196   99  220 1    
   197  100  101 1    
   198  100  102 1    
   199  100  221 1    
   200  101  222 1    
   201  101  223 1    
   202  101  224 1    
   203  102  103 2    
   204  102  104 am   BACKBONE|DICT|INTERRES
   205  104  105 1    
   206  104  225 1    
   207  105  106 1    
   208  105  107 1    
   209  105  226 1    
   210  106  227 1    
   211  106  228 1    
   212  106  229 1    
   213  107  108 2    
   214  107  109 am   BACKBONE|DICT|INTERRES
   215  109  110 1    
   216  109  230 1    
   217  110  111 1    
   218  110  112 1    
   219  110  231 1    
   220  111  232 1    
   221  111  233 1    
   222  111  234 1    
   223  112  113 2    
   224  112  114 am   BACKBONE|DICT|INTERRES
   225  114  115 1    
   226  114  235 1    
   227  115  116 1    
   228  115  117 1    
   229  115  236 1    
   230  116  237 1    
   231  116  238 1    
   232  116  239 1    
   233  117  118 2    
   234  117  119 am   BACKBONE|DICT|INTERRES
   235  119  120 1    
   236  119  240 1    
   237  120  121 1    
   238  120  124 1    
   239  120  241 1    
   240  121  122 am   BACKBONE|DICT|INTERRES
   241  121  123 2    
   242  122  242 1    
   243  122  243 1    
   244  124  125 1    
   245  124  244 1    
   246  124  245 1    
   247  125  126 1    
   248  126  246 1    
   249  126  247 1    
@<TRIPOS>SUBSTRUCTURE
     1 UNK         1 GROUP             0       ****    0 ROOT    
