@<TRIPOS>MOLECULE
3R540
247   249    1
SMALL
USER_CHARGES


@<TRIPOS>ATOM
      1 CA          0.0439  -12.7919  -41.0530 C.3       0 UNK        -0.1800 
      2 C           0.0697  -12.3230  -42.5010 C.2       0 UNK         0.5000 
      3 O          -0.3547  -11.2048  -42.7918 O.2       0 UNK        -0.5000 
      4 N           0.5778  -13.1716  -43.3981 N.am      1 UNK        -0.5000 
      5 CA          0.7287  -12.9345  -44.8331 C.3       1 UNK         0.1400 
      6 C6         -0.3231  -13.7058  -45.6738 C.3       23 UNK        -0.0398 
      7 S7         -2.0132  -13.0637  -45.4140 S.3       23 UNK        -0.2404 
      8 C8         -2.7519  -13.2539  -47.0668 C.3       23 UNK        -0.0205 
      9 C9         -3.0734  -14.7103  -47.3553 C.ar      23 UNK        -0.0193 
     10 C10        -4.2486  -15.2785  -46.8566 C.ar      23 UNK        -0.1150 
     11 C11        -4.5317  -16.6303  -47.0691 C.ar      23 UNK        -0.0193 
     12 C12        -3.6243  -17.4139  -47.7895 C.ar      23 UNK        -0.1150 
     13 C13        -2.4519  -16.8520  -48.3058 C.ar      23 UNK        -0.0193 
     14 C14        -2.1876  -15.4968  -48.0947 C.ar      23 UNK        -0.1150 
     15 C15        -1.4565  -17.7140  -49.0684 C.3       23 UNK        -0.0205 
     16 S16         0.1339  -17.8867  -48.1964 S.3       23 UNK        -0.2404 
     17 C17        -0.3737  -18.5445  -46.5742 C.3       23 UNK        -0.0398 
     18 CA         -0.2528  -20.0814  -46.4818 C.3       11 UNK         0.1400 
     19 N          -0.1669  -20.5209  -45.0915 N.am      11 UNK        -0.5000 
     20 C           0.0539  -21.7769  -44.6836 C.2       10 UNK         0.5000 
     21 O           0.2900  -22.7169  -45.4420 O.2       10 UNK        -0.5000 
     22 CA         -0.0705  -22.0248  -43.1712 C.3       10 UNK         0.1400 
     23 CB          1.2256  -21.6369  -42.4422 C.3       10 UNK        -0.1800 
     24 N          -1.2012  -21.2914  -42.5970 N.am      10 UNK        -0.5000 
     25 C          -2.4881  -21.5742  -42.8474 C.2       9 UNK         0.5000 
     26 O          -2.8551  -22.5161  -43.5498 O.2       9 UNK        -0.5000 
     27 CA         -3.5377  -20.6225  -42.2426 C.3       9 UNK         0.1400 
     28 CB         -3.8238  -20.9911  -40.7793 C.3       9 UNK        -0.1800 
     29 N          -3.1393  -19.2154  -42.3201 N.am      9 UNK        -0.5000 
     30 C          -3.0195  -18.5252  -43.4635 C.2       8 UNK         0.5000 
     31 O          -3.2611  -18.9987  -44.5713 O.2       8 UNK        -0.5000 
     32 CA         -2.4780  -17.0864  -43.3574 C.3       8 UNK         0.1400 
     33 CB         -3.6178  -16.0889  -43.1075 C.3       8 UNK        -0.1800 
     34 N          -1.4527  -16.9320  -42.3198 N.am      8 UNK        -0.5000 
     35 C          -0.2812  -17.5802  -42.3242 C.2       7 UNK         0.5000 
     36 O           0.0392  -18.4023  -43.1859 O.2       7 UNK        -0.5000 
     37 CA          0.6781  -17.3032  -41.1531 C.3       7 UNK         0.1400 
     38 CB          0.4607  -18.3316  -40.0328 C.3       7 UNK        -0.1800 
     39 N           2.0700  -17.3697  -41.5987 N.am      7 UNK        -0.5000 
     40 C           2.6249  -16.4900  -42.4410 C.2       6 UNK         0.5000 
     41 O           2.0597  -15.4578  -42.7991 O.2       6 UNK        -0.5000 
     42 CA          4.0120  -16.8153  -43.0123 C.3       6 UNK         0.1400 
     43 CB          4.7070  -18.0264  -42.3525 C.3       6 UNK        -0.1800 
     44 N           3.8541  -17.0500  -44.4443 N.am      6 UNK        -0.5000 
     45 C           4.8056  -16.8889  -45.3699 C.2       5 UNK         0.5000 
     46 O           5.9300  -16.4518  -45.1250 O.2       5 UNK        -0.5000 
     47 CA          4.4524  -17.3036  -46.8058 C.3       5 UNK         0.1400 
     48 CB          3.5513  -18.5557  -46.8681 C.3       5 UNK        -0.1800 
     49 N           3.8385  -16.1831  -47.5145 N.am      5 UNK        -0.5000 
     50 C           3.8334  -16.0415  -48.8475 C.2       4 UNK         0.5000 
     51 O           4.3427  -16.8525  -49.6225 O.2       4 UNK        -0.5000 
     52 CA          3.1805  -14.7717  -49.4197 C.3       4 UNK         0.1400 
     53 CB          1.6475  -14.8672  -49.3819 C.3       4 UNK        -0.1800 
     54 N           3.6074  -13.5852  -48.6829 N.am      4 UNK        -0.5000 
     55 C           4.5888  -12.7569  -49.0668 C.2       3 UNK         0.5000 
     56 O           5.2269  -12.8891  -50.1120 O.2       3 UNK        -0.5000 
     57 CA          4.9146  -11.5716  -48.1342 C.3       3 UNK         0.1400 
     58 CB          4.1874  -10.3029  -48.6055 C.3       3 UNK        -0.1800 
     59 N           4.5595  -11.8297  -46.7386 N.am      3 UNK        -0.5000 
     60 C           5.2078  -12.6844  -45.9363 C.2       2 UNK         0.5000 
     61 O           6.2502  -13.2563  -46.2541 O.2       2 UNK        -0.5000 
     62 CA          4.5748  -12.9675  -44.5592 C.3       2 UNK         0.1400 
     63 CB          5.2938  -12.1745  -43.4581 C.3       2 UNK        -0.1800 
     64 N           3.1355  -12.6938  -44.4784 N.am      2 UNK        -0.5000 
     65 C           2.1792  -13.3060  -45.1928 C.2       1 UNK         0.5000 
     66 O           2.4187  -14.1372  -46.0706 O.2       1 UNK        -0.5000 
     67 C          -1.3972  -20.7949  -47.2312 C.2       11 UNK         0.5000 
     68 O          -1.1649  -21.3348  -48.3110 O.2       11 UNK        -0.5000 
     69 N          -2.5949  -20.8319  -46.6287 N.am      12 UNK        -0.5000 
     70 CA         -3.7689  -21.5319  -47.1518 C.3       12 UNK         0.1400 
     71 CB         -4.9822  -21.2572  -46.2532 C.3       12 UNK        -0.1800 
     72 C          -3.5463  -23.0458  -47.3024 C.2       12 UNK         0.5000 
     73 O          -3.9328  -23.6105  -48.3237 O.2       12 UNK        -0.5000 
     74 N          -2.8968  -23.6679  -46.3080 N.am      13 UNK        -0.5000 
     75 CA         -2.5216  -25.0827  -46.3263 C.3       13 UNK         0.1400 
     76 CB         -1.9871  -25.4926  -44.9459 C.3       13 UNK        -0.1800 
     77 C          -1.5043  -25.4228  -47.4326 C.2       13 UNK         0.5000 
     78 O          -1.6127  -26.4849  -48.0449 O.2       13 UNK        -0.5000 
     79 N          -0.5532  -24.5136  -47.6859 N.am      14 UNK        -0.5000 
     80 CA          0.4226  -24.6217  -48.7704 C.3       14 UNK         0.1400 
     81 CB          1.5736  -23.6344  -48.5212 C.3       14 UNK        -0.1800 
     82 C          -0.2075  -24.3910  -50.1577 C.2       14 UNK         0.5000 
     83 O           0.1413  -25.0929  -51.1073 O.2       14 UNK        -0.5000 
     84 N          -1.1187  -23.4134  -50.2510 N.am      15 UNK        -0.5000 
     85 CA         -1.8133  -23.0296  -51.4799 C.3       15 UNK         0.1400 
     86 CB         -2.4034  -21.6224  -51.3036 C.3       15 UNK        -0.1800 
     87 C          -2.9101  -24.0196  -51.9147 C.2       15 UNK         0.5000 
     88 O          -3.2847  -24.0074  -53.0888 O.2       15 UNK        -0.5000 
     89 N          -3.4209  -24.8359  -50.9825 N.am      16 UNK        -0.5000 
     90 CA         -4.4635  -25.8399  -51.2026 C.3       16 UNK         0.1400 
     91 CB         -4.7470  -26.5836  -49.8883 C.3       16 UNK        -0.1800 
     92 C          -4.0998  -26.8343  -52.3217 C.2       16 UNK         0.5000 
     93 O          -3.0442  -27.4675  -52.2579 O.2       16 UNK        -0.5000 
     94 N          -4.9799  -26.9235  -53.3295 N.am      17 UNK        -0.5000 
     95 CA         -4.8470  -27.7137  -54.5617 C.3       17 UNK         0.1400 
     96 CB         -4.8064  -29.2249  -54.2499 C.3       17 UNK        -0.1800 
     97 C          -3.6873  -27.2624  -55.4810 C.2       17 UNK         0.5000 
     98 O          -3.2655  -28.0296  -56.3486 O.2       17 UNK        -0.5000 
     99 N          -3.2075  -26.0269  -55.2952 N.am      18 UNK        -0.5000 
    100 CA        -2.1480  -25.3978  -56.0724 C.3       18 UNK         0.1400 
    101 CB        -0.8291  -25.4540  -55.2731 C.3       18 UNK        -0.1800 
    102 C         -2.6091  -23.9784  -56.4418 C.2       18 UNK         0.5000 
    103 O         -3.4644  -23.8332  -57.3165 O.2       18 UNK        -0.5000 
    104 N         -2.0502  -22.9603  -55.7754 N.am      19 UNK        -0.5000 
    105 CA        -2.3442  -21.5422  -55.9929 C.3       19 UNK         0.1400 
    106 CB        -1.2653  -20.7058  -55.2863 C.3       19 UNK        -0.1800 
    107 C         -3.7452  -21.1015  -55.5225 C.2       19 UNK         0.5000 
    108 O         -4.2267  -20.0635  -55.9780 O.2       19 UNK        -0.5000 
    109 N         -4.3515  -21.8592  -54.5964 N.am      20 UNK        -0.5000 
    110 CA        -5.6403  -21.6558  -53.9175 C.3       20 UNK         0.1400 
    111 CB        -6.8094  -21.6059  -54.9182 C.3       20 UNK        -0.1800 
    112 C         -5.6764  -20.4535  -52.9515 C.2       20 UNK         0.5000 
    113 O         -6.2431  -20.5770  -51.8645 O.2       20 UNK        -0.5000 
    114 N         -5.0548  -19.3337  -53.3455 N.am      21 UNK        -0.5000 
    115 CA        -4.8895  -18.0832  -52.6022 C.3       21 UNK         0.1400 
    116 CB        -3.8524  -18.2725  -51.4749 C.3       21 UNK        -0.1800 
    117 C         -6.2407  -17.5107  -52.1261 C.2       21 UNK         0.5000 
    118 O         -7.0457  -17.0980  -52.9628 O.2       21 UNK        -0.5000 
    119 N         -6.4688  -17.5065  -50.8080 N.am      22 UNK        -0.5000 
    120 CA        -7.7298  -17.1152  -50.1636 C.3       22 UNK         0.1400 
    121 C         -8.9116  -18.1145  -50.3582 C.2       22 UNK         0.5000 
    122 N         -8.6984  -19.3211  -50.8713 N.am      22 UNK        -0.7600 
    123 O        -10.0520  -17.7794  -50.0486 O.2       22 UNK        -0.5000 
    124 C124       -7.5105  -16.7600  -48.6696 C.3       23 UNK        -0.0398 
    125 S125       -6.8120  -18.1354  -47.6872 S.3       23 UNK        -0.2404 
    126 C126       -5.7902  -17.2451  -46.4691 C.3       23 UNK        -0.0205 
    127 H127        0.5545  -12.0708  -40.4148 H         1 UNK         0.0600 
    128 H128        0.5351  -13.7577  -40.9325 H         1 UNK         0.0600 
    129 H129       -0.9857  -12.8868  -40.7081 H         1 UNK         0.0600 
    130 H130        0.9937  -14.0483  -43.0823 H         1 UNK         0.3000 
    131 H131        0.6282  -11.8698  -45.0538 H         1 UNK         0.0600 
    132 H132       -0.0855  -13.6248  -46.7353 H         1 UNK         0.0800 
    133 H133       -0.3086  -14.7710  -45.4352 H         1 UNK         0.0800 
    134 H134       -2.0861  -12.8419  -47.8267 H         1 UNK         0.0800 
    135 H135       -3.6680  -12.6633  -47.1132 H         1 UNK         0.0800 
    136 H136       -4.9293  -14.6693  -46.2787 H         1 UNK         0.1150 
    137 H137       -3.8276  -18.4654  -47.9339 H         1 UNK         0.1150 
    138 H138       -1.2757  -15.0649  -48.4815 H         1 UNK         0.1150 
    139 H139       -1.8681  -18.7049  -49.2639 H         1 UNK         0.0800 
    140 H140       -1.2699  -17.2638  -50.0440 H         1 UNK         0.0800 
    141 H141       -1.3727  -18.2062  -46.3038 H         1 UNK         0.0800 
    142 H142        0.2866  -18.0784  -45.8427 H         1 UNK         0.0800 
    143 H143        0.6851  -20.3797  -46.9555 H         1 UNK         0.0600 
    144 H144       -0.2955  -19.8032  -44.3828 H         1 UNK         0.3000 
    145 H145       -0.2415  -23.0925  -43.0182 H         1 UNK         0.0600 
    146 H146        1.1544  -21.8433  -41.3743 H         1 UNK         0.0600 
    147 H147        2.0718  -22.2072  -42.8272 H         1 UNK         0.0600 
    148 H148        1.4628  -20.5800  -42.5654 H         1 UNK         0.0600 
    149 H149       -0.9819  -20.4706  -42.0536 H         1 UNK         0.3000 
    150 H150       -4.4621  -20.7442  -42.8113 H         1 UNK         0.0600 
    151 H151       -4.1386  -22.0320  -40.6940 H         1 UNK         0.0600 
    152 H152       -4.6243  -20.3762  -40.3675 H         1 UNK         0.0600 
    153 H153       -2.9426  -20.8617  -40.1496 H         1 UNK         0.0600 
    154 H154       -2.9191  -18.7521  -41.4513 H         1 UNK         0.3000 
    155 H155       -2.0202  -16.8369  -44.3172 H         1 UNK         0.0600 
    156 H156       -4.0965  -16.2546  -42.1418 H         1 UNK         0.0600 
    157 H157       -3.2534  -15.0616  -43.1328 H         1 UNK         0.0600 
    158 H158       -4.3871  -16.1760  -43.8757 H         1 UNK         0.0600 
    159 H159       -1.6575  -16.2810  -41.5758 H         1 UNK         0.3000 
    160 H160        0.4834  -16.3038  -40.7589 H         1 UNK         0.0600 
    161 H161        0.6534  -19.3493  -40.3740 H         1 UNK         0.0600 
    162 H162       -0.5645  -18.2976  -39.6621 H         1 UNK         0.0600 
    163 H163        1.1171  -18.1338  -39.1851 H         1 UNK         0.0600 
    164 H164        2.5785  -18.2111  -41.3719 H         1 UNK         0.3000 
    165 H165        4.6306  -15.9301  -42.8533 H         1 UNK         0.0600 
    166 H166        5.7158  -18.1576  -42.7443 H         1 UNK         0.0600 
    167 H167        4.8021  -17.8897  -41.2745 H         1 UNK         0.0600 
    168 H168        4.1642  -18.9557  -42.5306 H         1 UNK         0.0600 
    169 H169        2.9356  -17.3559  -44.7335 H         1 UNK         0.3000 
    170 H170        5.3978  -17.5481  -47.2951 H         1 UNK         0.0600 
    171 H171        3.9862  -19.3802  -46.3018 H         1 UNK         0.0600 
    172 H172        2.5601  -18.3635  -46.4622 H         1 UNK         0.0600 
    173 H173        3.4242  -18.9021  -47.8937 H         1 UNK         0.0600 
    174 H174        3.3977  -15.4699  -46.9376 H         1 UNK         0.3000 
    175 H175        3.4768  -14.6856  -50.4673 H         1 UNK         0.0600 
    176 H176        1.1851  -13.9675  -49.7876 H         1 UNK         0.0600 
    177 H177        1.2739  -15.0074  -48.3675 H         1 UNK         0.0600 
    178 H178        1.2981  -15.7091  -49.9802 H         1 UNK         0.0600 
    179 H179        3.1739  -13.4477  -47.7775 H         1 UNK         0.3000 
    180 H180        5.9901  -11.3905  -48.1902 H         1 UNK         0.0600 
    181 H181        3.1038  -10.4198  -48.5621 H         1 UNK         0.0600 
    182 H182        4.4503  -10.0626  -49.6366 H         1 UNK         0.0600 
    183 H183        4.4582   -9.4422  -47.9937 H         1 UNK         0.0600 
    184 H184        3.7245  -11.3836  -46.3892 H         1 UNK         0.3000 
    185 H185        4.7149  -14.0297  -44.3572 H         1 UNK         0.0600 
    186 H186        6.3655  -12.3782  -43.4654 H         1 UNK         0.0600 
    187 H187        5.1625  -11.0994  -43.5862 H         1 UNK         0.0600 
    188 H188        4.9208  -12.4447  -42.4699 H         1 UNK         0.0600 
    189 H189        2.8464  -12.0390  -43.7660 H         1 UNK         0.3000 
    190 H190       -2.7297  -20.3148  -45.7628 H         1 UNK         0.3000 
    191 H191       -3.9808  -21.1248  -48.1426 H         1 UNK         0.0600 
    192 H192       -4.8308  -21.6336  -45.2415 H         1 UNK         0.0600 
    193 H193       -5.8796  -21.7317  -46.6519 H         1 UNK         0.0600 
    194 H194       -5.1840  -20.1907  -46.1833 H         1 UNK         0.0600 
    195 H195       -2.6570  -23.1417  -45.4739 H         1 UNK         0.3000 
    196 H196       -3.4264  -25.6617  -46.5233 H         1 UNK         0.0600 
    197 H197       -1.7297  -26.5522  -44.9259 H         1 UNK         0.0600 
    198 H198       -2.7327  -25.3240  -44.1687 H         1 UNK         0.0600 
    199 H199       -1.0918  -24.9321  -44.6771 H         1 UNK         0.0600 
    200 H200       -0.4960  -23.6883  -47.0985 H         1 UNK         0.3000 
    201 H201        0.8380  -25.6316  -48.7571 H         1 UNK         0.0600 
    202 H202        2.0640  -23.8343  -47.5683 H         1 UNK         0.0600 
    203 H203        1.2251  -22.6014  -48.5052 H         1 UNK         0.0600 
    204 H204        2.3316  -23.7134  -49.3013 H         1 UNK         0.0600 
    205 H205       -1.2907  -22.8300  -49.4354 H         1 UNK         0.3000 
    206 H206       -1.0780  -22.9866  -52.2858 H         1 UNK         0.0600 
    207 H207       -2.8664  -21.2725  -52.2252 H         1 UNK         0.0600 
    208 H208       -3.1647  -21.6007  -50.5228 H         1 UNK         0.0600 
    209 H209       -1.6313  -20.8998  -51.0388 H         1 UNK         0.0600 
    210 H210       -3.1022  -24.7228  -50.0287 H         1 UNK         0.3000 
    211 H211       -5.3696  -25.3017  -51.4876 H         1 UNK         0.0600 
    212 H212       -3.8578  -27.0942  -49.5172 H         1 UNK         0.0600 
    213 H213       -5.5245  -27.3363  -50.0250 H         1 UNK         0.0600 
    214 H214       -5.0913  -25.9013  -49.1114 H         1 UNK         0.0600 
    215 H215       -5.8109  -26.3502  -53.2828 H         1 UNK         0.3000 
    216 H216       -5.7586  -27.5271  -55.1310 H         1 UNK         0.0600 
    217 H217       -4.8852  -29.8154  -55.1634 H         1 UNK         0.0600 
    218 H218       -5.6351  -29.5175  -53.6052 H         1 UNK         0.0600 
    219 H219       -3.8782  -29.5135  -53.7564 H         1 UNK         0.0600 
    220 H220       -3.5952  -25.4552  -54.5527 H         1 UNK         0.3000 
    221 H221       -1.9982  -25.9276  -57.0153 H         1 UNK         0.0600 
    222 H222       -0.9258  -25.0053  -54.2838 H         1 UNK         0.0600 
    223 H223       -0.5111  -26.4867  -55.1292 H         1 UNK         0.0600 
    224 H224       -0.0238  -24.9417  -55.8010 H         1 UNK         0.0600 
    225 H225       -1.3707  -23.1759  -55.0614 H         1 UNK         0.3000 
    226 H226       -2.2840  -21.3436  -57.0650 H         1 UNK         0.0600 
    227 H227       -0.2713  -20.9404  -55.6676 H         1 UNK         0.0600 
    228 H228       -1.4285  -19.6391  -55.4462 H         1 UNK         0.0600 
    229 H229       -1.2619  -20.8787  -54.2095 H         1 UNK         0.0600 
    230 H230       -3.8383  -22.6694  -54.2574 H         1 UNK         0.3000 
    231 H231       -5.7809  -22.5457  -53.3016 H         1 UNK         0.0600 
    232 H232       -7.7658  -21.5794  -54.3946 H         1 UNK         0.0600 
    233 H233       -6.8143  -22.4857  -55.5617 H         1 UNK         0.0600 
    234 H234       -6.7655  -20.7229  -55.5560 H         1 UNK         0.0600 
    235 H235       -4.6809  -19.3391  -54.2905 H         1 UNK         0.3000 
    236 H236       -4.4814  -17.3561  -53.3056 H         1 UNK         0.0600 
    237 H237       -2.8888  -18.5785  -51.8822 H         1 UNK         0.0600 
    238 H238       -3.6904  -17.3369  -50.9389 H         1 UNK         0.0600 
    239 H239       -4.1575  -19.0283  -50.7501 H         1 UNK         0.0600 
    240 H240       -5.7702  -17.8950  -50.1918 H         1 UNK         0.3000 
    241 H241       -8.0564  -16.1963  -50.6541 H         1 UNK         0.0600 
    242 H242       -9.4764  -19.9491  -50.9913 H         1 UNK         0.3800 
    243 H243       -7.7650  -19.6273  -51.1309 H         1 UNK         0.3800 
    244 H244       -6.8400  -15.9022  -48.6048 H         1 UNK         0.0800 
    245 H245       -8.4441  -16.4375  -48.2057 H         1 UNK         0.0800 
    246 H246       -6.4048  -16.4840  -45.9860 H         1 UNK         0.0800 
    247 H247       -5.4946  -17.9372  -45.6812 H         1 UNK         0.0800 
@<TRIPOS>BOND
     1    1    2 1    
     2    1  127 1    
     3    1  128 1    
     4    1  129 1    
     5    2    3 2    
     6    2    4 am   BACKBONE|DICT|INTERRES
     7    4    5 1    
     8    4  130 1    
     9    5    6 1    
    10    5   65 1    
    11    5  131 1    
    12    6    7 1    
    13    6  132 1    
    14    6  133 1    
    15    7    8 1    
    16    8    9 1    
    17    8  134 1    
    18    8  135 1    
    19    9   10 ar   
    20    9   14 ar   
    21   10   11 ar   
    22   10  136 1    
    23   11   12 ar   
    24   11  126 1    
    25   12   13 ar   
    26   12  137 1    
    27   13   14 ar   
    28   13   15 1    
    29   14  138 1    
    30   15   16 1    
    31   15  139 1    
    32   15  140 1    
    33   16   17 1    
    34   17   18 1    
    35   17  141 1    
    36   17  142 1    
    37   18   19 1    
    38   18   67 1    
    39   18  143 1    
    40   19   20 am   BACKBONE|DICT|INTERRES
    41   19  144 1    
    42   20   21 2    
    43   20   22 1    
    44   22   23 1    
    45   22   24 1    
    46   22  145 1    
    47   23  146 1    
    48   23  147 1    
    49   23  148 1    
    50   24   25 am   BACKBONE|DICT|INTERRES
    51   24  149 1    
    52   25   26 2    
    53   25   27 1    
    54   27   28 1    
    55   27   29 1    
    56   27  150 1    
    57   28  151 1    
    58   28  152 1    
    59   28  153 1    
    60   29   30 am   BACKBONE|DICT|INTERRES
    61   29  154 1    
    62   30   31 2    
    63   30   32 1    
    64   32   33 1    
    65   32   34 1    
    66   32  155 1    
    67   33  156 1    
    68   33  157 1    
    69   33  158 1    
    70   34   35 am   BACKBONE|DICT|INTERRES
    71   34  159 1    
    72   35   36 2    
    73   35   37 1    
    74   37   38 1    
    75   37   39 1    
    76   37  160 1    
    77   38  161 1    
    78   38  162 1    
    79   38  163 1    
    80   39   40 am   BACKBONE|DICT|INTERRES
    81   39  164 1    
    82   40   41 2    
    83   40   42 1    
    84   42   43 1    
    85   42   44 1    
    86   42  165 1    
    87   43  166 1    
    88   43  167 1    
    89   43  168 1    
    90   44   45 am   BACKBONE|DICT|INTERRES
    91   44  169 1    
    92   45   46 2    
    93   45   47 1    
    94   47   48 1    
    95   47   49 1    
    96   47  170 1    
    97   48  171 1    
    98   48  172 1    
    99   48  173 1    
   100   49   50 am   BACKBONE|DICT|INTERRES
   101   49  174 1    
   102   50   51 2    
   103   50   52 1    
   104   52   53 1    
   105   52   54 1    
   106   52  175 1    
   107   53  176 1    
   108   53  177 1    
   109   53  178 1    
   110   54   55 am   BACKBONE|DICT|INTERRES
   111   54  179 1    
   112   55   56 2    
   113   55   57 1    
   114   57   58 1    
   115   57   59 1    
   116   57  180 1    
   117   58  181 1    
   118   58  182 1    
   119   58  183 1    
   120   59   60 am   BACKBONE|DICT|INTERRES
   121   59  184 1    
   122   60   61 2    
   123   60   62 1    
   124   62   63 1    
   125   62   64 1    
   126   62  185 1    
   127   63  186 1    
   128   63  187 1    
   129   63  188 1    
   130   64   65 am   BACKBONE|DICT|INTERRES
   131   64  189 1    
   132   65   66 2    
   133   67   68 2    
   134   67   69 am   BACKBONE|DICT|INTERRES
   135   69   70 1    
   136   69  190 1    
   137   70   71 1    
   138   70   72 1    
   139   70  191 1    
   140   71  192 1    
   141   71  193 1    
   142   71  194 1    
   143   72   73 2    
   144   72   74 am   BACKBONE|DICT|INTERRES
   145   74   75 1    
   146   74  195 1    
   147   75   76 1    
   148   75   77 1    
   149   75  196 1    
   150   76  197 1    
   151   76  198 1    
   152   76  199 1    
   153   77   78 2    
   154   77   79 am   BACKBONE|DICT|INTERRES
   155   79   80 1    
   156   79  200 1    
   157   80   81 1    
   158   80   82 1    
   159   80  201 1    
   160   81  202 1    
   161   81  203 1    
   162   81  204 1    
   163   82   83 2    
   164   82   84 am   BACKBONE|DICT|INTERRES
   165   84   85 1    
   166   84  205 1    
   167   85   86 1    
   168   85   87 1    
   169   85  206 1    
   170   86  207 1    
   171   86  208 1    
   172   86  209 1    
   173   87   88 2    
   174   87   89 am   BACKBONE|DICT|INTERRES
   175   89   90 1    
   176   89  210 1    
   177   90   91 1    
   178   90   92 1    
   179   90  211 1    
   180   91  212 1    
   181   91  213 1    
   182   91  214 1    
   183   92   93 2    
   184   92   94 am   BACKBONE|DICT|INTERRES
   185   94   95 1    
   186   94  215 1    
   187   95   96 1    
   188   95   97 1    
   189   95  216 1    
   190   96  217 1    
   191   96  218 1    
   192   96  219 1    
   193   97   98 2    
   194   97   99 am   BACKBONE|DICT|INTERRES
   195   99  100 1    
   196   99  220 1    
   197  100  101 1    
   198  100  102 1    
   199  100  221 1    
   200  101  222 1    
   201  101  223 1    
   202  101  224 1    
   203  102  103 2    
   204  102  104 am   BACKBONE|DICT|INTERRES
   205  104  105 1    
   206  104  225 1    
   207  105  106 1    
   208  105  107 1    
   209  105  226 1    
   210  106  227 1    
   211  106  228 1    
   212  106  229 1    
   213  107  108 2    
   214  107  109 am   BACKBONE|DICT|INTERRES
   215  109  110 1    
   216  109  230 1    
   217  110  111 1    
   218  110  112 1    
   219  110  231 1    
   220  111  232 1    
   221  111  233 1    
   222  111  234 1    
   223  112  113 2    
   224  112  114 am   BACKBONE|DICT|INTERRES
   225  114  115 1    
   226  114  235 1    
   227  115  116 1    
   228  115  117 1    
   229  115  236 1    
   230  116  237 1    
   231  116  238 1    
   232  116  239 1    
   233  117  118 2    
   234  117  119 am   BACKBONE|DICT|INTERRES
   235  119  120 1    
   236  119  240 1    
   237  120  121 1    
   238  120  124 1    
   239  120  241 1    
   240  121  122 am   BACKBONE|DICT|INTERRES
   241  121  123 2    
   242  122  242 1    
   243  122  243 1    
   244  124  125 1    
   245  124  244 1    
   246  124  245 1    
   247  125  126 1    
   248  126  246 1    
   249  126  247 1    
@<TRIPOS>SUBSTRUCTURE
     1 UNK         1 GROUP             0       ****    0 ROOT    
