@<TRIPOS>MOLECULE
3R540
247   249    1
SMALL
USER_CHARGES


@<TRIPOS>ATOM
      1 CA          6.9288  -12.7739  -46.4111 C.3       0 UNK        -0.1800 
      2 C           5.4204  -12.7609  -46.2133 C.2       0 UNK         0.5000 
      3 O           4.9535  -12.7973  -45.0749 O.2       0 UNK        -0.5000 
      4 N           4.6560  -12.7078  -47.3120 N.am      1 UNK        -0.5000 
      5 CA          3.1889  -12.6659  -47.3200 C.3       1 UNK         0.1400 
      6 C6          2.6044  -12.7088  -48.7516 C.3       23 UNK        -0.0398 
      7 S7          3.0952  -14.2051  -49.6723 S.3       23 UNK        -0.2404 
      8 C8          1.7730  -15.3511  -49.1792 C.3       23 UNK        -0.0205 
      9 C9          1.8760  -16.6668  -49.9307 C.ar      23 UNK        -0.0193 
     10 C10         1.2172  -16.8266  -51.1527 C.ar      23 UNK        -0.1150 
     11 C11         1.2979  -18.0342  -51.8534 C.ar      23 UNK        -0.0193 
     12 C12         2.0659  -19.0778  -51.3268 C.ar      23 UNK        -0.1150 
     13 C13         2.7392  -18.9272  -50.1103 C.ar      23 UNK        -0.0193 
     14 C14         2.6322  -17.7214  -49.4110 C.ar      23 UNK        -0.1150 
     15 C15         3.6180  -20.0512  -49.5780 C.3       23 UNK        -0.0205 
     16 S16         2.6644  -21.5331  -49.1254 S.3       23 UNK        -0.2404 
     17 C17         1.8359  -20.9714  -47.6020 C.3       23 UNK        -0.0398 
     18 CA          0.8503  -22.0282  -47.0479 C.3       11 UNK         0.1400 
     19 N           0.5391  -21.8029  -45.6349 N.am      11 UNK        -0.5000 
     20 C          -0.1581  -22.6459  -44.8597 C.2       10 UNK         0.5000 
     21 O          -0.5789  -23.7379  -45.2400 O.2       10 UNK        -0.5000 
     22 CA         -0.4868  -22.1683  -43.4343 C.3       10 UNK         0.1400 
     23 CB          0.7149  -22.3662  -42.4991 C.3       10 UNK        -0.1800 
     24 N          -0.9259  -20.7723  -43.3974 N.am      10 UNK        -0.5000 
     25 C          -2.0339  -20.3150  -43.9991 C.2       9 UNK         0.5000 
     26 O          -2.8252  -21.0333  -44.6093 O.2       9 UNK        -0.5000 
     27 CA         -2.2816  -18.7976  -43.9510 C.3       9 UNK         0.1400 
     28 CB         -2.8852  -18.3869  -42.5998 C.3       9 UNK        -0.1800 
     29 N          -1.0724  -18.0165  -44.2111 N.am      9 UNK        -0.5000 
     30 C          -0.3795  -18.0389  -45.3593 C.2       8 UNK         0.5000 
     31 O          -0.7012  -18.7039  -46.3439 O.2       8 UNK        -0.5000 
     32 CA          0.9275  -17.2261  -45.3901 C.3       8 UNK         0.1400 
     33 CB          0.6406  -15.7229  -45.5238 C.3       8 UNK        -0.1800 
     34 N           1.7538  -17.4626  -44.2065 N.am      8 UNK        -0.5000 
     35 C           2.2554  -18.6540  -43.8506 C.2       7 UNK         0.5000 
     36 O           2.1288  -19.6791  -44.5188 O.2       7 UNK        -0.5000 
     37 CA          2.9720  -18.7222  -42.4928 C.3       7 UNK         0.1400 
     38 CB          4.4272  -18.2469  -42.6157 C.3       7 UNK        -0.1800 
     39 N           2.2735  -17.9386  -41.4735 N.am      7 UNK        -0.5000 
     40 C           1.0892  -18.2783  -40.9442 C.2       6 UNK         0.5000 
     41 O           0.4786  -19.3055  -41.2386 O.2       6 UNK        -0.5000 
     42 CA          0.4642  -17.2838  -39.9488 C.3       6 UNK         0.1400 
     43 CB          1.0572  -17.4752  -38.5450 C.3       6 UNK        -0.1800 
     44 N           0.6339  -15.8903  -40.3632 N.am      6 UNK        -0.5000 
     45 C           0.0591  -15.3508  -41.4471 C.2       5 UNK         0.5000 
     46 O          -0.7027  -15.9648  -42.1927 O.2       5 UNK        -0.5000 
     47 CA          0.4338  -13.8950  -41.7822 C.3       5 UNK         0.1400 
     48 CB         -0.4915  -12.9198  -41.0402 C.3       5 UNK        -0.1800 
     49 N           1.8309  -13.5547  -41.4953 N.am      5 UNK        -0.5000 
     50 C           2.9001  -14.1801  -42.0075 C.2       4 UNK         0.5000 
     51 O           2.8226  -15.1528  -42.7601 O.2       4 UNK        -0.5000 
     52 CA          4.2668  -13.5798  -41.6431 C.3       4 UNK         0.1400 
     53 CB          5.4445  -14.4816  -42.0531 C.3       4 UNK        -0.1800 
     54 N           4.3799  -12.3031  -42.3358 N.am      4 UNK        -0.5000 
     55 C           4.2607  -11.0961  -41.7712 C.2       3 UNK         0.5000 
     56 O           4.1667  -10.9091  -40.5577 O.2       3 UNK        -0.5000 
     57 CA          4.1613   -9.9046  -42.7404 C.3       3 UNK         0.1400 
     58 CB          5.5253   -9.5836  -43.3715 C.3       3 UNK        -0.1800 
     59 N           3.1792  -10.1582  -43.7957 N.am      3 UNK        -0.5000 
     60 C           1.8559  -10.2539  -43.6090 C.2       2 UNK         0.5000 
     61 O           1.3105  -10.0327  -42.5279 O.2       2 UNK        -0.5000 
     62 CA          0.9842  -10.7006  -44.8026 C.3       2 UNK         0.1400 
     63 CB          0.3967   -9.4891  -45.5516 C.3       2 UNK        -0.1800 
     64 N           1.6347  -11.6482  -45.7213 N.am      2 UNK        -0.5000 
     65 C           2.6581  -11.4331  -46.5595 C.2       1 UNK         0.5000 
     66 O           3.2014  -10.3379  -46.7199 O.2       1 UNK        -0.5000 
     67 C          -0.4295  -22.1248  -47.9031 C.2       11 UNK         0.5000 
     68 O          -0.5746  -23.0773  -48.6686 O.2       11 UNK        -0.5000 
     69 N          -1.3549  -21.1727  -47.7173 N.am      12 UNK        -0.5000 
     70 CA         -2.6560  -21.1349  -48.3849 C.3       12 UNK         0.1400 
     71 CB         -3.3784  -19.8317  -48.0129 C.3       12 UNK        -0.1800 
     72 C          -3.5312  -22.3628  -48.0713 C.2       12 UNK         0.5000 
     73 O          -4.1568  -22.9086  -48.9811 O.2       12 UNK        -0.5000 
     74 N          -3.5322  -22.7984  -46.8042 N.am      13 UNK        -0.5000 
     75 CA         -4.2164  -24.0062  -46.3457 C.3       13 UNK         0.1400 
     76 CB         -4.2094  -24.0557  -44.8104 C.3       13 UNK        -0.1800 
     77 C          -3.6112  -25.2903  -46.9411 C.2       13 UNK         0.5000 
     78 O          -4.3599  -26.1409  -47.4222 O.2       13 UNK        -0.5000 
     79 N          -2.2745  -25.3964  -46.9262 N.am      14 UNK        -0.5000 
     80 CA         -1.5210  -26.5299  -47.4687 C.3       14 UNK         0.1400 
     81 CB         -0.0442  -26.4059  -47.0638 C.3       14 UNK        -0.1800 
     82 C          -1.6536  -26.6694  -48.9963 C.2       14 UNK         0.5000 
     83 O          -1.7919  -27.7863  -49.4963 O.2       14 UNK        -0.5000 
     84 N          -1.6316  -25.5337  -49.7050 N.am      15 UNK        -0.5000 
     85 CA         -1.8127  -25.4481  -51.1550 C.3       15 UNK         0.1400 
     86 CB         -1.2798  -24.0912  -51.6315 C.3       15 UNK        -0.1800 
     87 C          -3.2763  -25.6282  -51.6055 C.2       15 UNK         0.5000 
     88 O          -3.5105  -25.8571  -52.7923 O.2       15 UNK        -0.5000 
     89 N          -4.2212  -25.5145  -50.6603 N.am      16 UNK        -0.5000 
     90 CA         -5.6736  -25.5493  -50.8362 C.3       16 UNK         0.1400 
     91 CB         -6.1466  -26.9230  -51.3560 C.3       16 UNK        -0.1800 
     92 C          -6.1731  -24.3697  -51.6915 C.2       16 UNK         0.5000 
     93 O          -6.9008  -24.5656  -52.6666 O.2       16 UNK        -0.5000 
     94 N          -5.7944  -23.1491  -51.2877 N.am      17 UNK        -0.5000 
     95 CA         -6.1196  -21.8715  -51.9377 C.3       17 UNK         0.1400 
     96 CB         -5.3072  -20.7573  -51.2624 C.3       17 UNK        -0.1800 
     97 C          -7.6228  -21.5075  -51.9702 C.2       17 UNK         0.5000 
     98 O          -7.9888  -20.4941  -52.5650 O.2       17 UNK        -0.5000 
     99 N          -8.4744  -22.3284  -51.3420 N.am      18 UNK        -0.5000 
    100 CA        -9.9270  -22.3012  -51.5084 C.3       18 UNK         0.1400 
    101 CB       -10.5727  -23.0983  -50.3646 C.3       18 UNK        -0.1800 
    102 C        -10.3728  -22.8630  -52.8761 C.2       18 UNK         0.5000 
    103 O        -11.4350  -22.4754  -53.3646 O.2       18 UNK        -0.5000 
    104 N         -9.5659  -23.7604  -53.4609 N.am      19 UNK        -0.5000 
    105 CA        -9.7943  -24.3845  -54.7639 C.3       19 UNK         0.1400 
    106 CB        -9.7805  -25.9128  -54.5978 C.3       19 UNK        -0.1800 
    107 C         -8.7307  -23.9418  -55.7827 C.2       19 UNK         0.5000 
    108 O         -9.0773  -23.6315  -56.9236 O.2       19 UNK        -0.5000 
    109 N         -7.4601  -23.9118  -55.3588 N.am      20 UNK        -0.5000 
    110 CA        -6.3261  -23.4186  -56.1403 C.3       20 UNK         0.1400 
    111 CB        -5.0291  -23.9509  -55.5086 C.3       20 UNK        -0.1800 
    112 C         -6.3072  -21.8792  -56.2043 C.2       20 UNK         0.5000 
    113 O         -6.9707  -21.2181  -55.4044 O.2       20 UNK        -0.5000 
    114 N         -5.5229  -21.3270  -57.1394 N.am      21 UNK        -0.5000 
    115 CA        -5.3345  -19.8801  -57.3012 C.3       21 UNK         0.1400 
    116 CB        -4.6152  -19.6111  -58.6320 C.3       21 UNK        -0.1800 
    117 C         -4.5661  -19.2312  -56.1309 C.2       21 UNK         0.5000 
    118 O         -4.8186  -18.0716  -55.8031 O.2       21 UNK        -0.5000 
    119 N         -3.6551  -19.9971  -55.5236 N.am      22 UNK        -0.5000 
    120 CA        -2.8526  -19.6573  -54.3459 C.3       22 UNK         0.1400 
    121 C         -2.2438  -20.9549  -53.7424 C.2       22 UNK         0.5000 
    122 N         -1.6340  -20.8781  -52.5688 N.am      22 UNK        -0.7600 
    123 O         -2.3145  -22.0326  -54.3298 O.2       22 UNK        -0.5000 
    124 C124       -1.7889  -18.5626  -54.6485 C.3       23 UNK        -0.0398 
    125 S125       -1.1656  -17.7338  -53.1438 S.3       23 UNK        -0.2404 
    126 C126        0.5954  -18.2086  -53.1951 C.3       23 UNK        -0.0205 
    127 H127        7.3766  -11.9072  -45.9251 H         1 UNK         0.0600 
    128 H128        7.1996  -12.7515  -47.4669 H         1 UNK         0.0600 
    129 H129        7.3561  -13.6734  -45.9681 H         1 UNK         0.0600 
    130 H130        5.0952  -12.6726  -48.2204 H         1 UNK         0.3000 
    131 H131        2.8516  -13.5586  -46.7906 H         1 UNK         0.0600 
    132 H132        1.5144  -12.6520  -48.7284 H         1 UNK         0.0800 
    133 H133        2.9370  -11.8396  -49.3222 H         1 UNK         0.0800 
    134 H134        0.7981  -14.8956  -49.3604 H         1 UNK         0.0800 
    135 H135        1.8409  -15.5321  -48.1072 H         1 UNK         0.0800 
    136 H136        0.6406  -16.0081  -51.5604 H         1 UNK         0.1150 
    137 H137        2.1524  -20.0101  -51.8675 H         1 UNK         0.1150 
    138 H138        3.1532  -17.5941  -48.4724 H         1 UNK         0.1150 
    139 H139        4.3414  -20.3238  -50.3475 H         1 UNK         0.0800 
    140 H140        4.2008  -19.7200  -48.7170 H         1 UNK         0.0800 
    141 H141        1.3378  -20.0159  -47.7768 H         1 UNK         0.0800 
    142 H142        2.6203  -20.7759  -46.8703 H         1 UNK         0.0800 
    143 H143        1.3432  -23.0018  -47.0950 H         1 UNK         0.0600 
    144 H144        0.8885  -20.9397  -45.2269 H         1 UNK         0.3000 
    145 H145       -1.3084  -22.7834  -43.0615 H         1 UNK         0.0600 
    146 H146        0.4603  -22.1086  -41.4710 H         1 UNK         0.0600 
    147 H147        1.0442  -23.4060  -42.5016 H         1 UNK         0.0600 
    148 H148        1.5645  -21.7520  -42.7973 H         1 UNK         0.0600 
    149 H149       -0.3480  -20.1266  -42.8687 H         1 UNK         0.3000 
    150 H150       -3.0053  -18.5558  -44.7319 H         1 UNK         0.0600 
    151 H151       -3.7929  -18.9534  -42.3882 H         1 UNK         0.0600 
    152 H152       -3.1527  -17.3302  -42.5936 H         1 UNK         0.0600 
    153 H153       -2.1894  -18.5599  -41.7782 H         1 UNK         0.0600 
    154 H154       -0.7603  -17.4062  -43.4607 H         1 UNK         0.3000 
    155 H155        1.4998  -17.5451  -46.2637 H         1 UNK         0.0600 
    156 H156        0.0793  -15.5121  -46.4347 H         1 UNK         0.0600 
    157 H157        1.5665  -15.1502  -45.5619 H         1 UNK         0.0600 
    158 H158        0.0521  -15.3476  -44.6877 H         1 UNK         0.0600 
    159 H159        1.9541  -16.6604  -43.6157 H         1 UNK         0.3000 
    160 H160        2.9845  -19.7654  -42.1704 H         1 UNK         0.0600 
    161 H161        4.4903  -17.2253  -42.9899 H         1 UNK         0.0600 
    162 H162        4.9828  -18.8803  -43.3083 H         1 UNK         0.0600 
    163 H163        4.9403  -18.2871  -41.6549 H         1 UNK         0.0600 
    164 H164        2.6755  -17.0440  -41.2352 H         1 UNK         0.3000 
    165 H165       -0.6063  -17.4941  -39.8977 H         1 UNK         0.0600 
    166 H166        0.5640  -16.8303  -37.8176 H         1 UNK         0.0600 
    167 H167        0.9293  -18.5038  -38.2050 H         1 UNK         0.0600 
    168 H168        2.1247  -17.2524  -38.5228 H         1 UNK         0.0600 
    169 H169        1.2476  -15.3153  -39.8053 H         1 UNK         0.3000 
    170 H170        0.2805  -13.7565  -42.8539 H         1 UNK         0.0600 
    171 H171       -1.5394  -13.1399  -41.2486 H         1 UNK         0.0600 
    172 H172       -0.3525  -12.9754  -39.9599 H         1 UNK         0.0600 
    173 H173       -0.3114  -11.8903  -41.3489 H         1 UNK         0.0600 
    174 H174        1.9841  -12.7458  -40.9094 H         1 UNK         0.3000 
    175 H175        4.3021  -13.4462  -40.5602 H         1 UNK         0.0600 
    176 H176        5.4454  -14.6898  -43.1238 H         1 UNK         0.0600 
    177 H177        6.3986  -14.0169  -41.8047 H         1 UNK         0.0600 
    178 H178        5.4025  -15.4371  -41.5297 H         1 UNK         0.0600 
    179 H179        4.4592  -12.3681  -43.3496 H         1 UNK         0.3000 
    180 H180        3.8350   -9.0316  -42.1713 H         1 UNK         0.0600 
    181 H181        5.8976  -10.4100  -43.9776 H         1 UNK         0.0600 
    182 H182        6.2712   -9.3781  -42.6028 H         1 UNK         0.0600 
    183 H183        5.4650   -8.7023  -44.0102 H         1 UNK         0.0600 
    184 H184        3.5350  -10.3223  -44.7308 H         1 UNK         0.3000 
    185 H185        0.1447  -11.2499  -44.3730 H         1 UNK         0.0600 
    186 H186       -0.2019   -8.8729  -44.8796 H         1 UNK         0.0600 
    187 H187        1.1733   -8.8481  -45.9692 H         1 UNK         0.0600 
    188 H188       -0.2534   -9.8059  -46.3670 H         1 UNK         0.0600 
    189 H189        1.2857  -12.5931  -45.6492 H         1 UNK         0.3000 
    190 H190       -1.1498  -20.4037  -47.0840 H         1 UNK         0.3000 
    191 H191       -2.4733  -21.1287  -49.4612 H         1 UNK         0.0600 
    192 H192       -3.5335  -19.7514  -46.9371 H         1 UNK         0.0600 
    193 H193       -4.3567  -19.7694  -48.4878 H         1 UNK         0.0600 
    194 H194       -2.8058  -18.9609  -48.3326 H         1 UNK         0.0600 
    195 H195       -3.0381  -22.2582  -46.0993 H         1 UNK         0.3000 
    196 H196       -5.2558  -23.9457  -46.6754 H         1 UNK         0.0600 
    197 H197       -4.7263  -24.9439  -44.4452 H         1 UNK         0.0600 
    198 H198       -4.7150  -23.1876  -44.3871 H         1 UNK         0.0600 
    199 H199       -3.1951  -24.0774  -44.4112 H         1 UNK         0.0600 
    200 H200       -1.7279  -24.6634  -46.4811 H         1 UNK         0.3000 
    201 H201       -1.9200  -27.4409  -47.0181 H         1 UNK         0.0600 
    202 H202        0.0676  -26.4032  -45.9795 H         1 UNK         0.0600 
    203 H203        0.4020  -25.4877  -47.4477 H         1 UNK         0.0600 
    204 H204        0.5398  -27.2426  -47.4491 H         1 UNK         0.0600 
    205 H205       -1.4439  -24.6575  -49.2220 H         1 UNK         0.3000 
    206 H206       -1.2211  -26.2347  -51.6275 H         1 UNK         0.0600 
    207 H207       -0.2320  -23.9583  -51.3610 H         1 UNK         0.0600 
    208 H208       -1.3513  -24.0039  -52.7161 H         1 UNK         0.0600 
    209 H209       -1.8508  -23.2740  -51.1897 H         1 UNK         0.0600 
    210 H210       -3.9079  -25.3021  -49.7224 H         1 UNK         0.3000 
    211 H211       -6.1015  -25.4117  -49.8422 H         1 UNK         0.0600 
    212 H212       -5.8062  -27.1160  -52.3736 H         1 UNK         0.0600 
    213 H213       -7.2357  -26.9807  -51.3631 H         1 UNK         0.0600 
    214 H214       -5.7822  -27.7304  -50.7208 H         1 UNK         0.0600 
    215 H215       -5.1981  -23.0851  -50.4635 H         1 UNK         0.3000 
    216 H216       -5.7913  -21.9425  -52.9756 H         1 UNK         0.0600 
    217 H217       -5.4355  -19.8058  -51.7798 H         1 UNK         0.0600 
    218 H218       -4.2421  -20.9868  -51.2643 H         1 UNK         0.0600 
    219 H219       -5.6220  -20.6165  -50.2288 H         1 UNK         0.0600 
    220 H220       -8.0889  -23.1179  -50.8469 H         1 UNK         0.3000 
    221 H221      -10.2700  -21.2665  -51.4420 H         1 UNK         0.0600 
    222 H222      -10.2617  -24.1438  -50.3760 H         1 UNK         0.0600 
    223 H223      -10.3089  -22.6791  -49.3935 H         1 UNK         0.0600 
    224 H224      -11.6606  -23.0787  -50.4415 H         1 UNK         0.0600 
    225 H225       -8.6900  -23.9983  -53.0059 H         1 UNK         0.3000 
    226 H226      -10.7699  -24.0978  -55.1616 H         1 UNK         0.0600 
    227 H227      -10.5747  -26.2412  -53.9272 H         1 UNK         0.0600 
    228 H228       -9.9355  -26.4118  -55.5552 H         1 UNK         0.0600 
    229 H229       -8.8323  -26.2670  -54.1906 H         1 UNK         0.0600 
    230 H230       -7.2555  -24.1746  -54.3980 H         1 UNK         0.3000 
    231 H231       -6.4059  -23.8070  -57.1576 H         1 UNK         0.0600 
    232 H232       -5.0377  -25.0392  -55.4446 H         1 UNK         0.0600 
    233 H233       -4.8785  -23.5634  -54.5006 H         1 UNK         0.0600 
    234 H234       -4.1559  -23.6691  -56.0978 H         1 UNK         0.0600 
    235 H235       -5.0053  -21.9246  -57.7679 H         1 UNK         0.3000 
    236 H236       -6.3202  -19.4121  -57.3473 H         1 UNK         0.0600 
    237 H237       -4.4807  -18.5406  -58.7932 H         1 UNK         0.0600 
    238 H238       -3.6276  -20.0733  -58.6573 H         1 UNK         0.0600 
    239 H239       -5.1888  -19.9955  -59.4756 H         1 UNK         0.0600 
    240 H240       -3.5291  -20.9525  -55.8326 H         1 UNK         0.3000 
    241 H241       -3.5528  -19.2732  -53.6017 H         1 UNK         0.0600 
    242 H242       -1.5242  -19.9906  -52.1017 H         1 UNK         0.3800 
    243 H243       -1.2204  -21.7091  -52.1802 H         1 UNK         0.3800 
    244 H244       -0.9668  -18.9753  -55.2351 H         1 UNK         0.0800 
    245 H245       -2.2198  -17.7765  -55.2687 H         1 UNK         0.0800 
    246 H246        1.1070  -17.6058  -53.9465 H         1 UNK         0.0800 
    247 H247        0.6749  -19.2465  -53.5224 H         1 UNK         0.0800 
@<TRIPOS>BOND
     1    1    2 1    
     2    1  127 1    
     3    1  128 1    
     4    1  129 1    
     5    2    3 2    
     6    2    4 am   BACKBONE|DICT|INTERRES
     7    4    5 1    
     8    4  130 1    
     9    5    6 1    
    10    5   65 1    
    11    5  131 1    
    12    6    7 1    
    13    6  132 1    
    14    6  133 1    
    15    7    8 1    
    16    8    9 1    
    17    8  134 1    
    18    8  135 1    
    19    9   10 ar   
    20    9   14 ar   
    21   10   11 ar   
    22   10  136 1    
    23   11   12 ar   
    24   11  126 1    
    25   12   13 ar   
    26   12  137 1    
    27   13   14 ar   
    28   13   15 1    
    29   14  138 1    
    30   15   16 1    
    31   15  139 1    
    32   15  140 1    
    33   16   17 1    
    34   17   18 1    
    35   17  141 1    
    36   17  142 1    
    37   18   19 1    
    38   18   67 1    
    39   18  143 1    
    40   19   20 am   BACKBONE|DICT|INTERRES
    41   19  144 1    
    42   20   21 2    
    43   20   22 1    
    44   22   23 1    
    45   22   24 1    
    46   22  145 1    
    47   23  146 1    
    48   23  147 1    
    49   23  148 1    
    50   24   25 am   BACKBONE|DICT|INTERRES
    51   24  149 1    
    52   25   26 2    
    53   25   27 1    
    54   27   28 1    
    55   27   29 1    
    56   27  150 1    
    57   28  151 1    
    58   28  152 1    
    59   28  153 1    
    60   29   30 am   BACKBONE|DICT|INTERRES
    61   29  154 1    
    62   30   31 2    
    63   30   32 1    
    64   32   33 1    
    65   32   34 1    
    66   32  155 1    
    67   33  156 1    
    68   33  157 1    
    69   33  158 1    
    70   34   35 am   BACKBONE|DICT|INTERRES
    71   34  159 1    
    72   35   36 2    
    73   35   37 1    
    74   37   38 1    
    75   37   39 1    
    76   37  160 1    
    77   38  161 1    
    78   38  162 1    
    79   38  163 1    
    80   39   40 am   BACKBONE|DICT|INTERRES
    81   39  164 1    
    82   40   41 2    
    83   40   42 1    
    84   42   43 1    
    85   42   44 1    
    86   42  165 1    
    87   43  166 1    
    88   43  167 1    
    89   43  168 1    
    90   44   45 am   BACKBONE|DICT|INTERRES
    91   44  169 1    
    92   45   46 2    
    93   45   47 1    
    94   47   48 1    
    95   47   49 1    
    96   47  170 1    
    97   48  171 1    
    98   48  172 1    
    99   48  173 1    
   100   49   50 am   BACKBONE|DICT|INTERRES
   101   49  174 1    
   102   50   51 2    
   103   50   52 1    
   104   52   53 1    
   105   52   54 1    
   106   52  175 1    
   107   53  176 1    
   108   53  177 1    
   109   53  178 1    
   110   54   55 am   BACKBONE|DICT|INTERRES
   111   54  179 1    
   112   55   56 2    
   113   55   57 1    
   114   57   58 1    
   115   57   59 1    
   116   57  180 1    
   117   58  181 1    
   118   58  182 1    
   119   58  183 1    
   120   59   60 am   BACKBONE|DICT|INTERRES
   121   59  184 1    
   122   60   61 2    
   123   60   62 1    
   124   62   63 1    
   125   62   64 1    
   126   62  185 1    
   127   63  186 1    
   128   63  187 1    
   129   63  188 1    
   130   64   65 am   BACKBONE|DICT|INTERRES
   131   64  189 1    
   132   65   66 2    
   133   67   68 2    
   134   67   69 am   BACKBONE|DICT|INTERRES
   135   69   70 1    
   136   69  190 1    
   137   70   71 1    
   138   70   72 1    
   139   70  191 1    
   140   71  192 1    
   141   71  193 1    
   142   71  194 1    
   143   72   73 2    
   144   72   74 am   BACKBONE|DICT|INTERRES
   145   74   75 1    
   146   74  195 1    
   147   75   76 1    
   148   75   77 1    
   149   75  196 1    
   150   76  197 1    
   151   76  198 1    
   152   76  199 1    
   153   77   78 2    
   154   77   79 am   BACKBONE|DICT|INTERRES
   155   79   80 1    
   156   79  200 1    
   157   80   81 1    
   158   80   82 1    
   159   80  201 1    
   160   81  202 1    
   161   81  203 1    
   162   81  204 1    
   163   82   83 2    
   164   82   84 am   BACKBONE|DICT|INTERRES
   165   84   85 1    
   166   84  205 1    
   167   85   86 1    
   168   85   87 1    
   169   85  206 1    
   170   86  207 1    
   171   86  208 1    
   172   86  209 1    
   173   87   88 2    
   174   87   89 am   BACKBONE|DICT|INTERRES
   175   89   90 1    
   176   89  210 1    
   177   90   91 1    
   178   90   92 1    
   179   90  211 1    
   180   91  212 1    
   181   91  213 1    
   182   91  214 1    
   183   92   93 2    
   184   92   94 am   BACKBONE|DICT|INTERRES
   185   94   95 1    
   186   94  215 1    
   187   95   96 1    
   188   95   97 1    
   189   95  216 1    
   190   96  217 1    
   191   96  218 1    
   192   96  219 1    
   193   97   98 2    
   194   97   99 am   BACKBONE|DICT|INTERRES
   195   99  100 1    
   196   99  220 1    
   197  100  101 1    
   198  100  102 1    
   199  100  221 1    
   200  101  222 1    
   201  101  223 1    
   202  101  224 1    
   203  102  103 2    
   204  102  104 am   BACKBONE|DICT|INTERRES
   205  104  105 1    
   206  104  225 1    
   207  105  106 1    
   208  105  107 1    
   209  105  226 1    
   210  106  227 1    
   211  106  228 1    
   212  106  229 1    
   213  107  108 2    
   214  107  109 am   BACKBONE|DICT|INTERRES
   215  109  110 1    
   216  109  230 1    
   217  110  111 1    
   218  110  112 1    
   219  110  231 1    
   220  111  232 1    
   221  111  233 1    
   222  111  234 1    
   223  112  113 2    
   224  112  114 am   BACKBONE|DICT|INTERRES
   225  114  115 1    
   226  114  235 1    
   227  115  116 1    
   228  115  117 1    
   229  115  236 1    
   230  116  237 1    
   231  116  238 1    
   232  116  239 1    
   233  117  118 2    
   234  117  119 am   BACKBONE|DICT|INTERRES
   235  119  120 1    
   236  119  240 1    
   237  120  121 1    
   238  120  124 1    
   239  120  241 1    
   240  121  122 am   BACKBONE|DICT|INTERRES
   241  121  123 2    
   242  122  242 1    
   243  122  243 1    
   244  124  125 1    
   245  124  244 1    
   246  124  245 1    
   247  125  126 1    
   248  126  246 1    
   249  126  247 1    
@<TRIPOS>SUBSTRUCTURE
     1 UNK         1 GROUP             0       ****    0 ROOT    
