@<TRIPOS>MOLECULE
3R540
247   249    1
SMALL
USER_CHARGES


@<TRIPOS>ATOM
      1 CA          7.0659  -11.9466  -46.4168 C.3       0 UNK        -0.1800 
      2 C           5.8809  -11.9265  -45.4525 C.2       0 UNK         0.5000 
      3 O           5.8886  -11.1408  -44.5073 O.2       0 UNK        -0.5000 
      4 N           4.8398  -12.7516  -45.6411 N.am      1 UNK        -0.5000 
      5 CA          4.6921  -13.7799  -46.6810 C.3       1 UNK         0.1400 
      6 C6          3.2245  -14.2657  -46.7704 C.3       23 UNK        -0.0398 
      7 S7          2.8332  -15.0762  -48.3549 S.3       23 UNK        -0.2404 
      8 C8          1.0113  -14.9457  -48.3645 C.3       23 UNK        -0.0205 
      9 C9          0.2918  -15.7426  -49.4550 C.ar      23 UNK        -0.0193 
     10 C10        -1.0750  -15.5147  -49.6531 C.ar      23 UNK        -0.1150 
     11 C11        -1.7861  -16.2194  -50.6300 C.ar      23 UNK        -0.0193 
     12 C12        -1.1197  -17.1580  -51.4178 C.ar      23 UNK        -0.1150 
     13 C13         0.2402  -17.4062  -51.2297 C.ar      23 UNK        -0.0193 
     14 C14         0.9383  -16.7014  -50.2475 C.ar      23 UNK        -0.1150 
     15 C15         0.9609  -18.4273  -52.0951 C.3       23 UNK        -0.0205 
     16 S16         1.2885  -19.9736  -51.1954 S.3       23 UNK        -0.2404 
     17 C17        -0.3982  -20.6113  -50.9233 C.3       23 UNK        -0.0398 
     18 CA         -0.6670  -20.9325  -49.4373 C.3       11 UNK         0.1400 
     19 N          -0.5282  -19.7730  -48.5470 N.am      11 UNK        -0.5000 
     20 C          -0.3316  -19.8912  -47.2267 C.2       10 UNK         0.5000 
     21 O          -0.2680  -20.9735  -46.6457 O.2       10 UNK        -0.5000 
     22 CA         -0.2394  -18.5967  -46.4044 C.3       10 UNK         0.1400 
     23 CB          1.1748  -18.0108  -46.4808 C.3       10 UNK        -0.1800 
     24 N          -1.2271  -17.5761  -46.7578 N.am      10 UNK        -0.5000 
     25 C          -2.5530  -17.7514  -46.6839 C.2       9 UNK         0.5000 
     26 O          -3.0824  -18.8441  -46.4735 O.2       9 UNK        -0.5000 
     27 CA         -3.4110  -16.4843  -46.8208 C.3       9 UNK         0.1400 
     28 CB         -4.9157  -16.7466  -46.6047 C.3       9 UNK        -0.1800 
     29 N          -2.9383  -15.4639  -45.8856 N.am      9 UNK        -0.5000 
     30 C          -3.1474  -14.1473  -46.0292 C.2       8 UNK         0.5000 
     31 O          -3.6988  -13.6511  -47.0123 O.2       8 UNK        -0.5000 
     32 CA         -2.6830  -13.2180  -44.8878 C.3       8 UNK         0.1400 
     33 CB         -3.8522  -12.9156  -43.9379 C.3       8 UNK        -0.1800 
     34 N          -1.5726  -13.7635  -44.1088 N.am      8 UNK        -0.5000 
     35 C          -0.3186  -13.8850  -44.5597 C.2       7 UNK         0.5000 
     36 O           0.0510  -13.4480  -45.6482 O.2       7 UNK        -0.5000 
     37 CA          0.6975  -14.6270  -43.6670 C.3       7 UNK         0.1400 
     38 CB          1.7362  -13.6493  -43.0970 C.3       7 UNK        -0.1800 
     39 N           0.1317  -15.4079  -42.5627 N.am      7 UNK        -0.5000 
     40 C          -0.7228  -16.4334  -42.6664 C.2       6 UNK         0.5000 
     41 O          -1.2574  -16.7683  -43.7239 O.2       6 UNK        -0.5000 
     42 CA         -0.9939  -17.2204  -41.3685 C.3       6 UNK         0.1400 
     43 CB         -2.0685  -18.3049  -41.5522 C.3       6 UNK        -0.1800 
     44 N           0.2336  -17.8563  -40.8909 N.am      6 UNK        -0.5000 
     45 C           1.2219  -17.2477  -40.2211 C.2       5 UNK         0.5000 
     46 O           1.1684  -16.0756  -39.8456 O.2       5 UNK        -0.5000 
     47 CA          2.4993  -18.0741  -39.9739 C.3       5 UNK         0.1400 
     48 CB          2.4209  -18.7968  -38.6208 C.3       5 UNK        -0.1800 
     49 N           2.7591  -19.0558  -41.0329 N.am      5 UNK        -0.5000 
     50 C           3.0891  -18.7403  -42.2923 C.2       4 UNK         0.5000 
     51 O           3.2491  -17.5829  -42.6934 O.2       4 UNK        -0.5000 
     52 CA          3.2362  -19.9132  -43.2721 C.3       4 UNK         0.1400 
     53 CB          1.8585  -20.4849  -43.6583 C.3       4 UNK        -0.1800 
     54 N           3.9363  -19.4196  -44.4510 N.am      4 UNK        -0.5000 
     55 C           4.6076  -20.1533  -45.3442 C.2       3 UNK         0.5000 
     56 O           4.6335  -21.3845  -45.3375 O.2       3 UNK        -0.5000 
     57 CA          5.4123  -19.3832  -46.4127 C.3       3 UNK         0.1400 
     58 CB          4.6291  -19.2880  -47.7323 C.3       3 UNK        -0.1800 
     59 N           5.8140  -18.0342  -46.0007 N.am      3 UNK        -0.5000 
     60 C           6.6678  -17.7417  -45.0108 C.2       2 UNK         0.5000 
     61 O           7.2159  -18.6017  -44.3202 O.2       2 UNK        -0.5000 
     62 CA          6.9589  -16.2540  -44.7103 C.3       2 UNK         0.1400 
     63 CB          8.3824  -15.8705  -45.1604 C.3       2 UNK        -0.1800 
     64 N           5.9758  -15.2777  -45.2093 N.am      2 UNK        -0.5000 
     65 C           5.6694  -14.9605  -46.4772 C.2       1 UNK         0.5000 
     66 O           6.1366  -15.5379  -47.4578 O.2       1 UNK        -0.5000 
     67 C          -2.0251  -21.6428  -49.2728 C.2       11 UNK         0.5000 
     68 O          -2.1217  -22.8200  -49.6205 O.2       11 UNK        -0.5000 
     69 N          -3.0403  -20.9524  -48.7355 N.am      12 UNK        -0.5000 
     70 CA         -4.3151  -21.5639  -48.3669 C.3       12 UNK         0.1400 
     71 CB         -5.4164  -20.4998  -48.2977 C.3       12 UNK        -0.1800 
     72 C          -4.1893  -22.3223  -47.0378 C.2       12 UNK         0.5000 
     73 O          -4.6535  -23.4575  -46.9441 O.2       12 UNK        -0.5000 
     74 N          -3.5127  -21.7071  -46.0573 N.am      13 UNK        -0.5000 
     75 CA         -3.2057  -22.2938  -44.7510 C.3       13 UNK         0.1400 
     76 CB         -2.5699  -21.2231  -43.8535 C.3       13 UNK        -0.1800 
     77 C          -2.3021  -23.5382  -44.8483 C.2       13 UNK         0.5000 
     78 O          -2.5374  -24.5194  -44.1427 O.2       13 UNK        -0.5000 
     79 N          -1.3146  -23.4906  -45.7525 N.am      14 UNK        -0.5000 
     80 CA         -0.4286  -24.6063  -46.0915 C.3       14 UNK         0.1400 
     81 CB          0.8191  -24.0464  -46.7938 C.3       14 UNK        -0.1800 
     82 C          -1.0970  -25.6833  -46.9732 C.2       14 UNK         0.5000 
     83 O          -0.5089  -26.7496  -47.1563 O.2       14 UNK        -0.5000 
     84 N          -2.2876  -25.3846  -47.5182 N.am      15 UNK        -0.5000 
     85 CA         -3.0796  -26.2014  -48.4463 C.3       15 UNK         0.1400 
     86 CB         -3.5816  -27.4883  -47.7603 C.3       15 UNK        -0.1800 
     87 C          -2.3637  -26.4670  -49.7892 C.2       15 UNK         0.5000 
     88 O          -2.5675  -27.5130  -50.4076 O.2       15 UNK        -0.5000 
     89 N          -1.5414  -25.5026  -50.2171 N.am      16 UNK        -0.5000 
     90 CA         -0.7814  -25.5257  -51.4634 C.3       16 UNK         0.1400 
     91 CB          0.5458  -24.7822  -51.2446 C.3       16 UNK        -0.1800 
     92 C          -1.5677  -24.8929  -52.6246 C.2       16 UNK         0.5000 
     93 O          -1.4058  -25.3263  -53.7659 O.2       16 UNK        -0.5000 
     94 N          -2.4024  -23.8892  -52.3210 N.am      17 UNK        -0.5000 
     95 CA         -3.2115  -23.1533  -53.2947 C.3       17 UNK         0.1400 
     96 CB         -2.4005  -21.9848  -53.8843 C.3       17 UNK        -0.1800 
     97 C          -4.5496  -22.7033  -52.6829 C.2       17 UNK         0.5000 
     98 O          -5.0688  -21.6428  -53.0453 O.2       17 UNK        -0.5000 
     99 N          -5.0928  -23.5243  -51.7730 N.am      18 UNK        -0.5000 
    100 CA        -6.3981  -23.3325  -51.1418 C.3       18 UNK         0.1400 
    101 CB        -6.6153  -24.4161  -50.0743 C.3       18 UNK        -0.1800 
    102 C         -7.5321  -23.3471  -52.1812 C.2       18 UNK         0.5000 
    103 O         -7.6790  -24.3310  -52.9087 O.2       18 UNK        -0.5000 
    104 N         -8.2719  -22.2342  -52.2448 N.am      19 UNK        -0.5000 
    105 CA        -9.3409  -21.9039  -53.1925 C.3       19 UNK         0.1400 
    106 CB       -10.4909  -22.9308  -53.1299 C.3       19 UNK        -0.1800 
    107 C         -8.8498  -21.6523  -54.6352 C.2       19 UNK         0.5000 
    108 O         -9.6826  -21.4838  -55.5276 O.2       19 UNK        -0.5000 
    109 N         -7.5268  -21.5994  -54.8430 N.am      20 UNK        -0.5000 
    110 CA        -6.8928  -21.2796  -56.1197 C.3       20 UNK         0.1400 
    111 CB        -5.8265  -22.3367  -56.4518 C.3       20 UNK        -0.1800 
    112 C         -6.2876  -19.8704  -56.0609 C.2       20 UNK         0.5000 
    113 O         -6.6157  -19.0371  -56.9065 O.2       20 UNK        -0.5000 
    114 N         -5.4381  -19.6208  -55.0550 N.am      21 UNK        -0.5000 
    115 CA        -4.8183  -18.3178  -54.8110 C.3       21 UNK         0.1400 
    116 CB        -3.3735  -18.5219  -54.3327 C.3       21 UNK        -0.1800 
    117 C         -5.6088  -17.5048  -53.7745 C.2       21 UNK         0.5000 
    118 O         -5.7452  -16.2908  -53.9301 O.2       21 UNK        -0.5000 
    119 N         -6.1117  -18.1845  -52.7395 N.am      22 UNK        -0.5000 
    120 CA        -6.8378  -17.6066  -51.6031 C.3       22 UNK         0.1400 
    121 C         -7.5704  -18.7060  -50.7889 C.2       22 UNK         0.5000 
    122 N         -8.4131  -18.3322  -49.8363 N.am      22 UNK        -0.7600 
    123 O         -7.3986  -19.9011  -51.0171 O.2       22 UNK        -0.5000 
    124 C124       -5.9645  -16.6669  -50.7166 C.3       23 UNK        -0.0398 
    125 S125       -4.3109  -17.3193  -50.2767 S.3       23 UNK        -0.2404 
    126 C126       -3.2638  -15.9511  -50.8665 C.3       23 UNK        -0.0205 
    127 H127        6.7387  -11.9193  -47.4556 H         1 UNK         0.0600 
    128 H128        7.6759  -12.8360  -46.2611 H         1 UNK         0.0600 
    129 H129        7.7018  -11.0763  -46.2531 H         1 UNK         0.0600 
    130 H130        4.0703  -12.6832  -44.9919 H         1 UNK         0.3000 
    131 H131        4.9394  -13.3123  -47.6358 H         1 UNK         0.0600 
    132 H132        2.9762  -14.9406  -45.9499 H         1 UNK         0.0800 
    133 H133        2.5542  -13.4103  -46.6739 H         1 UNK         0.0800 
    134 H134        0.7425  -13.8919  -48.4532 H         1 UNK         0.0800 
    135 H135        0.6364  -15.2811  -47.3991 H         1 UNK         0.0800 
    136 H136       -1.5857  -14.7776  -49.0484 H         1 UNK         0.1150 
    137 H137       -1.6648  -17.6973  -52.1773 H         1 UNK         0.1150 
    138 H138        1.9883  -16.9152  -50.1139 H         1 UNK         0.1150 
    139 H139        0.3880  -18.6471  -52.9976 H         1 UNK         0.0800 
    140 H140        1.9099  -18.0077  -52.4319 H         1 UNK         0.0800 
    141 H141       -0.4918  -21.5143  -51.5283 H         1 UNK         0.0800 
    142 H142       -1.1430  -19.9140  -51.3059 H         1 UNK         0.0800 
    143 H143        0.0884  -21.6623  -49.1380 H         1 UNK         0.0600 
    144 H144       -0.5641  -18.8556  -48.9687 H         1 UNK         0.3000 
    145 H145       -0.4364  -18.8651  -45.3654 H         1 UNK         0.0600 
    146 H146        1.4280  -17.7010  -47.4938 H         1 UNK         0.0600 
    147 H147        1.2894  -17.1543  -45.8182 H         1 UNK         0.0600 
    148 H148        1.9102  -18.7542  -46.1782 H         1 UNK         0.0600 
    149 H149       -0.8777  -16.6465  -46.9282 H         1 UNK         0.3000 
    150 H150       -3.2689  -16.1197  -47.8376 H         1 UNK         0.0600 
    151 H151       -5.2913  -17.4791  -47.3188 H         1 UNK         0.0600 
    152 H152       -5.5036  -15.8395  -46.7435 H         1 UNK         0.0600 
    153 H153       -5.1157  -17.1269  -45.6024 H         1 UNK         0.0600 
    154 H154       -2.4393  -15.8108  -45.0702 H         1 UNK         0.3000 
    155 H155       -2.3580  -12.2780  -45.3389 H         1 UNK         0.0600 
    156 H156       -4.6926  -12.4791  -44.4794 H         1 UNK         0.0600 
    157 H157       -3.5599  -12.2036  -43.1658 H         1 UNK         0.0600 
    158 H158       -4.2136  -13.8187  -43.4443 H         1 UNK         0.0600 
    159 H159       -1.7936  -14.1505  -43.2037 H         1 UNK         0.3000 
    160 H160        1.2212  -15.3318  -44.3136 H         1 UNK         0.0600 
    161 H161        1.2852  -12.9586  -42.3835 H         1 UNK         0.0600 
    162 H162        2.1928  -13.0521  -43.8867 H         1 UNK         0.0600 
    163 H163        2.5395  -14.1824  -42.5875 H         1 UNK         0.0600 
    164 H164        0.5311  -15.2372  -41.6463 H         1 UNK         0.3000 
    165 H165       -1.3528  -16.5128  -40.6183 H         1 UNK         0.0600 
    166 H166       -2.2844  -18.8111  -40.6113 H         1 UNK         0.0600 
    167 H167       -3.0041  -17.8760  -41.9136 H         1 UNK         0.0600 
    168 H168       -1.7502  -19.0575  -42.2727 H         1 UNK         0.0600 
    169 H169        0.3814  -18.8110  -41.1809 H         1 UNK         0.3000 
    170 H170        3.3406  -17.3783  -39.9418 H         1 UNK         0.0600 
    171 H171        2.2510  -18.0880  -37.8091 H         1 UNK         0.0600 
    172 H172        1.6077  -19.5233  -38.5976 H         1 UNK         0.0600 
    173 H173        3.3494  -19.3239  -38.4005 H         1 UNK         0.0600 
    174 H174        2.6568  -20.0282  -40.7795 H         1 UNK         0.3000 
    175 H175        3.8418  -20.6897  -42.8003 H         1 UNK         0.0600 
    176 H176        1.1816  -19.6999  -43.9906 H         1 UNK         0.0600 
    177 H177        1.9336  -21.2226  -44.4575 H         1 UNK         0.0600 
    178 H178        1.3877  -20.9792  -42.8082 H         1 UNK         0.0600 
    179 H179        4.0005  -18.4098  -44.4903 H         1 UNK         0.3000 
    180 H180        6.3216  -19.9577  -46.6011 H         1 UNK         0.0600 
    181 H181        3.7724  -18.6205  -47.6480 H         1 UNK         0.0600 
    182 H182        4.2577  -20.2651  -48.0444 H         1 UNK         0.0600 
    183 H183        5.2620  -18.9105  -48.5356 H         1 UNK         0.0600 
    184 H184        5.4894  -17.2646  -46.5732 H         1 UNK         0.3000 
    185 H185        6.9281  -16.1625  -43.6235 H         1 UNK         0.0600 
    186 H186        8.5039  -15.9507  -46.2409 H         1 UNK         0.0600 
    187 H187        8.6263  -14.8489  -44.8692 H         1 UNK         0.0600 
    188 H188        9.1261  -16.5232  -44.7015 H         1 UNK         0.0600 
    189 H189        5.5146  -14.7453  -44.4847 H         1 UNK         0.3000 
    190 H190       -2.8853  -20.0032  -48.4233 H         1 UNK         0.3000 
    191 H191       -4.5895  -22.2796  -49.1417 H         1 UNK         0.0600 
    192 H192       -5.4191  -19.8874  -49.1972 H         1 UNK         0.0600 
    193 H193       -6.3996  -20.9639  -48.2147 H         1 UNK         0.0600 
    194 H194       -5.2957  -19.8376  -47.4417 H         1 UNK         0.0600 
    195 H195       -3.1993  -20.7523  -46.2117 H         1 UNK         0.3000 
    196 H196       -4.1494  -22.6029  -44.2971 H         1 UNK         0.0600 
    197 H197       -2.3742  -21.6152  -42.8549 H         1 UNK         0.0600 
    198 H198       -3.2307  -20.3628  -43.7439 H         1 UNK         0.0600 
    199 H199       -1.6226  -20.8661  -44.2583 H         1 UNK         0.0600 
    200 H200       -1.1290  -22.6076  -46.2223 H         1 UNK         0.3000 
    201 H201       -0.1112  -25.0904  -45.1658 H         1 UNK         0.0600 
    202 H202        1.3260  -23.3079  -46.1719 H         1 UNK         0.0600 
    203 H203        0.5650  -23.5699  -47.7407 H         1 UNK         0.0600 
    204 H204        1.5383  -24.8379  -47.0080 H         1 UNK         0.0600 
    205 H205       -2.6993  -24.4915  -47.2809 H         1 UNK         0.3000 
    206 H206       -3.9560  -25.6028  -48.6930 H         1 UNK         0.0600 
    207 H207       -2.7654  -28.1770  -47.5410 H         1 UNK         0.0600 
    208 H208       -4.0906  -27.2608  -46.8235 H         1 UNK         0.0600 
    209 H209       -4.2938  -28.0173  -48.3945 H         1 UNK         0.0600 
    210 H210       -1.5076  -24.6382  -49.6863 H         1 UNK         0.3000 
    211 H211       -0.5518  -26.5585  -51.7342 H         1 UNK         0.0600 
    212 H212        1.1468  -24.7776  -52.1548 H         1 UNK         0.0600 
    213 H213        1.1391  -25.2608  -50.4653 H         1 UNK         0.0600 
    214 H214        0.3855  -23.7448  -50.9505 H         1 UNK         0.0600 
    215 H215       -2.4623  -23.5777  -51.3552 H         1 UNK         0.3000 
    216 H216       -3.4772  -23.8250  -54.1136 H         1 UNK         0.0600 
    217 H217       -2.9337  -21.5200  -54.7136 H         1 UNK         0.0600 
    218 H218       -1.4380  -22.3199  -54.2707 H         1 UNK         0.0600 
    219 H219       -2.2147  -21.2123  -53.1400 H         1 UNK         0.0600 
    220 H220       -4.6250  -24.3974  -51.5825 H         1 UNK         0.3000 
    221 H221       -6.3900  -22.3617  -50.6437 H         1 UNK         0.0600 
    222 H222       -6.5692  -25.4190  -50.5007 H         1 UNK         0.0600 
    223 H223       -5.8678  -24.3510  -49.2854 H         1 UNK         0.0600 
    224 H224       -7.5915  -24.3050  -49.6007 H         1 UNK         0.0600 
    225 H225       -7.9954  -21.4535  -51.6477 H         1 UNK         0.3000 
    226 H226       -9.7419  -20.9488  -52.8504 H         1 UNK         0.0600 
    227 H227      -10.8195  -23.0939  -52.1036 H         1 UNK         0.0600 
    228 H228      -11.3564  -22.5818  -53.6942 H         1 UNK         0.0600 
    229 H229      -10.2005  -23.8946  -53.5484 H         1 UNK         0.0600 
    230 H230       -6.9091  -21.7189  -54.0492 H         1 UNK         0.3000 
    231 H231       -7.6273  -21.2911  -56.9277 H         1 UNK         0.0600 
    232 H232       -5.0426  -22.3826  -55.6978 H         1 UNK         0.0600 
    233 H233       -5.3484  -22.1191  -57.4076 H         1 UNK         0.0600 
    234 H234       -6.2712  -23.3290  -56.5290 H         1 UNK         0.0600 
    235 H235       -5.2353  -20.3554  -54.3823 H         1 UNK         0.3000 
    236 H236       -4.7821  -17.7392  -55.7365 H         1 UNK         0.0600 
    237 H237       -2.7887  -19.0765  -55.0662 H         1 UNK         0.0600 
    238 H238       -2.8788  -17.5614  -54.1851 H         1 UNK         0.0600 
    239 H239       -3.3355  -19.0637  -53.3869 H         1 UNK         0.0600 
    240 H240       -5.9770  -19.1853  -52.6762 H         1 UNK         0.3000 
    241 H241       -7.6399  -17.0039  -52.0329 H         1 UNK         0.0600 
    242 H242       -8.8930  -19.0438  -49.3088 H         1 UNK         0.3800 
    243 H243       -8.5986  -17.3623  -49.6359 H         1 UNK         0.3800 
    244 H244       -5.8382  -15.7205  -51.2430 H         1 UNK         0.0800 
    245 H245       -6.4792  -16.4001  -49.7928 H         1 UNK         0.0800 
    246 H246       -3.4350  -15.7999  -51.9336 H         1 UNK         0.0800 
    247 H247       -3.5667  -15.0282  -50.3691 H         1 UNK         0.0800 
@<TRIPOS>BOND
     1    1    2 1    
     2    1  127 1    
     3    1  128 1    
     4    1  129 1    
     5    2    3 2    
     6    2    4 am   BACKBONE|DICT|INTERRES
     7    4    5 1    
     8    4  130 1    
     9    5    6 1    
    10    5   65 1    
    11    5  131 1    
    12    6    7 1    
    13    6  132 1    
    14    6  133 1    
    15    7    8 1    
    16    8    9 1    
    17    8  134 1    
    18    8  135 1    
    19    9   10 ar   
    20    9   14 ar   
    21   10   11 ar   
    22   10  136 1    
    23   11   12 ar   
    24   11  126 1    
    25   12   13 ar   
    26   12  137 1    
    27   13   14 ar   
    28   13   15 1    
    29   14  138 1    
    30   15   16 1    
    31   15  139 1    
    32   15  140 1    
    33   16   17 1    
    34   17   18 1    
    35   17  141 1    
    36   17  142 1    
    37   18   19 1    
    38   18   67 1    
    39   18  143 1    
    40   19   20 am   BACKBONE|DICT|INTERRES
    41   19  144 1    
    42   20   21 2    
    43   20   22 1    
    44   22   23 1    
    45   22   24 1    
    46   22  145 1    
    47   23  146 1    
    48   23  147 1    
    49   23  148 1    
    50   24   25 am   BACKBONE|DICT|INTERRES
    51   24  149 1    
    52   25   26 2    
    53   25   27 1    
    54   27   28 1    
    55   27   29 1    
    56   27  150 1    
    57   28  151 1    
    58   28  152 1    
    59   28  153 1    
    60   29   30 am   BACKBONE|DICT|INTERRES
    61   29  154 1    
    62   30   31 2    
    63   30   32 1    
    64   32   33 1    
    65   32   34 1    
    66   32  155 1    
    67   33  156 1    
    68   33  157 1    
    69   33  158 1    
    70   34   35 am   BACKBONE|DICT|INTERRES
    71   34  159 1    
    72   35   36 2    
    73   35   37 1    
    74   37   38 1    
    75   37   39 1    
    76   37  160 1    
    77   38  161 1    
    78   38  162 1    
    79   38  163 1    
    80   39   40 am   BACKBONE|DICT|INTERRES
    81   39  164 1    
    82   40   41 2    
    83   40   42 1    
    84   42   43 1    
    85   42   44 1    
    86   42  165 1    
    87   43  166 1    
    88   43  167 1    
    89   43  168 1    
    90   44   45 am   BACKBONE|DICT|INTERRES
    91   44  169 1    
    92   45   46 2    
    93   45   47 1    
    94   47   48 1    
    95   47   49 1    
    96   47  170 1    
    97   48  171 1    
    98   48  172 1    
    99   48  173 1    
   100   49   50 am   BACKBONE|DICT|INTERRES
   101   49  174 1    
   102   50   51 2    
   103   50   52 1    
   104   52   53 1    
   105   52   54 1    
   106   52  175 1    
   107   53  176 1    
   108   53  177 1    
   109   53  178 1    
   110   54   55 am   BACKBONE|DICT|INTERRES
   111   54  179 1    
   112   55   56 2    
   113   55   57 1    
   114   57   58 1    
   115   57   59 1    
   116   57  180 1    
   117   58  181 1    
   118   58  182 1    
   119   58  183 1    
   120   59   60 am   BACKBONE|DICT|INTERRES
   121   59  184 1    
   122   60   61 2    
   123   60   62 1    
   124   62   63 1    
   125   62   64 1    
   126   62  185 1    
   127   63  186 1    
   128   63  187 1    
   129   63  188 1    
   130   64   65 am   BACKBONE|DICT|INTERRES
   131   64  189 1    
   132   65   66 2    
   133   67   68 2    
   134   67   69 am   BACKBONE|DICT|INTERRES
   135   69   70 1    
   136   69  190 1    
   137   70   71 1    
   138   70   72 1    
   139   70  191 1    
   140   71  192 1    
   141   71  193 1    
   142   71  194 1    
   143   72   73 2    
   144   72   74 am   BACKBONE|DICT|INTERRES
   145   74   75 1    
   146   74  195 1    
   147   75   76 1    
   148   75   77 1    
   149   75  196 1    
   150   76  197 1    
   151   76  198 1    
   152   76  199 1    
   153   77   78 2    
   154   77   79 am   BACKBONE|DICT|INTERRES
   155   79   80 1    
   156   79  200 1    
   157   80   81 1    
   158   80   82 1    
   159   80  201 1    
   160   81  202 1    
   161   81  203 1    
   162   81  204 1    
   163   82   83 2    
   164   82   84 am   BACKBONE|DICT|INTERRES
   165   84   85 1    
   166   84  205 1    
   167   85   86 1    
   168   85   87 1    
   169   85  206 1    
   170   86  207 1    
   171   86  208 1    
   172   86  209 1    
   173   87   88 2    
   174   87   89 am   BACKBONE|DICT|INTERRES
   175   89   90 1    
   176   89  210 1    
   177   90   91 1    
   178   90   92 1    
   179   90  211 1    
   180   91  212 1    
   181   91  213 1    
   182   91  214 1    
   183   92   93 2    
   184   92   94 am   BACKBONE|DICT|INTERRES
   185   94   95 1    
   186   94  215 1    
   187   95   96 1    
   188   95   97 1    
   189   95  216 1    
   190   96  217 1    
   191   96  218 1    
   192   96  219 1    
   193   97   98 2    
   194   97   99 am   BACKBONE|DICT|INTERRES
   195   99  100 1    
   196   99  220 1    
   197  100  101 1    
   198  100  102 1    
   199  100  221 1    
   200  101  222 1    
   201  101  223 1    
   202  101  224 1    
   203  102  103 2    
   204  102  104 am   BACKBONE|DICT|INTERRES
   205  104  105 1    
   206  104  225 1    
   207  105  106 1    
   208  105  107 1    
   209  105  226 1    
   210  106  227 1    
   211  106  228 1    
   212  106  229 1    
   213  107  108 2    
   214  107  109 am   BACKBONE|DICT|INTERRES
   215  109  110 1    
   216  109  230 1    
   217  110  111 1    
   218  110  112 1    
   219  110  231 1    
   220  111  232 1    
   221  111  233 1    
   222  111  234 1    
   223  112  113 2    
   224  112  114 am   BACKBONE|DICT|INTERRES
   225  114  115 1    
   226  114  235 1    
   227  115  116 1    
   228  115  117 1    
   229  115  236 1    
   230  116  237 1    
   231  116  238 1    
   232  116  239 1    
   233  117  118 2    
   234  117  119 am   BACKBONE|DICT|INTERRES
   235  119  120 1    
   236  119  240 1    
   237  120  121 1    
   238  120  124 1    
   239  120  241 1    
   240  121  122 am   BACKBONE|DICT|INTERRES
   241  121  123 2    
   242  122  242 1    
   243  122  243 1    
   244  124  125 1    
   245  124  244 1    
   246  124  245 1    
   247  125  126 1    
   248  126  246 1    
   249  126  247 1    
@<TRIPOS>SUBSTRUCTURE
     1 UNK         1 GROUP             0       ****    0 ROOT    
