@<TRIPOS>MOLECULE
3R540
247   249    1
SMALL
USER_CHARGES


@<TRIPOS>ATOM
      1 CA          4.1624  -14.9463  -47.8707 C.3       0 UNK        -0.1800 
      2 C           3.6693  -14.3051  -46.5808 C.2       0 UNK         0.5000 
      3 O           4.3758  -14.3307  -45.5729 O.2       0 UNK        -0.5000 
      4 N           2.4728  -13.7091  -46.6187 N.am      1 UNK        -0.5000 
      5 CA          1.8415  -12.9932  -45.5027 C.3       1 UNK         0.1400 
      6 C6          0.2973  -13.1575  -45.4998 C.3       23 UNK        -0.0398 
      7 S7         -0.2774  -14.8812  -45.6441 S.3       23 UNK        -0.2404 
      8 C8         -1.9910  -14.7248  -45.0583 C.3       23 UNK        -0.0205 
      9 C9         -2.8527  -15.8527  -45.6017 C.ar      23 UNK        -0.0193 
     10 C10        -3.4944  -15.7056  -46.8347 C.ar      23 UNK        -0.1150 
     11 C11        -4.2747  -16.7397  -47.3685 C.ar      23 UNK        -0.0193 
     12 C12        -4.4132  -17.9223  -46.6359 C.ar      23 UNK        -0.1150 
     13 C13        -3.7791  -18.0833  -45.4005 C.ar      23 UNK        -0.0193 
     14 C14        -2.9997  -17.0436  -44.8865 C.ar      23 UNK        -0.1150 
     15 C15        -3.9460  -19.3786  -44.6234 C.3       23 UNK        -0.0205 
     16 S16        -2.7281  -20.6267  -45.1379 S.3       23 UNK        -0.2404 
     17 C17        -3.3405  -22.0650  -44.2047 C.3       23 UNK        -0.0398 
     18 CA         -2.6885  -23.3832  -44.6810 C.3       11 UNK         0.1400 
     19 N          -1.2663  -23.4671  -44.3134 N.am      11 UNK        -0.5000 
     20 C          -0.4162  -24.4379  -44.6830 C.2       10 UNK         0.5000 
     21 O          -0.7588  -25.4028  -45.3695 O.2       10 UNK        -0.5000 
     22 CA          1.0429  -24.3479  -44.2010 C.3       10 UNK         0.1400 
     23 CB          2.0143  -24.3582  -45.3911 C.3       10 UNK        -0.1800 
     24 N           1.2981  -23.1517  -43.3983 N.am      10 UNK        -0.5000 
     25 C           1.3766  -23.1232  -42.0611 C.2       9 UNK         0.5000 
     26 O           1.1870  -24.1096  -41.3487 O.2       9 UNK        -0.5000 
     27 CA          1.7399  -21.7785  -41.3973 C.3       9 UNK         0.1400 
     28 CB          3.2188  -21.7731  -40.9802 C.3       9 UNK        -0.1800 
     29 N           1.4900  -20.6144  -42.2487 N.am      9 UNK        -0.5000 
     30 C           0.2761  -20.1231  -42.5287 C.2       8 UNK         0.5000 
     31 O          -0.7683  -20.5886  -42.0724 O.2       8 UNK        -0.5000 
     32 CA          0.2207  -18.9286  -43.5031 C.3       8 UNK         0.1400 
     33 CB          0.3244  -17.6070  -42.7274 C.3       8 UNK        -0.1800 
     34 N           1.2283  -18.9392  -44.5722 N.am      8 UNK        -0.5000 
     35 C           1.4711  -19.9510  -45.4170 C.2       7 UNK         0.5000 
     36 O           0.9413  -21.0591  -45.3374 O.2       7 UNK        -0.5000 
     37 CA          2.4380  -19.6600  -46.5737 C.3       7 UNK         0.1400 
     38 CB          3.2819  -20.8889  -46.9532 C.3       7 UNK        -0.1800 
     39 N           1.6475  -19.2402  -47.7268 N.am      7 UNK        -0.5000 
     40 C           1.3069  -17.9712  -47.9697 C.2       6 UNK         0.5000 
     41 O           1.7341  -17.0162  -47.3195 O.2       6 UNK        -0.5000 
     42 CA          0.3130  -17.7295  -49.1121 C.3       6 UNK         0.1400 
     43 CB         -1.1319  -17.8966  -48.6186 C.3       6 UNK        -0.1800 
     44 N           0.5113  -16.3725  -49.6101 N.am      6 UNK        -0.5000 
     45 C           0.4501  -16.0079  -50.8933 C.2       5 UNK         0.5000 
     46 O           0.0722  -16.7535  -51.7981 O.2       5 UNK        -0.5000 
     47 CA          0.8933  -14.5690  -51.2061 C.3       5 UNK         0.1400 
     48 CB          1.1019  -14.3262  -52.7117 C.3       5 UNK        -0.1800 
     49 N          -0.0985  -13.6182  -50.7125 N.am      5 UNK        -0.5000 
     50 C           0.0661  -12.8178  -49.6562 C.2       4 UNK         0.5000 
     51 O           1.0577  -12.8422  -48.9204 O.2       4 UNK        -0.5000 
     52 CA         -1.0693  -11.8249  -49.3715 C.3       4 UNK         0.1400 
     53 CB         -2.2536  -12.5212  -48.6853 C.3       4 UNK        -0.1800 
     54 N          -0.5648  -10.7552  -48.5173 N.am      4 UNK        -0.5000 
     55 C          -1.0790   -9.5247  -48.4045 C.2       3 UNK         0.5000 
     56 O          -2.0597   -9.1380  -49.0415 O.2       3 UNK        -0.5000 
     57 CA         -0.4035   -8.5612  -47.4043 C.3       3 UNK         0.1400 
     58 CB         -1.3092   -8.3375  -46.1829 C.3       3 UNK        -0.1800 
     59 N           0.8958   -9.0420  -46.9323 N.am      3 UNK        -0.5000 
     60 C           2.0501   -8.9492  -47.6021 C.2       2 UNK         0.5000 
     61 O           2.1696   -8.3594  -48.6762 O.2       2 UNK        -0.5000 
     62 CA          3.2610   -9.6888  -47.0009 C.3       2 UNK         0.1400 
     63 CB          3.9337   -8.8722  -45.8809 C.3       2 UNK        -0.1800 
     64 N           2.9374  -11.0596  -46.5788 N.am      2 UNK        -0.5000 
     65 C           2.1912  -11.4875  -45.5466 C.2       1 UNK         0.5000 
     66 O           1.7133  -10.7337  -44.6981 O.2       1 UNK        -0.5000 
     67 C          -3.5274  -24.6000  -44.2263 C.2       11 UNK         0.5000 
     68 O          -4.5618  -24.8707  -44.8362 O.2       11 UNK        -0.5000 
     69 N          -3.0470  -25.3572  -43.2285 N.am      12 UNK        -0.5000 
     70 CA         -3.5957  -26.6533  -42.8137 C.3       12 UNK         0.1400 
     71 CB         -2.8490  -27.1288  -41.5584 C.3       12 UNK        -0.1800 
     72 C          -3.5379  -27.7349  -43.9172 C.2       12 UNK         0.5000 
     73 O          -4.3622  -28.6493  -43.9096 O.2       12 UNK        -0.5000 
     74 N          -2.5915  -27.5932  -44.8549 N.am      13 UNK        -0.5000 
     75 CA         -2.4403  -28.4065  -46.0626 C.3       13 UNK         0.1400 
     76 CB         -1.0170  -28.9918  -46.0789 C.3       13 UNK        -0.1800 
     77 C          -2.7269  -27.5648  -47.3257 C.2       13 UNK         0.5000 
     78 O          -2.2162  -27.8789  -48.4026 O.2       13 UNK        -0.5000 
     79 N          -3.4996  -26.4774  -47.1645 N.am      14 UNK        -0.5000 
     80 CA         -3.8693  -25.4686  -48.1661 C.3       14 UNK         0.1400 
     81 CB         -4.7471  -26.0880  -49.2726 C.3       14 UNK        -0.1800 
     82 C          -2.6762  -24.6849  -48.7531 C.2       14 UNK         0.5000 
     83 O          -2.8393  -24.0182  -49.7766 O.2       14 UNK        -0.5000 
     84 N          -1.4997  -24.7764  -48.1150 N.am      15 UNK        -0.5000 
     85 CA         -0.2200  -24.1918  -48.5234 C.3       15 UNK         0.1400 
     86 CB         -0.2334  -22.6698  -48.2797 C.3       15 UNK        -0.1800 
     87 C           0.1908  -24.5823  -49.9597 C.2       15 UNK         0.5000 
     88 O           0.6926  -23.7435  -50.7061 O.2       15 UNK        -0.5000 
     89 N          -0.0851  -25.8412  -50.3386 N.am      16 UNK        -0.5000 
     90 CA          0.0699  -26.3994  -51.6898 C.3       16 UNK         0.1400 
     91 CB          1.5602  -26.5053  -52.0761 C.3       16 UNK        -0.1800 
     92 C          -0.7809  -25.6457  -52.7390 C.2       16 UNK         0.5000 
     93 O          -0.3159  -25.3801  -53.8480 O.2       16 UNK        -0.5000 
     94 N          -2.0107  -25.3000  -52.3323 N.am      17 UNK        -0.5000 
     95 CA         -3.0378  -24.5184  -53.0296 C.3       17 UNK         0.1400 
     96 CB         -3.3391  -25.0645  -54.4397 C.3       17 UNK        -0.1800 
     97 C          -2.7909  -22.9965  -53.0307 C.2       17 UNK         0.5000 
     98 O          -3.6388  -22.2584  -53.5373 O.2       17 UNK        -0.5000 
     99 N          -1.6949  -22.5197  -52.4197 N.am      18 UNK        -0.5000 
    100 CA        -1.4153  -21.0888  -52.2758 C.3       18 UNK         0.1400 
    101 CB         0.0304  -20.8612  -51.8153 C.3       18 UNK        -0.1800 
    102 C         -2.4065  -20.3762  -51.3376 C.2       18 UNK         0.5000 
    103 O         -2.6537  -19.1887  -51.5320 O.2       18 UNK        -0.5000 
    104 N         -3.0000  -21.1051  -50.3789 N.am      19 UNK        -0.5000 
    105 CA        -4.0423  -20.5838  -49.4906 C.3       19 UNK         0.1400 
    106 CB        -4.2461  -21.5421  -48.3095 C.3       19 UNK        -0.1800 
    107 C         -5.3791  -20.3532  -50.2200 C.2       19 UNK         0.5000 
    108 O         -6.1542  -19.4943  -49.8015 O.2       19 UNK        -0.5000 
    109 N         -5.6257  -21.1171  -51.2936 N.am      20 UNK        -0.5000 
    110 CA        -6.7854  -20.9497  -52.1666 C.3       20 UNK         0.1400 
    111 CB        -7.0782  -22.2705  -52.8960 C.3       20 UNK        -0.1800 
    112 C         -6.5698  -19.7997  -53.1655 C.2       20 UNK         0.5000 
    113 O         -7.5026  -19.0368  -53.4190 O.2       20 UNK        -0.5000 
    114 N         -5.3469  -19.6918  -53.7058 N.am      21 UNK        -0.5000 
    115 CA        -4.9421  -18.6379  -54.6363 C.3       21 UNK         0.1400 
    116 CB        -3.6095  -19.0248  -55.2971 C.3       21 UNK        -0.1800 
    117 C         -4.8422  -17.2595  -53.9562 C.2       21 UNK         0.5000 
    118 O         -5.4394  -16.2967  -54.4375 O.2       21 UNK        -0.5000 
    119 N         -4.0918  -17.1989  -52.8491 N.am      22 UNK        -0.5000 
    120 CA        -3.8502  -16.0254  -51.9936 C.3       22 UNK         0.1400 
    121 C         -3.0126  -14.8702  -52.6281 C.2       22 UNK         0.5000 
    122 N         -2.5667  -14.9695  -53.8736 N.am      22 UNK        -0.7600 
    123 O         -2.7139  -13.8797  -51.9663 O.2       22 UNK        -0.5000 
    124 C124       -5.1571  -15.5352  -51.3030 C.3       23 UNK        -0.0398 
    125 S125       -4.8976  -15.0331  -49.5700 S.3       23 UNK        -0.2404 
    126 C126       -4.9458  -16.6594  -48.7416 C.3       23 UNK        -0.0205 
    127 H127        5.0777  -14.4605  -48.2081 H         1 UNK         0.0600 
    128 H128        3.4214  -14.8711  -48.6670 H         1 UNK         0.0600 
    129 H129        4.3745  -16.0027  -47.7059 H         1 UNK         0.0600 
    130 H130        1.9493  -13.6799  -47.4900 H         1 UNK         0.3000 
    131 H131        2.2209  -13.3876  -44.5580 H         1 UNK         0.0600 
    132 H132       -0.1183  -12.7362  -44.5825 H         1 UNK         0.0800 
    133 H133       -0.1485  -12.5964  -46.3206 H         1 UNK         0.0800 
    134 H134       -2.0024  -14.7260  -43.9674 H         1 UNK         0.0800 
    135 H135       -2.4052  -13.7651  -45.3710 H         1 UNK         0.0800 
    136 H136       -3.3578  -14.7861  -47.3802 H         1 UNK         0.1150 
    137 H137       -5.0105  -18.7291  -47.0364 H         1 UNK         0.1150 
    138 H138       -2.5028  -17.1624  -43.9343 H         1 UNK         0.1150 
    139 H139       -3.8418  -19.1946  -43.5529 H         1 UNK         0.0800 
    140 H140       -4.9547  -19.7657  -44.7747 H         1 UNK         0.0800 
    141 H141       -4.4238  -22.1013  -44.3371 H         1 UNK         0.0800 
    142 H142       -3.1635  -21.9049  -43.1396 H         1 UNK         0.0800 
    143 H143       -2.7259  -23.3955  -45.7721 H         1 UNK         0.0600 
    144 H144       -0.8997  -22.6921  -43.7782 H         1 UNK         0.3000 
    145 H145        1.2362  -25.2447  -43.6093 H         1 UNK         0.0600 
    146 H146        3.0492  -24.2856  -45.0566 H         1 UNK         0.0600 
    147 H147        1.9243  -25.2827  -45.9625 H         1 UNK         0.0600 
    148 H148        1.8233  -23.5284  -46.0704 H         1 UNK         0.0600 
    149 H149        1.3868  -22.2859  -43.9234 H         1 UNK         0.3000 
    150 H150        1.1313  -21.6836  -40.4954 H         1 UNK         0.0600 
    151 H151        3.4412  -22.6089  -40.3154 H         1 UNK         0.0600 
    152 H152        3.4750  -20.8583  -40.4454 H         1 UNK         0.0600 
    153 H153        3.8805  -21.8554  -41.8434 H         1 UNK         0.0600 
    154 H154        2.2949  -20.1764  -42.6720 H         1 UNK         0.3000 
    155 H155       -0.7536  -18.9509  -43.9893 H         1 UNK         0.0600 
    156 H156       -0.4314  -17.5531  -41.9427 H         1 UNK         0.0600 
    157 H157        0.1684  -16.7510  -43.3826 H         1 UNK         0.0600 
    158 H158        1.3002  -17.4939  -42.2538 H         1 UNK         0.0600 
    159 H159        1.6799  -18.0542  -44.7572 H         1 UNK         0.3000 
    160 H160        3.1265  -18.8688  -46.2683 H         1 UNK         0.0600 
    161 H161        3.8376  -21.2614  -46.0918 H         1 UNK         0.0600 
    162 H162        2.6703  -21.7085  -47.3273 H         1 UNK         0.0600 
    163 H163        4.0089  -20.6394  -47.7262 H         1 UNK         0.0600 
    164 H164        1.2282  -19.9792  -48.2704 H         1 UNK         0.3000 
    165 H165        0.5145  -18.4529  -49.9040 H         1 UNK         0.0600 
    166 H166       -1.8503  -17.6513  -49.4003 H         1 UNK         0.0600 
    167 H167       -1.3260  -18.9228  -48.3044 H         1 UNK         0.0600 
    168 H168       -1.3326  -17.2501  -47.7646 H         1 UNK         0.0600 
    169 H169        0.8494  -15.7219  -48.9122 H         1 UNK         0.3000 
    170 H170        1.8569  -14.4126  -50.7167 H         1 UNK         0.0600 
    171 H171        1.8370  -15.0200  -53.1213 H         1 UNK         0.0600 
    172 H172        0.1778  -14.4558  -53.2747 H         1 UNK         0.0600 
    173 H173        1.4681  -13.3168  -52.8994 H         1 UNK         0.0600 
    174 H174       -0.9866  -13.6042  -51.2104 H         1 UNK         0.3000 
    175 H175       -1.3959  -11.4041  -50.3250 H         1 UNK         0.0600 
    176 H176       -1.9827  -12.9026  -47.7023 H         1 UNK         0.0600 
    177 H177       -3.0990  -11.8444  -48.5631 H         1 UNK         0.0600 
    178 H178       -2.5975  -13.3655  -49.2799 H         1 UNK         0.0600 
    179 H179        0.2902  -10.9815  -48.0285 H         1 UNK         0.3000 
    180 H180       -0.2659   -7.6032  -47.9101 H         1 UNK         0.0600 
    181 H181       -0.8695   -7.6173  -45.4926 H         1 UNK         0.0600 
    182 H182       -1.4817   -9.2652  -45.6356 H         1 UNK         0.0600 
    183 H183       -2.2825   -7.9462  -46.4821 H         1 UNK         0.0600 
    184 H184        0.9111   -9.5329  -46.0437 H         1 UNK         0.3000 
    185 H185        3.9917   -9.7970  -47.8041 H         1 UNK         0.0600 
    186 H186        3.2505   -8.6553  -45.0597 H         1 UNK         0.0600 
    187 H187        4.7951   -9.3998  -45.4715 H         1 UNK         0.0600 
    188 H188        4.2901   -7.9152  -46.2637 H         1 UNK         0.0600 
    189 H189        3.2359  -11.7768  -47.2255 H         1 UNK         0.3000 
    190 H190       -2.1910  -25.0661  -42.7794 H         1 UNK         0.3000 
    191 H191       -4.6460  -26.5049  -42.5546 H         1 UNK         0.0600 
    192 H192       -1.7851  -27.2705  -41.7530 H         1 UNK         0.0600 
    193 H193       -2.9495  -26.4115  -40.7435 H         1 UNK         0.0600 
    194 H194       -3.2476  -28.0800  -41.2031 H         1 UNK         0.0600 
    195 H195       -1.9604  -26.7987  -44.7965 H         1 UNK         0.3000 
    196 H196       -3.1528  -29.2334  -46.0627 H         1 UNK         0.0600 
    197 H197       -0.8220  -29.5753  -45.1790 H         1 UNK         0.0600 
    198 H198       -0.2620  -28.2067  -46.1390 H         1 UNK         0.0600 
    199 H199       -0.8723  -29.6563  -46.9316 H         1 UNK         0.0600 
    200 H200       -3.8640  -26.2968  -46.2362 H         1 UNK         0.3000 
    201 H201       -4.4772  -24.7331  -47.6385 H         1 UNK         0.0600 
    202 H202       -5.1522  -25.3177  -49.9301 H         1 UNK         0.0600 
    203 H203       -5.5946  -26.6256  -48.8476 H         1 UNK         0.0600 
    204 H204       -4.1855  -26.7850  -49.8951 H         1 UNK         0.0600 
    205 H205       -1.4607  -25.3214  -47.2605 H         1 UNK         0.3000 
    206 H206        0.5380  -24.6265  -47.8732 H         1 UNK         0.0600 
    207 H207       -0.4586  -22.4402  -47.2382 H         1 UNK         0.0600 
    208 H208       -0.9765  -22.1682  -48.8958 H         1 UNK         0.0600 
    209 H209        0.7351  -22.2276  -48.5088 H         1 UNK         0.0600 
    210 H210       -0.5240  -26.4519  -49.6608 H         1 UNK         0.3000 
    211 H211       -0.3300  -27.4136  -51.6488 H         1 UNK         0.0600 
    212 H212        2.1253  -27.0503  -51.3200 H         1 UNK         0.0600 
    213 H213        1.6814  -27.0401  -53.0187 H         1 UNK         0.0600 
    214 H214        2.0208  -25.5244  -52.1970 H         1 UNK         0.0600 
    215 H215       -2.2410  -25.4979  -51.3675 H         1 UNK         0.3000 
    216 H216       -3.9433  -24.6579  -52.4373 H         1 UNK         0.0600 
    217 H217       -4.2328  -24.5957  -54.8535 H         1 UNK         0.0600 
    218 H218       -2.5237  -24.8698  -55.1363 H         1 UNK         0.0600 
    219 H219       -3.5179  -26.1394  -54.4186 H         1 UNK         0.0600 
    220 H220       -1.0388  -23.1622  -51.9929 H         1 UNK         0.3000 
    221 H221       -1.5157  -20.6368  -53.2641 H         1 UNK         0.0600 
    222 H222        0.1794  -21.1599  -50.7788 H         1 UNK         0.0600 
    223 H223        0.7370  -21.4164  -52.4325 H         1 UNK         0.0600 
    224 H224        0.2936  -19.8056  -51.8913 H         1 UNK         0.0600 
    225 H225       -2.7765  -22.0920  -50.2891 H         1 UNK         0.3000 
    226 H226       -3.6994  -19.6271  -49.0936 H         1 UNK         0.0600 
    227 H227       -3.2990  -21.7875  -47.8302 H         1 UNK         0.0600 
    228 H228       -4.8893  -21.0952  -47.5511 H         1 UNK         0.0600 
    229 H229       -4.7199  -22.4709  -48.6260 H         1 UNK         0.0600 
    230 H230       -4.9234  -21.7793  -51.5904 H         1 UNK         0.3000 
    231 H231       -7.6575  -20.7065  -51.5556 H         1 UNK         0.0600 
    232 H232       -7.9732  -22.1816  -53.5128 H         1 UNK         0.0600 
    233 H233       -7.2507  -23.0816  -52.1884 H         1 UNK         0.0600 
    234 H234       -6.2596  -22.5666  -53.5519 H         1 UNK         0.0600 
    235 H235       -4.6549  -20.3978  -53.4837 H         1 UNK         0.3000 
    236 H236       -5.6987  -18.5706  -55.4211 H         1 UNK         0.0600 
    237 H237       -3.3113  -18.2815  -56.0373 H         1 UNK         0.0600 
    238 H238       -2.8031  -19.1032  -54.5679 H         1 UNK         0.0600 
    239 H239       -3.6881  -19.9830  -55.8113 H         1 UNK         0.0600 
    240 H240       -3.6181  -18.0420  -52.5290 H         1 UNK         0.3000 
    241 H241       -3.1904  -16.4225  -51.2215 H         1 UNK         0.0600 
    242 H242       -2.0237  -14.2193  -54.2686 H         1 UNK         0.3800 
    243 H243       -2.7935  -15.7753  -54.4321 H         1 UNK         0.3800 
    244 H244       -5.6049  -14.7066  -51.8541 H         1 UNK         0.0800 
    245 H245       -5.9126  -16.3230  -51.3004 H         1 UNK         0.0800 
    246 H246       -5.9880  -16.9695  -48.6535 H         1 UNK         0.0800 
    247 H247       -4.4575  -17.3884  -49.3878 H         1 UNK         0.0800 
@<TRIPOS>BOND
     1    1    2 1    
     2    1  127 1    
     3    1  128 1    
     4    1  129 1    
     5    2    3 2    
     6    2    4 am   BACKBONE|DICT|INTERRES
     7    4    5 1    
     8    4  130 1    
     9    5    6 1    
    10    5   65 1    
    11    5  131 1    
    12    6    7 1    
    13    6  132 1    
    14    6  133 1    
    15    7    8 1    
    16    8    9 1    
    17    8  134 1    
    18    8  135 1    
    19    9   10 ar   
    20    9   14 ar   
    21   10   11 ar   
    22   10  136 1    
    23   11   12 ar   
    24   11  126 1    
    25   12   13 ar   
    26   12  137 1    
    27   13   14 ar   
    28   13   15 1    
    29   14  138 1    
    30   15   16 1    
    31   15  139 1    
    32   15  140 1    
    33   16   17 1    
    34   17   18 1    
    35   17  141 1    
    36   17  142 1    
    37   18   19 1    
    38   18   67 1    
    39   18  143 1    
    40   19   20 am   BACKBONE|DICT|INTERRES
    41   19  144 1    
    42   20   21 2    
    43   20   22 1    
    44   22   23 1    
    45   22   24 1    
    46   22  145 1    
    47   23  146 1    
    48   23  147 1    
    49   23  148 1    
    50   24   25 am   BACKBONE|DICT|INTERRES
    51   24  149 1    
    52   25   26 2    
    53   25   27 1    
    54   27   28 1    
    55   27   29 1    
    56   27  150 1    
    57   28  151 1    
    58   28  152 1    
    59   28  153 1    
    60   29   30 am   BACKBONE|DICT|INTERRES
    61   29  154 1    
    62   30   31 2    
    63   30   32 1    
    64   32   33 1    
    65   32   34 1    
    66   32  155 1    
    67   33  156 1    
    68   33  157 1    
    69   33  158 1    
    70   34   35 am   BACKBONE|DICT|INTERRES
    71   34  159 1    
    72   35   36 2    
    73   35   37 1    
    74   37   38 1    
    75   37   39 1    
    76   37  160 1    
    77   38  161 1    
    78   38  162 1    
    79   38  163 1    
    80   39   40 am   BACKBONE|DICT|INTERRES
    81   39  164 1    
    82   40   41 2    
    83   40   42 1    
    84   42   43 1    
    85   42   44 1    
    86   42  165 1    
    87   43  166 1    
    88   43  167 1    
    89   43  168 1    
    90   44   45 am   BACKBONE|DICT|INTERRES
    91   44  169 1    
    92   45   46 2    
    93   45   47 1    
    94   47   48 1    
    95   47   49 1    
    96   47  170 1    
    97   48  171 1    
    98   48  172 1    
    99   48  173 1    
   100   49   50 am   BACKBONE|DICT|INTERRES
   101   49  174 1    
   102   50   51 2    
   103   50   52 1    
   104   52   53 1    
   105   52   54 1    
   106   52  175 1    
   107   53  176 1    
   108   53  177 1    
   109   53  178 1    
   110   54   55 am   BACKBONE|DICT|INTERRES
   111   54  179 1    
   112   55   56 2    
   113   55   57 1    
   114   57   58 1    
   115   57   59 1    
   116   57  180 1    
   117   58  181 1    
   118   58  182 1    
   119   58  183 1    
   120   59   60 am   BACKBONE|DICT|INTERRES
   121   59  184 1    
   122   60   61 2    
   123   60   62 1    
   124   62   63 1    
   125   62   64 1    
   126   62  185 1    
   127   63  186 1    
   128   63  187 1    
   129   63  188 1    
   130   64   65 am   BACKBONE|DICT|INTERRES
   131   64  189 1    
   132   65   66 2    
   133   67   68 2    
   134   67   69 am   BACKBONE|DICT|INTERRES
   135   69   70 1    
   136   69  190 1    
   137   70   71 1    
   138   70   72 1    
   139   70  191 1    
   140   71  192 1    
   141   71  193 1    
   142   71  194 1    
   143   72   73 2    
   144   72   74 am   BACKBONE|DICT|INTERRES
   145   74   75 1    
   146   74  195 1    
   147   75   76 1    
   148   75   77 1    
   149   75  196 1    
   150   76  197 1    
   151   76  198 1    
   152   76  199 1    
   153   77   78 2    
   154   77   79 am   BACKBONE|DICT|INTERRES
   155   79   80 1    
   156   79  200 1    
   157   80   81 1    
   158   80   82 1    
   159   80  201 1    
   160   81  202 1    
   161   81  203 1    
   162   81  204 1    
   163   82   83 2    
   164   82   84 am   BACKBONE|DICT|INTERRES
   165   84   85 1    
   166   84  205 1    
   167   85   86 1    
   168   85   87 1    
   169   85  206 1    
   170   86  207 1    
   171   86  208 1    
   172   86  209 1    
   173   87   88 2    
   174   87   89 am   BACKBONE|DICT|INTERRES
   175   89   90 1    
   176   89  210 1    
   177   90   91 1    
   178   90   92 1    
   179   90  211 1    
   180   91  212 1    
   181   91  213 1    
   182   91  214 1    
   183   92   93 2    
   184   92   94 am   BACKBONE|DICT|INTERRES
   185   94   95 1    
   186   94  215 1    
   187   95   96 1    
   188   95   97 1    
   189   95  216 1    
   190   96  217 1    
   191   96  218 1    
   192   96  219 1    
   193   97   98 2    
   194   97   99 am   BACKBONE|DICT|INTERRES
   195   99  100 1    
   196   99  220 1    
   197  100  101 1    
   198  100  102 1    
   199  100  221 1    
   200  101  222 1    
   201  101  223 1    
   202  101  224 1    
   203  102  103 2    
   204  102  104 am   BACKBONE|DICT|INTERRES
   205  104  105 1    
   206  104  225 1    
   207  105  106 1    
   208  105  107 1    
   209  105  226 1    
   210  106  227 1    
   211  106  228 1    
   212  106  229 1    
   213  107  108 2    
   214  107  109 am   BACKBONE|DICT|INTERRES
   215  109  110 1    
   216  109  230 1    
   217  110  111 1    
   218  110  112 1    
   219  110  231 1    
   220  111  232 1    
   221  111  233 1    
   222  111  234 1    
   223  112  113 2    
   224  112  114 am   BACKBONE|DICT|INTERRES
   225  114  115 1    
   226  114  235 1    
   227  115  116 1    
   228  115  117 1    
   229  115  236 1    
   230  116  237 1    
   231  116  238 1    
   232  116  239 1    
   233  117  118 2    
   234  117  119 am   BACKBONE|DICT|INTERRES
   235  119  120 1    
   236  119  240 1    
   237  120  121 1    
   238  120  124 1    
   239  120  241 1    
   240  121  122 am   BACKBONE|DICT|INTERRES
   241  121  123 2    
   242  122  242 1    
   243  122  243 1    
   244  124  125 1    
   245  124  244 1    
   246  124  245 1    
   247  125  126 1    
   248  126  246 1    
   249  126  247 1    
@<TRIPOS>SUBSTRUCTURE
     1 UNK         1 GROUP             0       ****    0 ROOT    
