@<TRIPOS>MOLECULE
3R540
247   249    1
SMALL
USER_CHARGES


@<TRIPOS>ATOM
      1 CA          1.2146  -12.3724  -50.6834 C.3       0 UNK        -0.1800 
      2 C           1.2308  -13.0162  -49.3050 C.2       0 UNK         0.5000 
      3 O           2.1809  -13.7224  -48.9699 O.2       0 UNK        -0.5000 
      4 N           0.1805  -12.7836  -48.5134 N.am      1 UNK        -0.5000 
      5 CA          0.0249  -13.2657  -47.1421 C.3       1 UNK         0.1400 
      6 C6         -1.2715  -14.1005  -46.9652 C.3       23 UNK        -0.0398 
      7 S7         -2.8453  -13.2433  -47.3263 S.3       23 UNK        -0.2404 
      8 C8         -3.1057  -13.5836  -49.1009 C.3       23 UNK        -0.0205 
      9 C9         -3.2384  -15.0638  -49.4395 C.ar      23 UNK        -0.0193 
     10 C10        -2.4014  -15.6378  -50.4018 C.ar      23 UNK        -0.1150 
     11 C11        -2.5663  -16.9724  -50.7842 C.ar      23 UNK        -0.0193 
     12 C12        -3.5462  -17.7489  -50.1606 C.ar      23 UNK        -0.1150 
     13 C13        -4.3857  -17.1917  -49.1920 C.ar      23 UNK        -0.0193 
     14 C14        -4.2341  -15.8452  -48.8446 C.ar      23 UNK        -0.1150 
     15 C15        -5.4806  -18.0410  -48.5589 C.3       23 UNK        -0.0205 
     16 S16        -5.3983  -18.1028  -46.7381 S.3       23 UNK        -0.2404 
     17 C17        -3.7057  -18.7111  -46.4312 C.3       23 UNK        -0.0398 
     18 CA         -3.5261  -20.2307  -46.6549 C.3       11 UNK         0.1400 
     19 N          -2.1080  -20.5845  -46.8040 N.am      11 UNK        -0.5000 
     20 C          -1.6118  -21.8112  -47.0204 C.2       10 UNK         0.5000 
     21 O          -2.3102  -22.8164  -47.1354 O.2       10 UNK        -0.5000 
     22 CA         -0.0846  -21.9472  -47.0989 C.3       10 UNK         0.1400 
     23 CB          0.4343  -21.5141  -48.4791 C.3       10 UNK        -0.1800 
     24 N           0.5621  -21.1682  -46.0453 N.am      10 UNK        -0.5000 
     25 C           0.6334  -21.5551  -44.7628 C.2       9 UNK         0.5000 
     26 O           0.2609  -22.6568  -44.3595 O.2       9 UNK        -0.5000 
     27 CA          1.1806  -20.5258  -43.7542 C.3       9 UNK         0.1400 
     28 CB          2.7083  -20.6341  -43.6405 C.3       9 UNK        -0.1800 
     29 N           0.8247  -19.1494  -44.0993 N.am      9 UNK        -0.5000 
     30 C          -0.4256  -18.6633  -44.1072 C.2       8 UNK         0.5000 
     31 O          -1.4162  -19.3124  -43.7704 O.2       8 UNK        -0.5000 
     32 CA         -0.6024  -17.2297  -44.6456 C.3       8 UNK         0.1400 
     33 CB         -0.5396  -16.2228  -43.4908 C.3       8 UNK        -0.1800 
     34 N           0.3720  -16.8856  -45.6911 N.am      8 UNK        -0.5000 
     35 C           0.4529  -17.5348  -46.8662 C.2       7 UNK         0.5000 
     36 O          -0.3328  -18.4277  -47.1800 O.2       7 UNK        -0.5000 
     37 CA          1.5944  -17.1938  -47.8463 C.3       7 UNK         0.1400 
     38 CB          1.0283  -16.7018  -49.1848 C.3       7 UNK        -0.1800 
     39 N           2.5842  -16.2433  -47.3315 N.am      7 UNK        -0.5000 
     40 C           3.4631  -16.5409  -46.3632 C.2       6 UNK         0.5000 
     41 O           3.5133  -17.6476  -45.8208 O.2       6 UNK        -0.5000 
     42 CA          4.4113  -15.4303  -45.8590 C.3       6 UNK         0.1400 
     43 CB          4.2889  -14.0815  -46.5985 C.3       6 UNK        -0.1800 
     44 N           4.2562  -15.2337  -44.4141 N.am      6 UNK        -0.5000 
     45 C           3.1140  -14.9309  -43.7771 C.2       5 UNK         0.5000 
     46 O           2.0487  -14.7052  -44.3535 O.2       5 UNK        -0.5000 
     47 CA          3.1878  -14.8571  -42.2460 C.3       5 UNK         0.1400 
     48 CB          3.3323  -16.2714  -41.6488 C.3       5 UNK        -0.1800 
     49 N           4.3187  -14.0088  -41.8653 N.am      5 UNK        -0.5000 
     50 C           4.4959  -13.2967  -40.7447 C.2       4 UNK         0.5000 
     51 O           5.4864  -12.5797  -40.6070 O.2       4 UNK        -0.5000 
     52 CA          3.4230  -13.3084  -39.6383 C.3       4 UNK         0.1400 
     53 CB          3.9905  -12.9175  -38.2580 C.3       4 UNK        -0.1800 
     54 N           2.3656  -12.3814  -40.0224 N.am      4 UNK        -0.5000 
     55 C           1.1047  -12.4103  -39.5737 C.2       3 UNK         0.5000 
     56 O           0.6921  -13.2144  -38.7370 O.2       3 UNK        -0.5000 
     57 CA          0.1334  -11.3738  -40.1754 C.3       3 UNK         0.1400 
     58 CB          0.0925  -10.1071  -39.3068 C.3       3 UNK        -0.1800 
     59 N           0.4663  -11.0011  -41.5546 N.am      3 UNK        -0.5000 
     60 C           0.3969  -11.8393  -42.5970 C.2       2 UNK         0.5000 
     61 O          -0.0027  -13.0015  -42.5049 O.2       2 UNK        -0.5000 
     62 CA          0.8754  -11.2889  -43.9496 C.3       2 UNK         0.1400 
     63 CB          2.3758  -10.9443  -43.9104 C.3       2 UNK        -0.1800 
     64 N           0.6614  -12.2876  -44.9927 N.am      2 UNK        -0.5000 
     65 C           0.1110  -12.0592  -46.1872 C.2       1 UNK         0.5000 
     66 O          -0.2983  -10.9532  -46.5529 O.2       1 UNK        -0.5000 
     67 C          -4.2362  -21.0629  -45.5648 C.2       11 UNK         0.5000 
     68 O          -5.3357  -21.5645  -45.8028 O.2       11 UNK        -0.5000 
     69 N          -3.5497  -21.2748  -44.4328 N.am      12 UNK        -0.5000 
     70 CA         -3.9695  -22.1426  -43.3282 C.3       12 UNK         0.1400 
     71 CB         -2.9524  -22.0031  -42.1852 C.3       12 UNK        -0.1800 
     72 C          -4.1475  -23.6302  -43.7091 C.2       12 UNK         0.5000 
     73 O          -4.8534  -24.3504  -43.0028 O.2       12 UNK        -0.5000 
     74 N          -3.5279  -24.0576  -44.8162 N.am      13 UNK        -0.5000 
     75 CA         -3.6173  -25.3943  -45.4001 C.3       13 UNK         0.1400 
     76 CB         -2.1897  -25.9418  -45.5826 C.3       13 UNK        -0.1800 
     77 C          -4.4031  -25.3676  -46.7287 C.2       13 UNK         0.5000 
     78 O          -4.1337  -26.1847  -47.6101 O.2       13 UNK        -0.5000 
     79 N          -5.3462  -24.4210  -46.8656 N.am      14 UNK        -0.5000 
     80 CA         -6.2152  -24.1972  -48.0287 C.3       14 UNK         0.1400 
     81 CB         -7.1802  -25.3844  -48.2318 C.3       14 UNK        -0.1800 
     82 C          -5.4126  -23.8476  -49.2979 C.2       14 UNK         0.5000 
     83 O          -5.5953  -24.4678  -50.3471 O.2       14 UNK        -0.5000 
     84 N          -4.4956  -22.8814  -49.1483 N.am      15 UNK        -0.5000 
     85 CA         -3.5114  -22.4352  -50.1417 C.3       15 UNK         0.1400 
     86 CB         -4.2012  -21.7407  -51.3325 C.3       15 UNK        -0.1800 
     87 C          -2.5655  -23.5804  -50.5568 C.2       15 UNK         0.5000 
     88 O          -2.2947  -23.7606  -51.7434 O.2       15 UNK        -0.5000 
     89 N          -2.1124  -24.3502  -49.5555 N.am      16 UNK        -0.5000 
     90 CA         -1.3099  -25.5729  -49.6605 C.3       16 UNK         0.1400 
     91 CB          0.1220  -25.2368  -50.1273 C.3       16 UNK        -0.1800 
     92 C          -2.0002  -26.6389  -50.5365 C.2       16 UNK         0.5000 
     93 O          -1.3941  -27.1581  -51.4729 O.2       16 UNK        -0.5000 
     94 N          -3.2849  -26.8966  -50.2502 N.am      17 UNK        -0.5000 
     95 CA         -4.2150  -27.7151  -51.0385 C.3       17 UNK         0.1400 
     96 CB         -3.8513  -29.2100  -50.9281 C.3       17 UNK        -0.1800 
     97 C          -4.3275  -27.2204  -52.4989 C.2       17 UNK         0.5000 
     98 O          -4.2371  -28.0115  -53.4392 O.2       17 UNK        -0.5000 
     99 N          -4.4779  -25.8968  -52.6413 N.am      18 UNK        -0.5000 
    100 CA        -4.5219  -25.1018  -53.8725 C.3       18 UNK         0.1400 
    101 CB        -5.7111  -25.5210  -54.7604 C.3       18 UNK        -0.1800 
    102 C         -3.2007  -25.0310  -54.6721 C.2       18 UNK         0.5000 
    103 O         -3.1863  -24.3927  -55.7261 O.2       18 UNK        -0.5000 
    104 N         -2.1044  -25.6289  -54.1790 N.am      19 UNK        -0.5000 
    105 CA        -0.7944  -25.6188  -54.8402 C.3       19 UNK         0.1400 
    106 CB         0.1321  -26.6543  -54.1878 C.3       19 UNK        -0.1800 
    107 C         -0.1187  -24.2338  -54.8579 C.2       19 UNK         0.5000 
    108 O          0.6791  -23.9691  -55.7581 O.2       19 UNK        -0.5000 
    109 N         -0.4587  -23.3665  -53.8934 N.am      20 UNK        -0.5000 
    110 CA        -0.0047  -21.9742  -53.8351 C.3       20 UNK         0.1400 
    111 CB        -0.0159  -21.4949  -52.3732 C.3       20 UNK        -0.1800 
    112 C         -0.8407  -21.0329  -54.7283 C.2       20 UNK         0.5000 
    113 O         -0.5115  -19.8498  -54.8109 O.2       20 UNK        -0.5000 
    114 N         -1.8924  -21.5622  -55.3743 N.am      21 UNK        -0.5000 
    115 CA        -2.8714  -20.8640  -56.2085 C.3       21 UNK         0.1400 
    116 CB        -2.2100  -20.2786  -57.4776 C.3       21 UNK        -0.1800 
    117 C         -3.6888  -19.8545  -55.3772 C.2       21 UNK         0.5000 
    118 O         -4.3313  -20.2696  -54.4121 O.2       21 UNK        -0.5000 
    119 N         -3.6724  -18.5726  -55.7664 N.am      22 UNK        -0.5000 
    120 CA        -4.3845  -17.4547  -55.1161 C.3       22 UNK         0.1400 
    121 C         -5.9395  -17.5036  -55.2485 C.2       22 UNK         0.5000 
    122 N         -6.5040  -18.3016  -56.1469 N.am      22 UNK        -0.7600 
    123 O         -6.6509  -16.7816  -54.5549 O.2       22 UNK        -0.5000 
    124 C124       -3.9222  -17.1981  -53.6528 C.3       23 UNK        -0.0398 
    125 S125       -2.1378  -16.8287  -53.5229 S.3       23 UNK        -0.2404 
    126 C126       -1.7227  -17.5627  -51.9070 C.3       23 UNK        -0.0205 
    127 H127        0.3101  -11.7861  -50.8469 H         1 UNK         0.0600 
    128 H128        1.2660  -13.1408  -51.4547 H         1 UNK         0.0600 
    129 H129        2.0745  -11.7129  -50.7990 H         1 UNK         0.0600 
    130 H130       -0.5311  -12.1292  -48.8060 H         1 UNK         0.3000 
    131 H131        0.8570  -13.9248  -46.8890 H         1 UNK         0.0600 
    132 H132       -1.2146  -14.9998  -47.5769 H         1 UNK         0.0800 
    133 H133       -1.3341  -14.4620  -45.9394 H         1 UNK         0.0800 
    134 H134       -4.0193  -13.0780  -49.4158 H         1 UNK         0.0800 
    135 H135       -2.2998  -13.1275  -49.6758 H         1 UNK         0.0800 
    136 H136       -1.6462  -15.0368  -50.8889 H         1 UNK         0.1150 
    137 H137       -3.6747  -18.7809  -50.4535 H         1 UNK         0.1150 
    138 H138       -4.8946  -15.4035  -48.1116 H         1 UNK         0.1150 
    139 H139       -6.4490  -17.6316  -48.8491 H         1 UNK         0.0800 
    140 H140       -5.4556  -19.0603  -48.9469 H         1 UNK         0.0800 
    141 H141       -3.4424  -18.4462  -45.4073 H         1 UNK         0.0800 
    142 H142       -3.0203  -18.1496  -47.0665 H         1 UNK         0.0800 
    143 H143       -3.9945  -20.4828  -47.6068 H         1 UNK         0.0600 
    144 H144       -1.4524  -19.8060  -46.7904 H         1 UNK         0.3000 
    145 H145        0.1650  -23.0020  -46.9642 H         1 UNK         0.0600 
    146 H146        1.5136  -21.6473  -48.5530 H         1 UNK         0.0600 
    147 H147       -0.0202  -22.1132  -49.2683 H         1 UNK         0.0600 
    148 H148        0.2104  -20.4702  -48.6975 H         1 UNK         0.0600 
    149 H149        0.8457  -20.2294  -46.2852 H         1 UNK         0.3000 
    150 H150        0.7456  -20.7535  -42.7786 H         1 UNK         0.0600 
    151 H151        3.0092  -21.6460  -43.3660 H         1 UNK         0.0600 
    152 H152        3.0952  -19.9610  -42.8751 H         1 UNK         0.0600 
    153 H153        3.2005  -20.3877  -44.5824 H         1 UNK         0.0600 
    154 H154        1.5770  -18.5536  -44.4176 H         1 UNK         0.3000 
    155 H155       -1.5939  -17.1551  -45.0920 H         1 UNK         0.0600 
    156 H156       -1.3319  -16.4134  -42.7660 H         1 UNK         0.0600 
    157 H157       -0.6671  -15.2011  -43.8440 H         1 UNK         0.0600 
    158 H158        0.4070  -16.2777  -42.9552 H         1 UNK         0.0600 
    159 H159        1.0559  -16.1733  -45.4617 H         1 UNK         0.3000 
    160 H160        2.1163  -18.1319  -48.0464 H         1 UNK         0.0600 
    161 H161        0.4109  -15.8137  -49.0636 H         1 UNK         0.0600 
    162 H162        0.4025  -17.4703  -49.6383 H         1 UNK         0.0600 
    163 H163        1.8226  -16.4694  -49.8941 H         1 UNK         0.0600 
    164 H164        2.5862  -15.3180  -47.7511 H         1 UNK         0.3000 
    165 H165        5.4242  -15.8027  -46.0181 H         1 UNK         0.0600 
    166 H166        5.0145  -13.3635  -46.2167 H         1 UNK         0.0600 
    167 H167        4.4892  -14.1983  -47.6639 H         1 UNK         0.0600 
    168 H168        3.3010  -13.6346  -46.4872 H         1 UNK         0.0600 
    169 H169        5.0651  -15.4766  -43.8608 H         1 UNK         0.3000 
    170 H170        2.2533  -14.4154  -41.8982 H         1 UNK         0.0600 
    171 H171        2.5297  -16.9252  -41.9921 H         1 UNK         0.0600 
    172 H172        4.2744  -16.7375  -41.9396 H         1 UNK         0.0600 
    173 H173        3.2940  -16.2678  -40.5611 H         1 UNK         0.0600 
    174 H174        5.0148  -13.9002  -42.5886 H         1 UNK         0.3000 
    175 H175        3.0113  -14.3131  -39.5524 H         1 UNK         0.0600 
    176 H176        4.3498  -11.8878  -38.2452 H         1 UNK         0.0600 
    177 H177        3.2368  -13.0158  -37.4768 H         1 UNK         0.0600 
    178 H178        4.8257  -13.5627  -37.9831 H         1 UNK         0.0600 
    179 H179        2.6181  -11.6912  -40.7154 H         1 UNK         0.3000 
    180 H180       -0.8638  -11.8192  -40.1762 H         1 UNK         0.0600 
    181 H181        1.0595   -9.6031  -39.2830 H         1 UNK         0.0600 
    182 H182       -0.1770  -10.3484  -38.2776 H         1 UNK         0.0600 
    183 H183       -0.6481   -9.3980  -39.6771 H         1 UNK         0.0600 
    184 H184        0.7890  -10.0554  -41.7010 H         1 UNK         0.3000 
    185 H185        0.3010  -10.3840  -44.1577 H         1 UNK         0.0600 
    186 H186        2.5884  -10.1607  -43.1827 H         1 UNK         0.0600 
    187 H187        2.9816  -11.8123  -43.6479 H         1 UNK         0.0600 
    188 H188        2.7194  -10.5824  -44.8796 H         1 UNK         0.0600 
    189 H189        0.9558  -13.2285  -44.7374 H         1 UNK         0.3000 
    190 H190       -2.6668  -20.7883  -44.3075 H         1 UNK         0.3000 
    191 H191       -4.9369  -21.7810  -42.9742 H         1 UNK         0.0600 
    192 H192       -1.9561  -22.3205  -42.4959 H         1 UNK         0.0600 
    193 H193       -2.8823  -20.9702  -41.8432 H         1 UNK         0.0600 
    194 H194       -3.2395  -22.6108  -41.3261 H         1 UNK         0.0600 
    195 H195       -2.9999  -23.3896  -45.3674 H         1 UNK         0.3000 
    196 H196       -4.1551  -26.0686  -44.7313 H         1 UNK         0.0600 
    197 H197       -1.6566  -25.9688  -44.6322 H         1 UNK         0.0600 
    198 H198       -1.6083  -25.3280  -46.2711 H         1 UNK         0.0600 
    199 H199       -2.2018  -26.9595  -45.9745 H         1 UNK         0.0600 
    200 H200       -5.4498  -23.7475  -46.1162 H         1 UNK         0.3000 
    201 H201       -6.8193  -23.3187  -47.7970 H         1 UNK         0.0600 
    202 H202       -7.8995  -25.1694  -49.0228 H         1 UNK         0.0600 
    203 H203       -7.7479  -25.5900  -47.3245 H         1 UNK         0.0600 
    204 H204       -6.6532  -26.2970  -48.5117 H         1 UNK         0.0600 
    205 H205       -4.3661  -22.5178  -48.2147 H         1 UNK         0.3000 
    206 H206       -2.8861  -21.6858  -49.6569 H         1 UNK         0.0600 
    207 H207       -4.8288  -20.9153  -50.9978 H         1 UNK         0.0600 
    208 H208       -4.8313  -22.4257  -51.8980 H         1 UNK         0.0600 
    209 H209       -3.4671  -21.3280  -52.0250 H         1 UNK         0.0600 
    210 H210       -2.3864  -24.0865  -48.6143 H         1 UNK         0.3000 
    211 H211       -1.2437  -25.9945  -48.6569 H         1 UNK         0.0600 
    212 H212        0.5989  -24.5265  -49.4527 H         1 UNK         0.0600 
    213 H213        0.7459  -26.1310  -50.1480 H         1 UNK         0.0600 
    214 H214        0.1337  -24.8074  -51.1294 H         1 UNK         0.0600 
    215 H215       -3.6836  -26.4555  -49.4241 H         1 UNK         0.3000 
    216 H216       -5.2001  -27.5783  -50.5899 H         1 UNK         0.0600 
    217 H217       -4.5998  -29.8308  -51.4217 H         1 UNK         0.0600 
    218 H218       -2.8883  -29.4291  -51.3901 H         1 UNK         0.0600 
    219 H219       -3.8032  -29.5265  -49.8862 H         1 UNK         0.0600 
    220 H220       -4.5748  -25.3522  -51.7884 H         1 UNK         0.3000 
    221 H221       -4.7121  -24.0798  -53.5453 H         1 UNK         0.0600 
    222 H222       -5.5673  -26.5117  -55.1919 H         1 UNK         0.0600 
    223 H223       -6.6420  -25.5320  -54.1933 H         1 UNK         0.0600 
    224 H224       -5.8464  -24.8239  -55.5880 H         1 UNK         0.0600 
    225 H225       -2.1594  -26.1006  -53.2841 H         1 UNK         0.3000 
    226 H226       -0.9492  -25.9197  -55.8785 H         1 UNK         0.0600 
    227 H227       -0.3400  -27.6357  -54.1372 H         1 UNK         0.0600 
    228 H228        1.0539  -26.7647  -54.7601 H         1 UNK         0.0600 
    229 H229        0.4131  -26.3606  -53.1763 H         1 UNK         0.0600 
    230 H230       -1.1326  -23.6512  -53.1840 H         1 UNK         0.3000 
    231 H231        1.0268  -21.9258  -54.1900 H         1 UNK         0.0600 
    232 H232        0.4603  -20.5181  -52.2802 H         1 UNK         0.0600 
    233 H233        0.5269  -22.1838  -51.7261 H         1 UNK         0.0600 
    234 H234       -1.0300  -21.3957  -51.9888 H         1 UNK         0.0600 
    235 H235       -2.0853  -22.5455  -55.2312 H         1 UNK         0.3000 
    236 H236       -3.5815  -21.6246  -56.5364 H         1 UNK         0.0600 
    237 H237       -1.6804  -21.0548  -58.0302 H         1 UNK         0.0600 
    238 H238       -2.9576  -19.8616  -58.1535 H         1 UNK         0.0600 
    239 H239       -1.4916  -19.4911  -57.2489 H         1 UNK         0.0600 
    240 H240       -3.1083  -18.3238  -56.5657 H         1 UNK         0.3000 
    241 H241       -4.1037  -16.5716  -55.6908 H         1 UNK         0.0600 
    242 H242       -7.5081  -18.3177  -56.2345 H         1 UNK         0.3800 
    243 H243       -5.9396  -18.8912  -56.7369 H         1 UNK         0.3800 
    244 H244       -4.4518  -16.3465  -53.2225 H         1 UNK         0.0800 
    245 H245       -4.1689  -18.0532  -53.0229 H         1 UNK         0.0800 
    246 H246       -0.6668  -17.3839  -51.7057 H         1 UNK         0.0800 
    247 H247       -1.8469  -18.6454  -51.9649 H         1 UNK         0.0800 
@<TRIPOS>BOND
     1    1    2 1    
     2    1  127 1    
     3    1  128 1    
     4    1  129 1    
     5    2    3 2    
     6    2    4 am   BACKBONE|DICT|INTERRES
     7    4    5 1    
     8    4  130 1    
     9    5    6 1    
    10    5   65 1    
    11    5  131 1    
    12    6    7 1    
    13    6  132 1    
    14    6  133 1    
    15    7    8 1    
    16    8    9 1    
    17    8  134 1    
    18    8  135 1    
    19    9   10 ar   
    20    9   14 ar   
    21   10   11 ar   
    22   10  136 1    
    23   11   12 ar   
    24   11  126 1    
    25   12   13 ar   
    26   12  137 1    
    27   13   14 ar   
    28   13   15 1    
    29   14  138 1    
    30   15   16 1    
    31   15  139 1    
    32   15  140 1    
    33   16   17 1    
    34   17   18 1    
    35   17  141 1    
    36   17  142 1    
    37   18   19 1    
    38   18   67 1    
    39   18  143 1    
    40   19   20 am   BACKBONE|DICT|INTERRES
    41   19  144 1    
    42   20   21 2    
    43   20   22 1    
    44   22   23 1    
    45   22   24 1    
    46   22  145 1    
    47   23  146 1    
    48   23  147 1    
    49   23  148 1    
    50   24   25 am   BACKBONE|DICT|INTERRES
    51   24  149 1    
    52   25   26 2    
    53   25   27 1    
    54   27   28 1    
    55   27   29 1    
    56   27  150 1    
    57   28  151 1    
    58   28  152 1    
    59   28  153 1    
    60   29   30 am   BACKBONE|DICT|INTERRES
    61   29  154 1    
    62   30   31 2    
    63   30   32 1    
    64   32   33 1    
    65   32   34 1    
    66   32  155 1    
    67   33  156 1    
    68   33  157 1    
    69   33  158 1    
    70   34   35 am   BACKBONE|DICT|INTERRES
    71   34  159 1    
    72   35   36 2    
    73   35   37 1    
    74   37   38 1    
    75   37   39 1    
    76   37  160 1    
    77   38  161 1    
    78   38  162 1    
    79   38  163 1    
    80   39   40 am   BACKBONE|DICT|INTERRES
    81   39  164 1    
    82   40   41 2    
    83   40   42 1    
    84   42   43 1    
    85   42   44 1    
    86   42  165 1    
    87   43  166 1    
    88   43  167 1    
    89   43  168 1    
    90   44   45 am   BACKBONE|DICT|INTERRES
    91   44  169 1    
    92   45   46 2    
    93   45   47 1    
    94   47   48 1    
    95   47   49 1    
    96   47  170 1    
    97   48  171 1    
    98   48  172 1    
    99   48  173 1    
   100   49   50 am   BACKBONE|DICT|INTERRES
   101   49  174 1    
   102   50   51 2    
   103   50   52 1    
   104   52   53 1    
   105   52   54 1    
   106   52  175 1    
   107   53  176 1    
   108   53  177 1    
   109   53  178 1    
   110   54   55 am   BACKBONE|DICT|INTERRES
   111   54  179 1    
   112   55   56 2    
   113   55   57 1    
   114   57   58 1    
   115   57   59 1    
   116   57  180 1    
   117   58  181 1    
   118   58  182 1    
   119   58  183 1    
   120   59   60 am   BACKBONE|DICT|INTERRES
   121   59  184 1    
   122   60   61 2    
   123   60   62 1    
   124   62   63 1    
   125   62   64 1    
   126   62  185 1    
   127   63  186 1    
   128   63  187 1    
   129   63  188 1    
   130   64   65 am   BACKBONE|DICT|INTERRES
   131   64  189 1    
   132   65   66 2    
   133   67   68 2    
   134   67   69 am   BACKBONE|DICT|INTERRES
   135   69   70 1    
   136   69  190 1    
   137   70   71 1    
   138   70   72 1    
   139   70  191 1    
   140   71  192 1    
   141   71  193 1    
   142   71  194 1    
   143   72   73 2    
   144   72   74 am   BACKBONE|DICT|INTERRES
   145   74   75 1    
   146   74  195 1    
   147   75   76 1    
   148   75   77 1    
   149   75  196 1    
   150   76  197 1    
   151   76  198 1    
   152   76  199 1    
   153   77   78 2    
   154   77   79 am   BACKBONE|DICT|INTERRES
   155   79   80 1    
   156   79  200 1    
   157   80   81 1    
   158   80   82 1    
   159   80  201 1    
   160   81  202 1    
   161   81  203 1    
   162   81  204 1    
   163   82   83 2    
   164   82   84 am   BACKBONE|DICT|INTERRES
   165   84   85 1    
   166   84  205 1    
   167   85   86 1    
   168   85   87 1    
   169   85  206 1    
   170   86  207 1    
   171   86  208 1    
   172   86  209 1    
   173   87   88 2    
   174   87   89 am   BACKBONE|DICT|INTERRES
   175   89   90 1    
   176   89  210 1    
   177   90   91 1    
   178   90   92 1    
   179   90  211 1    
   180   91  212 1    
   181   91  213 1    
   182   91  214 1    
   183   92   93 2    
   184   92   94 am   BACKBONE|DICT|INTERRES
   185   94   95 1    
   186   94  215 1    
   187   95   96 1    
   188   95   97 1    
   189   95  216 1    
   190   96  217 1    
   191   96  218 1    
   192   96  219 1    
   193   97   98 2    
   194   97   99 am   BACKBONE|DICT|INTERRES
   195   99  100 1    
   196   99  220 1    
   197  100  101 1    
   198  100  102 1    
   199  100  221 1    
   200  101  222 1    
   201  101  223 1    
   202  101  224 1    
   203  102  103 2    
   204  102  104 am   BACKBONE|DICT|INTERRES
   205  104  105 1    
   206  104  225 1    
   207  105  106 1    
   208  105  107 1    
   209  105  226 1    
   210  106  227 1    
   211  106  228 1    
   212  106  229 1    
   213  107  108 2    
   214  107  109 am   BACKBONE|DICT|INTERRES
   215  109  110 1    
   216  109  230 1    
   217  110  111 1    
   218  110  112 1    
   219  110  231 1    
   220  111  232 1    
   221  111  233 1    
   222  111  234 1    
   223  112  113 2    
   224  112  114 am   BACKBONE|DICT|INTERRES
   225  114  115 1    
   226  114  235 1    
   227  115  116 1    
   228  115  117 1    
   229  115  236 1    
   230  116  237 1    
   231  116  238 1    
   232  116  239 1    
   233  117  118 2    
   234  117  119 am   BACKBONE|DICT|INTERRES
   235  119  120 1    
   236  119  240 1    
   237  120  121 1    
   238  120  124 1    
   239  120  241 1    
   240  121  122 am   BACKBONE|DICT|INTERRES
   241  121  123 2    
   242  122  242 1    
   243  122  243 1    
   244  124  125 1    
   245  124  244 1    
   246  124  245 1    
   247  125  126 1    
   248  126  246 1    
   249  126  247 1    
@<TRIPOS>SUBSTRUCTURE
     1 UNK         1 GROUP             0       ****    0 ROOT    
