@<TRIPOS>MOLECULE
3R540
247   249    1
SMALL
USER_CHARGES


@<TRIPOS>ATOM
      1 CA         -3.0689  -11.8949  -47.9990 C.3       0 UNK        -0.1800 
      2 C          -2.2453  -13.1418  -47.7129 C.2       0 UNK         0.5000 
      3 O          -1.3789  -13.1215  -46.8396 O.2       0 UNK        -0.5000 
      4 N          -2.5281  -14.2341  -48.4328 N.am      1 UNK        -0.5000 
      5 CA         -1.7909  -15.5080  -48.4076 C.3       1 UNK         0.1400 
      6 C6         -2.2912  -16.4650  -49.5164 C.3       23 UNK        -0.0398 
      7 S7         -2.0242  -15.7547  -51.1758 S.3       23 UNK        -0.2404 
      8 C8         -1.9189  -17.2543  -52.2108 C.3       23 UNK        -0.0205 
      9 C9         -0.6479  -18.0954  -52.0756 C.ar      23 UNK        -0.0193 
     10 C10        -0.5512  -19.2621  -52.8381 C.ar      23 UNK        -0.1150 
     11 C11         0.5804  -20.0774  -52.7662 C.ar      23 UNK        -0.0193 
     12 C12         1.6268  -19.7292  -51.9084 C.ar      23 UNK        -0.1150 
     13 C13         1.5457  -18.5703  -51.1322 C.ar      23 UNK        -0.0193 
     14 C14         0.4170  -17.7523  -51.2323 C.ar      23 UNK        -0.1150 
     15 C15         2.6744  -18.1897  -50.1838 C.3       23 UNK        -0.0205 
     16 S16         2.8339  -19.3293  -48.7693 S.3       23 UNK        -0.2404 
     17 C17         1.1633  -19.3123  -48.0270 C.3       23 UNK        -0.0398 
     18 CA          0.6285  -20.7472  -47.8164 C.3       11 UNK         0.1400 
     19 N           1.4486  -21.4899  -46.8541 N.am      11 UNK        -0.5000 
     20 C           1.4008  -22.8115  -46.6512 C.2       10 UNK         0.5000 
     21 O           0.6488  -23.5716  -47.2571 O.2       10 UNK        -0.5000 
     22 CA          2.3192  -23.3669  -45.5483 C.3       10 UNK         0.1400 
     23 CB          3.7633  -23.4981  -46.0554 C.3       10 UNK        -0.1800 
     24 N           2.2980  -22.5419  -44.3392 N.am      10 UNK        -0.5000 
     25 C           1.2246  -22.3952  -43.5502 C.2       9 UNK         0.5000 
     26 O           0.1519  -22.9654  -43.7438 O.2       9 UNK        -0.5000 
     27 CA          1.3570  -21.4179  -42.3683 C.3       9 UNK         0.1400 
     28 CB          1.9799  -22.1296  -41.1586 C.3       9 UNK        -0.1800 
     29 N           2.1193  -20.2015  -42.6698 N.am      9 UNK        -0.5000 
     30 C           1.8269  -19.3287  -43.6474 C.2       8 UNK         0.5000 
     31 O           0.9376  -19.5179  -44.4764 O.2       8 UNK        -0.5000 
     32 CA          2.6608  -18.0364  -43.7063 C.3       8 UNK         0.1400 
     33 CB          1.9131  -16.8810  -44.3972 C.3       8 UNK        -0.1800 
     34 N           3.0525  -17.6228  -42.3598 N.am      8 UNK        -0.5000 
     35 C           4.2937  -17.2982  -41.9737 C.2       7 UNK         0.5000 
     36 O           5.2564  -17.2660  -42.7409 O.2       7 UNK        -0.5000 
     37 CA          4.5164  -16.9665  -40.4819 C.3       7 UNK         0.1400 
     38 CB          4.8283  -15.4760  -40.2860 C.3       7 UNK        -0.1800 
     39 N           3.3870  -17.3354  -39.6252 N.am      7 UNK        -0.5000 
     40 C           3.0955  -18.5931  -39.2646 C.2       6 UNK         0.5000 
     41 O           3.7779  -19.5652  -39.5886 O.2       6 UNK        -0.5000 
     42 CA          1.8126  -18.8153  -38.4382 C.3       6 UNK         0.1400 
     43 CB          2.1480  -18.8960  -36.9415 C.3       6 UNK        -0.1800 
     44 N           0.7739  -17.8013  -38.6387 N.am      6 UNK        -0.5000 
     45 C           0.1825  -17.5046  -39.8043 C.2       5 UNK         0.5000 
     46 O           0.4843  -18.0342  -40.8742 O.2       5 UNK        -0.5000 
     47 CA         -0.9094  -16.4166  -39.7924 C.3       5 UNK         0.1400 
     48 CB         -1.2948  -15.9114  -38.3835 C.3       5 UNK        -0.1800 
     49 N          -0.5545  -15.2905  -40.6578 N.am      5 UNK        -0.5000 
     50 C           0.5368  -14.5111  -40.5768 C.2       4 UNK         0.5000 
     51 O           1.4234  -14.6688  -39.7356 O.2       4 UNK        -0.5000 
     52 CA          0.6750  -13.3652  -41.6041 C.3       4 UNK         0.1400 
     53 CB          1.9734  -13.4956  -42.4142 C.3       4 UNK        -0.1800 
     54 N          -0.4546  -13.2897  -42.5334 N.am      4 UNK        -0.5000 
     55 C          -1.6161  -12.6775  -42.2690 C.2       3 UNK         0.5000 
     56 O          -1.8406  -12.0574  -41.2291 O.2       3 UNK        -0.5000 
     57 CA         -2.7251  -12.8006  -43.3301 C.3       3 UNK         0.1400 
     58 CB         -2.7712  -11.5412  -44.2076 C.3       3 UNK        -0.1800 
     59 N          -2.6140  -13.9930  -44.1815 N.am      3 UNK        -0.5000 
     60 C          -2.8054  -15.2506  -43.7488 C.2       2 UNK         0.5000 
     61 O          -2.9608  -15.5287  -42.5592 O.2       2 UNK        -0.5000 
     62 CA         -2.8424  -16.3873  -44.7908 C.3       2 UNK         0.1400 
     63 CB         -4.1390  -17.2052  -44.6620 C.3       2 UNK        -0.1800 
     64 N          -2.7465  -15.8878  -46.1633 N.am      2 UNK        -0.5000 
     65 C          -1.7867  -16.2203  -47.0362 C.2       1 UNK         0.5000 
     66 O          -0.9080  -17.0482  -46.8016 O.2       1 UNK        -0.5000 
     67 C          -0.8559  -20.7352  -47.4007 C.2       11 UNK         0.5000 
     68 O          -1.7302  -20.8567  -48.2599 O.2       11 UNK        -0.5000 
     69 N          -1.1150  -20.6355  -46.0903 N.am      12 UNK        -0.5000 
     70 CA         -2.4451  -20.7345  -45.4976 C.3       12 UNK         0.1400 
     71 CB         -2.3807  -20.3176  -44.0204 C.3       12 UNK        -0.1800 
     72 C          -3.0519  -22.1427  -45.6430 C.2       12 UNK         0.5000 
     73 O          -4.2385  -22.2648  -45.9432 O.2       12 UNK        -0.5000 
     74 N          -2.2315  -23.1814  -45.4380 N.am      13 UNK        -0.5000 
     75 CA         -2.6309  -24.5798  -45.5821 C.3       13 UNK         0.1400 
     76 CB         -1.5734  -25.4877  -44.9350 C.3       13 UNK        -0.1800 
     77 C          -2.8675  -24.9802  -47.0487 C.2       13 UNK         0.5000 
     78 O          -3.8672  -25.6366  -47.3437 O.2       13 UNK        -0.5000 
     79 N          -1.9391  -24.5974  -47.9348 N.am      14 UNK        -0.5000 
     80 CA         -1.9501  -24.9840  -49.3441 C.3       14 UNK         0.1400 
     81 CB         -0.5292  -24.8683  -49.9131 C.3       14 UNK        -0.1800 
     82 C          -2.9425  -24.1809  -50.2021 C.2       14 UNK         0.5000 
     83 O          -3.4617  -24.7366  -51.1702 O.2       14 UNK        -0.5000 
     84 N          -3.1842  -22.9097  -49.8549 N.am      15 UNK        -0.5000 
     85 CA         -4.0091  -21.9947  -50.6367 C.3       15 UNK         0.1400 
     86 CB         -3.1066  -21.0485  -51.4517 C.3       15 UNK        -0.1800 
     87 C          -5.0061  -21.2396  -49.7481 C.2       15 UNK         0.5000 
     88 O          -6.1744  -21.6254  -49.7000 O.2       15 UNK        -0.5000 
     89 N          -4.5466  -20.1386  -49.1302 N.am      16 UNK        -0.5000 
     90 CA         -5.3554  -19.0822  -48.4971 C.3       16 UNK         0.1400 
     91 CB         -6.0445  -19.5897  -47.2134 C.3       16 UNK        -0.1800 
     92 C          -6.3590  -18.4227  -49.4761 C.2       16 UNK         0.5000 
     93 O          -7.4459  -18.0125  -49.0649 O.2       16 UNK        -0.5000 
     94 N          -5.9869  -18.3525  -50.7604 N.am      17 UNK        -0.5000 
     95 CA         -6.8344  -17.9099  -51.8635 C.3       17 UNK         0.1400 
     96 CB         -7.7349  -19.0777  -52.3254 C.3       17 UNK        -0.1800 
     97 C          -5.9448  -17.3153  -52.9691 C.2       17 UNK         0.5000 
     98 O          -5.1044  -16.4675  -52.6690 O.2       17 UNK        -0.5000 
     99 N          -6.1400  -17.7501  -54.2199 N.am      18 UNK        -0.5000 
    100 CA        -5.3428  -17.3552  -55.3810 C.3       18 UNK         0.1400 
    101 CB        -6.0878  -17.7936  -56.6522 C.3       18 UNK        -0.1800 
    102 C         -3.9347  -17.9771  -55.3569 C.2       18 UNK         0.5000 
    103 O         -3.7252  -19.0122  -54.7222 O.2       18 UNK        -0.5000 
    104 N         -3.0051  -17.3757  -56.1106 N.am      19 UNK        -0.5000 
    105 CA        -1.6272  -17.8542  -56.2805 C.3       19 UNK         0.1400 
    106 CB        -0.8286  -16.8084  -57.0724 C.3       19 UNK        -0.1800 
    107 C         -1.5232  -19.2379  -56.9559 C.2       19 UNK         0.5000 
    108 O         -0.5440  -19.9499  -56.7379 O.2       19 UNK        -0.5000 
    109 N         -2.5379  -19.5982  -57.7516 N.am      20 UNK        -0.5000 
    110 CA        -2.6511  -20.8877  -58.4314 C.3       20 UNK         0.1400 
    111 CB        -3.5237  -20.7005  -59.6828 C.3       20 UNK        -0.1800 
    112 C         -3.2314  -22.0043  -57.5396 C.2       20 UNK         0.5000 
    113 O         -3.1613  -23.1711  -57.9305 O.2       20 UNK        -0.5000 
    114 N         -3.8060  -21.6550  -56.3762 N.am      21 UNK        -0.5000 
    115 CA        -4.5525  -22.5774  -55.5110 C.3       21 UNK         0.1400 
    116 CB        -5.3050  -21.7841  -54.4332 C.3       21 UNK        -0.1800 
    117 C         -3.7064  -23.7045  -54.8851 C.2       21 UNK         0.5000 
    118 O         -4.2715  -24.7349  -54.5169 O.2       21 UNK        -0.5000 
    119 N         -2.3800  -23.5195  -54.8215 N.am      22 UNK        -0.5000 
    120 CA        -1.4153  -24.5705  -54.4518 C.3       22 UNK         0.1400 
    121 C         -1.2810  -25.7151  -55.5033 C.2       22 UNK         0.5000 
    122 N         -1.7713  -25.5674  -56.7300 N.am      22 UNK        -0.7600 
    123 O         -0.7190  -26.7632  -55.1975 O.2       22 UNK        -0.5000 
    124 C124       -0.0122  -24.0018  -54.1128 C.3       23 UNK        -0.0398 
    125 S125       -0.0316  -22.7665  -52.7717 S.3       23 UNK        -0.2404 
    126 C126        0.6686  -21.3262  -53.6253 C.3       23 UNK        -0.0205 
    127 H127       -3.5080  -11.9270  -48.9963 H         1 UNK         0.0600 
    128 H128       -2.4427  -11.0050  -47.9351 H         1 UNK         0.0600 
    129 H129       -3.8756  -11.7999  -47.2732 H         1 UNK         0.0600 
    130 H130       -3.2500  -14.1760  -49.1373 H         1 UNK         0.3000 
    131 H131       -0.7460  -15.2698  -48.6189 H         1 UNK         0.0600 
    132 H132       -3.3557  -16.6703  -49.3989 H         1 UNK         0.0800 
    133 H133       -1.7826  -17.4290  -49.4562 H         1 UNK         0.0800 
    134 H134       -2.7874  -17.8818  -52.0091 H         1 UNK         0.0800 
    135 H135       -2.0086  -16.9357  -53.2489 H         1 UNK         0.0800 
    136 H136       -1.3655  -19.5425  -53.4920 H         1 UNK         0.1150 
    137 H137        2.5003  -20.3622  -51.8383 H         1 UNK         0.1150 
    138 H138        0.3777  -16.8535  -50.6361 H         1 UNK         0.1150 
    139 H139        3.6152  -18.1802  -50.7357 H         1 UNK         0.0800 
    140 H140        2.5358  -17.1767  -49.8027 H         1 UNK         0.0800 
    141 H141        0.4809  -18.7384  -48.6533 H         1 UNK         0.0800 
    142 H142        1.2122  -18.7779  -47.0784 H         1 UNK         0.0800 
    143 H143        0.6809  -21.2713  -48.7738 H         1 UNK         0.0600 
    144 H144        2.0595  -20.9346  -46.2744 H         1 UNK         0.3000 
    145 H145        1.9586  -24.3639  -45.2858 H         1 UNK         0.0600 
    146 H146        4.4034  -23.9635  -45.3056 H         1 UNK         0.0600 
    147 H147        3.8064  -24.1207  -46.9500 H         1 UNK         0.0600 
    148 H148        4.1932  -22.5284  -46.3095 H         1 UNK         0.0600 
    149 H149        3.1393  -22.0335  -44.1107 H         1 UNK         0.3000 
    150 H150        0.3483  -21.1038  -42.0927 H         1 UNK         0.0600 
    151 H151        1.4445  -23.0515  -40.9271 H         1 UNK         0.0600 
    152 H152        1.9388  -21.5042  -40.2686 H         1 UNK         0.0600 
    153 H153        3.0236  -22.3907  -41.3374 H         1 UNK         0.0600 
    154 H154        2.8645  -19.9687  -42.0287 H         1 UNK         0.3000 
    155 H155        3.5419  -18.2768  -44.3040 H         1 UNK         0.0600 
    156 H156        2.5572  -16.0089  -44.5030 H         1 UNK         0.0600 
    157 H157        1.5915  -17.1561  -45.4015 H         1 UNK         0.0600 
    158 H158        1.0242  -16.5873  -43.8373 H         1 UNK         0.0600 
    159 H159        2.3090  -17.6561  -41.6681 H         1 UNK         0.3000 
    160 H160        5.3925  -17.5326  -40.1584 H         1 UNK         0.0600 
    161 H161        3.9804  -14.8518  -40.5602 H         1 UNK         0.0600 
    162 H162        5.6769  -15.1666  -40.8974 H         1 UNK         0.0600 
    163 H163        5.0802  -15.2596  -39.2477 H         1 UNK         0.0600 
    164 H164        2.7606  -16.5884  -39.3510 H         1 UNK         0.3000 
    165 H165        1.3909  -19.7742  -38.7436 H         1 UNK         0.0600 
    166 H166        1.2673  -19.1513  -36.3519 H         1 UNK         0.0600 
    167 H167        2.8987  -19.6639  -36.7495 H         1 UNK         0.0600 
    168 H168        2.5422  -17.9505  -36.5667 H         1 UNK         0.0600 
    169 H169        0.4837  -17.2910  -37.8173 H         1 UNK         0.3000 
    170 H170       -1.7964  -16.8745  -40.2326 H         1 UNK         0.0600 
    171 H171       -1.6421  -16.7296  -37.7514 H         1 UNK         0.0600 
    172 H172       -0.4623  -15.4235  -37.8753 H         1 UNK         0.0600 
    173 H173       -2.1091  -15.1890  -38.4428 H         1 UNK         0.0600 
    174 H174       -1.2189  -15.1052  -41.3996 H         1 UNK         0.3000 
    175 H175        0.7291  -12.4311  -41.0410 H         1 UNK         0.0600 
    176 H176        2.8414  -13.3046  -41.7841 H         1 UNK         0.0600 
    177 H177        2.0853  -14.4927  -42.8358 H         1 UNK         0.0600 
    178 H178        2.0102  -12.7750  -43.2314 H         1 UNK         0.0600 
    179 H179       -0.3558  -13.7714  -43.4152 H         1 UNK         0.3000 
    180 H180       -3.6738  -12.8664  -42.7931 H         1 UNK         0.0600 
    181 H181       -1.8577  -11.4214  -44.7907 H         1 UNK         0.0600 
    182 H182       -2.8887  -10.6443  -43.5979 H         1 UNK         0.0600 
    183 H183       -3.6139  -11.5731  -44.8970 H         1 UNK         0.0600 
    184 H184       -2.3720  -13.8319  -45.1524 H         1 UNK         0.3000 
    185 H185       -1.9984  -17.0398  -44.5601 H         1 UNK         0.0600 
    186 H186       -4.2224  -17.6606  -43.6744 H         1 UNK         0.0600 
    187 H187       -5.0229  -16.5850  -44.8152 H         1 UNK         0.0600 
    188 H188       -4.1686  -18.0115  -45.3930 H         1 UNK         0.0600 
    189 H189       -3.4369  -15.2066  -46.4455 H         1 UNK         0.3000 
    190 H190       -0.3419  -20.4507  -45.4552 H         1 UNK         0.3000 
    191 H191       -3.0873  -20.0298  -46.0262 H         1 UNK         0.0600 
    192 H192       -1.7837  -21.0135  -43.4311 H         1 UNK         0.0600 
    193 H193       -3.3783  -20.2867  -43.5811 H         1 UNK         0.0600 
    194 H194       -1.9407  -19.3275  -43.9056 H         1 UNK         0.0600 
    195 H195       -1.2815  -23.0076  -45.1250 H         1 UNK         0.3000 
    196 H196       -3.5695  -24.7230  -45.0425 H         1 UNK         0.0600 
    197 H197       -1.8470  -26.5390  -45.0322 H         1 UNK         0.0600 
    198 H198       -1.4720  -25.2755  -43.8705 H         1 UNK         0.0600 
    199 H199       -0.5934  -25.3580  -45.3956 H         1 UNK         0.0600 
    200 H200       -1.1161  -24.0948  -47.6101 H         1 UNK         0.3000 
    201 H201       -2.2418  -26.0348  -49.4069 H         1 UNK         0.0600 
    202 H202        0.1735  -25.4842  -49.3518 H         1 UNK         0.0600 
    203 H203       -0.1698  -23.8388  -49.8846 H         1 UNK         0.0600 
    204 H204       -0.4962  -25.2017  -50.9509 H         1 UNK         0.0600 
    205 H205       -2.7216  -22.5106  -49.0453 H         1 UNK         0.3000 
    206 H206       -4.6190  -22.5495  -51.3530 H         1 UNK         0.0600 
    207 H207       -2.6306  -21.5868  -52.2698 H         1 UNK         0.0600 
    208 H208       -3.6769  -20.2343  -51.8991 H         1 UNK         0.0600 
    209 H209       -2.3157  -20.6054  -50.8465 H         1 UNK         0.0600 
    210 H210       -3.5457  -19.9819  -49.1504 H         1 UNK         0.3000 
    211 H211       -4.6584  -18.2982  -48.2002 H         1 UNK         0.0600 
    212 H212       -6.7821  -20.3638  -47.4247 H         1 UNK         0.0600 
    213 H213       -6.5605  -18.7792  -46.6974 H         1 UNK         0.0600 
    214 H214       -5.3246  -19.9988  -46.5103 H         1 UNK         0.0600 
    215 H215       -5.0579  -18.6490  -51.0189 H         1 UNK         0.3000 
    216 H216       -7.4745  -17.0951  -51.5193 H         1 UNK         0.0600 
    217 H217       -7.1471  -19.9219  -52.6884 H         1 UNK         0.0600 
    218 H218       -8.4156  -18.7691  -53.1196 H         1 UNK         0.0600 
    219 H219       -8.3545  -19.4414  -51.5054 H         1 UNK         0.0600 
    220 H220       -6.8307  -18.4686  -54.3756 H         1 UNK         0.3000 
    221 H221       -5.2448  -16.2676  -55.3830 H         1 UNK         0.0600 
    222 H222       -7.0843  -17.3536  -56.6965 H         1 UNK         0.0600 
    223 H223       -6.1981  -18.8780  -56.7012 H         1 UNK         0.0600 
    224 H224       -5.5573  -17.4768  -57.5509 H         1 UNK         0.0600 
    225 H225       -3.2513  -16.5360  -56.6151 H         1 UNK         0.3000 
    226 H226       -1.1760  -17.9418  -55.2918 H         1 UNK         0.0600 
    227 H227       -0.8186  -15.8472  -56.5582 H         1 UNK         0.0600 
    228 H228        0.2097  -17.1200  -57.1944 H         1 UNK         0.0600 
    229 H229       -1.2445  -16.6539  -58.0688 H         1 UNK         0.0600 
    230 H230       -3.2975  -18.9474  -57.8837 H         1 UNK         0.3000 
    231 H231       -1.6591  -21.2103  -58.7548 H         1 UNK         0.0600 
    232 H232       -4.5342  -20.3805  -59.4251 H         1 UNK         0.0600 
    233 H233       -3.6077  -21.6312  -60.2456 H         1 UNK         0.0600 
    234 H234       -3.0960  -19.9555  -60.3540 H         1 UNK         0.0600 
    235 H235       -3.7722  -20.6883  -56.0757 H         1 UNK         0.3000 
    236 H236       -5.3020  -23.0651  -56.1379 H         1 UNK         0.0600 
    237 H237       -5.9716  -21.0452  -54.8777 H         1 UNK         0.0600 
    238 H238       -5.9142  -22.4426  -53.8128 H         1 UNK         0.0600 
    239 H239       -4.6169  -21.2602  -53.7745 H         1 UNK         0.0600 
    240 H240       -1.9971  -22.6441  -55.1444 H         1 UNK         0.3000 
    241 H241       -1.7965  -25.0438  -53.5447 H         1 UNK         0.0600 
    242 H242       -1.6753  -26.3214  -57.3915 H         1 UNK         0.3800 
    243 H243       -2.2456  -24.7162  -57.0126 H         1 UNK         0.3800 
    244 H244        0.4452  -23.5722  -55.0056 H         1 UNK         0.0800 
    245 H245        0.6538  -24.8052  -53.7931 H         1 UNK         0.0800 
    246 H246        0.1330  -21.1675  -54.5608 H         1 UNK         0.0800 
    247 H247        1.7068  -21.5290  -53.8922 H         1 UNK         0.0800 
@<TRIPOS>BOND
     1    1    2 1    
     2    1  127 1    
     3    1  128 1    
     4    1  129 1    
     5    2    3 2    
     6    2    4 am   BACKBONE|DICT|INTERRES
     7    4    5 1    
     8    4  130 1    
     9    5    6 1    
    10    5   65 1    
    11    5  131 1    
    12    6    7 1    
    13    6  132 1    
    14    6  133 1    
    15    7    8 1    
    16    8    9 1    
    17    8  134 1    
    18    8  135 1    
    19    9   10 ar   
    20    9   14 ar   
    21   10   11 ar   
    22   10  136 1    
    23   11   12 ar   
    24   11  126 1    
    25   12   13 ar   
    26   12  137 1    
    27   13   14 ar   
    28   13   15 1    
    29   14  138 1    
    30   15   16 1    
    31   15  139 1    
    32   15  140 1    
    33   16   17 1    
    34   17   18 1    
    35   17  141 1    
    36   17  142 1    
    37   18   19 1    
    38   18   67 1    
    39   18  143 1    
    40   19   20 am   BACKBONE|DICT|INTERRES
    41   19  144 1    
    42   20   21 2    
    43   20   22 1    
    44   22   23 1    
    45   22   24 1    
    46   22  145 1    
    47   23  146 1    
    48   23  147 1    
    49   23  148 1    
    50   24   25 am   BACKBONE|DICT|INTERRES
    51   24  149 1    
    52   25   26 2    
    53   25   27 1    
    54   27   28 1    
    55   27   29 1    
    56   27  150 1    
    57   28  151 1    
    58   28  152 1    
    59   28  153 1    
    60   29   30 am   BACKBONE|DICT|INTERRES
    61   29  154 1    
    62   30   31 2    
    63   30   32 1    
    64   32   33 1    
    65   32   34 1    
    66   32  155 1    
    67   33  156 1    
    68   33  157 1    
    69   33  158 1    
    70   34   35 am   BACKBONE|DICT|INTERRES
    71   34  159 1    
    72   35   36 2    
    73   35   37 1    
    74   37   38 1    
    75   37   39 1    
    76   37  160 1    
    77   38  161 1    
    78   38  162 1    
    79   38  163 1    
    80   39   40 am   BACKBONE|DICT|INTERRES
    81   39  164 1    
    82   40   41 2    
    83   40   42 1    
    84   42   43 1    
    85   42   44 1    
    86   42  165 1    
    87   43  166 1    
    88   43  167 1    
    89   43  168 1    
    90   44   45 am   BACKBONE|DICT|INTERRES
    91   44  169 1    
    92   45   46 2    
    93   45   47 1    
    94   47   48 1    
    95   47   49 1    
    96   47  170 1    
    97   48  171 1    
    98   48  172 1    
    99   48  173 1    
   100   49   50 am   BACKBONE|DICT|INTERRES
   101   49  174 1    
   102   50   51 2    
   103   50   52 1    
   104   52   53 1    
   105   52   54 1    
   106   52  175 1    
   107   53  176 1    
   108   53  177 1    
   109   53  178 1    
   110   54   55 am   BACKBONE|DICT|INTERRES
   111   54  179 1    
   112   55   56 2    
   113   55   57 1    
   114   57   58 1    
   115   57   59 1    
   116   57  180 1    
   117   58  181 1    
   118   58  182 1    
   119   58  183 1    
   120   59   60 am   BACKBONE|DICT|INTERRES
   121   59  184 1    
   122   60   61 2    
   123   60   62 1    
   124   62   63 1    
   125   62   64 1    
   126   62  185 1    
   127   63  186 1    
   128   63  187 1    
   129   63  188 1    
   130   64   65 am   BACKBONE|DICT|INTERRES
   131   64  189 1    
   132   65   66 2    
   133   67   68 2    
   134   67   69 am   BACKBONE|DICT|INTERRES
   135   69   70 1    
   136   69  190 1    
   137   70   71 1    
   138   70   72 1    
   139   70  191 1    
   140   71  192 1    
   141   71  193 1    
   142   71  194 1    
   143   72   73 2    
   144   72   74 am   BACKBONE|DICT|INTERRES
   145   74   75 1    
   146   74  195 1    
   147   75   76 1    
   148   75   77 1    
   149   75  196 1    
   150   76  197 1    
   151   76  198 1    
   152   76  199 1    
   153   77   78 2    
   154   77   79 am   BACKBONE|DICT|INTERRES
   155   79   80 1    
   156   79  200 1    
   157   80   81 1    
   158   80   82 1    
   159   80  201 1    
   160   81  202 1    
   161   81  203 1    
   162   81  204 1    
   163   82   83 2    
   164   82   84 am   BACKBONE|DICT|INTERRES
   165   84   85 1    
   166   84  205 1    
   167   85   86 1    
   168   85   87 1    
   169   85  206 1    
   170   86  207 1    
   171   86  208 1    
   172   86  209 1    
   173   87   88 2    
   174   87   89 am   BACKBONE|DICT|INTERRES
   175   89   90 1    
   176   89  210 1    
   177   90   91 1    
   178   90   92 1    
   179   90  211 1    
   180   91  212 1    
   181   91  213 1    
   182   91  214 1    
   183   92   93 2    
   184   92   94 am   BACKBONE|DICT|INTERRES
   185   94   95 1    
   186   94  215 1    
   187   95   96 1    
   188   95   97 1    
   189   95  216 1    
   190   96  217 1    
   191   96  218 1    
   192   96  219 1    
   193   97   98 2    
   194   97   99 am   BACKBONE|DICT|INTERRES
   195   99  100 1    
   196   99  220 1    
   197  100  101 1    
   198  100  102 1    
   199  100  221 1    
   200  101  222 1    
   201  101  223 1    
   202  101  224 1    
   203  102  103 2    
   204  102  104 am   BACKBONE|DICT|INTERRES
   205  104  105 1    
   206  104  225 1    
   207  105  106 1    
   208  105  107 1    
   209  105  226 1    
   210  106  227 1    
   211  106  228 1    
   212  106  229 1    
   213  107  108 2    
   214  107  109 am   BACKBONE|DICT|INTERRES
   215  109  110 1    
   216  109  230 1    
   217  110  111 1    
   218  110  112 1    
   219  110  231 1    
   220  111  232 1    
   221  111  233 1    
   222  111  234 1    
   223  112  113 2    
   224  112  114 am   BACKBONE|DICT|INTERRES
   225  114  115 1    
   226  114  235 1    
   227  115  116 1    
   228  115  117 1    
   229  115  236 1    
   230  116  237 1    
   231  116  238 1    
   232  116  239 1    
   233  117  118 2    
   234  117  119 am   BACKBONE|DICT|INTERRES
   235  119  120 1    
   236  119  240 1    
   237  120  121 1    
   238  120  124 1    
   239  120  241 1    
   240  121  122 am   BACKBONE|DICT|INTERRES
   241  121  123 2    
   242  122  242 1    
   243  122  243 1    
   244  124  125 1    
   245  124  244 1    
   246  124  245 1    
   247  125  126 1    
   248  126  246 1    
   249  126  247 1    
@<TRIPOS>SUBSTRUCTURE
     1 UNK         1 GROUP             0       ****    0 ROOT    
