@<TRIPOS>MOLECULE
3R540
247   249    1
SMALL
USER_CHARGES


@<TRIPOS>ATOM
      1 CA          0.2853  -10.2352  -45.5677 C.3       0 UNK        -0.1800 
      2 C           1.4283  -10.9039  -46.3173 C.2       0 UNK         0.5000 
      3 O           2.5238  -10.3454  -46.3902 O.2       0 UNK        -0.5000 
      4 N           1.1814  -12.0967  -46.8721 N.am      1 UNK        -0.5000 
      5 CA          2.1706  -12.9366  -47.5560 C.3       1 UNK         0.1400 
      6 C6          1.5147  -14.1470  -48.2589 C.3       23 UNK        -0.0398 
      7 S7          0.3988  -13.6184  -49.6015 S.3       23 UNK        -0.2404 
      8 C8          1.3002  -14.1978  -51.0716 C.3       23 UNK        -0.0205 
      9 C9          0.9322  -15.6319  -51.4184 C.ar      23 UNK        -0.0193 
     10 C10        -0.1314  -15.8812  -52.2882 C.ar      23 UNK        -0.1150 
     11 C11        -0.4696  -17.1887  -52.6470 C.ar      23 UNK        -0.0193 
     12 C12         0.2510  -18.2573  -52.1035 C.ar      23 UNK        -0.1150 
     13 C13         1.3035  -18.0228  -51.2112 C.ar      23 UNK        -0.0193 
     14 C14         1.6489  -16.7072  -50.8857 C.ar      23 UNK        -0.1150 
     15 C15         2.0791  -19.1838  -50.6026 C.3       23 UNK        -0.0205 
     16 S16         1.6834  -19.4183  -48.8374 S.3       23 UNK        -0.2404 
     17 C17        -0.0177  -20.0698  -48.9196 C.3       23 UNK        -0.0398 
     18 CA         -0.1916  -21.3862  -48.1232 C.3       11 UNK         0.1400 
     19 N           0.0016  -21.2145  -46.6774 N.am      11 UNK        -0.5000 
     20 C           0.0288  -22.2220  -45.7908 C.2       10 UNK         0.5000 
     21 O          -0.0459  -23.4096  -46.1042 O.2       10 UNK        -0.5000 
     22 CA          0.0921  -21.8523  -44.2976 C.3       10 UNK         0.1400 
     23 CB          1.5487  -21.7088  -43.8333 C.3       10 UNK        -0.1800 
     24 N          -0.6697  -20.6474  -43.9619 N.am      10 UNK        -0.5000 
     25 C          -1.9934  -20.5114  -44.1324 C.2       9 UNK         0.5000 
     26 O          -2.7152  -21.4000  -44.5822 O.2       9 UNK        -0.5000 
     27 CA         -2.6178  -19.1494  -43.7809 C.3       9 UNK         0.1400 
     28 CB         -3.0113  -19.1022  -42.2977 C.3       9 UNK        -0.1800 
     29 N          -1.7442  -18.0191  -44.0970 N.am      9 UNK        -0.5000 
     30 C          -1.3542  -17.6803  -45.3344 C.2       8 UNK         0.5000 
     31 O          -1.7278  -18.2664  -46.3514 O.2       8 UNK        -0.5000 
     32 CA         -0.3373  -16.5282  -45.4467 C.3       8 UNK         0.1400 
     33 CB         -1.0252  -15.1592  -45.3315 C.3       8 UNK        -0.1800 
     34 N           0.7208  -16.6293  -44.4415 N.am      8 UNK        -0.5000 
     35 C           1.6356  -17.6086  -44.4139 C.2       7 UNK         0.5000 
     36 O           1.7286  -18.4795  -45.2783 O.2       7 UNK        -0.5000 
     37 CA          2.5583  -17.6645  -43.1839 C.3       7 UNK         0.1400 
     38 CB          3.7903  -16.7680  -43.3666 C.3       7 UNK        -0.1800 
     39 N           1.8545  -17.2995  -41.9537 N.am      7 UNK        -0.5000 
     40 C           0.9534  -18.0864  -41.3478 C.2       6 UNK         0.5000 
     41 O           0.6493  -19.2070  -41.7522 O.2       6 UNK        -0.5000 
     42 CA          0.2477  -17.5190  -40.1023 C.3       6 UNK         0.1400 
     43 CB          1.0798  -17.7924  -38.8408 C.3       6 UNK        -0.1800 
     44 N          -0.0195  -16.0848  -40.2019 N.am      6 UNK        -0.5000 
     45 C          -0.8449  -15.5189  -41.0943 C.2       5 UNK         0.5000 
     46 O          -1.5128  -16.1560  -41.9070 O.2       5 UNK        -0.5000 
     47 CA         -0.8838  -13.9790  -41.1165 C.3       5 UNK         0.1400 
     48 CB         -1.9736  -13.4514  -40.1720 C.3       5 UNK        -0.1800 
     49 N           0.4048  -13.3772  -40.7599 N.am      5 UNK        -0.5000 
     50 C           1.5236  -13.5180  -41.4825 C.2       4 UNK         0.5000 
     51 O           1.5747  -14.1478  -42.5406 O.2       4 UNK        -0.5000 
     52 CA          2.8093  -12.9307  -40.8785 C.3       4 UNK         0.1400 
     53 CB          3.6933  -14.0517  -40.3098 C.3       4 UNK        -0.1800 
     54 N           3.5742  -12.1774  -41.8662 N.am      4 UNK        -0.5000 
     55 C           3.2317  -10.9795  -42.3497 C.2       3 UNK         0.5000 
     56 O           2.2214  -10.3685  -41.9984 O.2       3 UNK        -0.5000 
     57 CA          4.1742  -10.3400  -43.3863 C.3       3 UNK         0.1400 
     58 CB          5.3904   -9.6818  -42.7070 C.3       3 UNK        -0.1800 
     59 N           4.5819  -11.2306  -44.4792 N.am      3 UNK        -0.5000 
     60 C           5.3691  -12.3175  -44.4561 C.2       2 UNK         0.5000 
     61 O           5.8849  -12.7684  -43.4316 O.2       2 UNK        -0.5000 
     62 CA          5.6195  -13.0037  -45.8190 C.3       2 UNK         0.1400 
     63 CB          6.0905  -14.4669  -45.6889 C.3       2 UNK        -0.1800 
     64 N           4.4766  -12.8862  -46.7342 N.am      2 UNK        -0.5000 
     65 C           3.2483  -13.3949  -46.5551 C.2       1 UNK         0.5000 
     66 O           2.9338  -14.1500  -45.6361 O.2       1 UNK        -0.5000 
     67 C          -1.5642  -22.0156  -48.4320 C.2       11 UNK         0.5000 
     68 O          -1.6317  -22.9857  -49.1864 O.2       11 UNK        -0.5000 
     69 N          -2.6247  -21.4770  -47.8130 N.am      12 UNK        -0.5000 
     70 CA         -3.9921  -21.9800  -47.9429 C.3       12 UNK         0.1400 
     71 CB         -4.9745  -20.9776  -47.3202 C.3       12 UNK        -0.1800 
     72 C          -4.1658  -23.3782  -47.3248 C.2       12 UNK         0.5000 
     73 O          -4.8316  -24.2222  -47.9223 O.2       12 UNK        -0.5000 
     74 N          -3.5428  -23.6130  -46.1619 N.am      13 UNK        -0.5000 
     75 CA         -3.5381  -24.8992  -45.4643 C.3       13 UNK         0.1400 
     76 CB         -2.8838  -24.7419  -44.0842 C.3       13 UNK        -0.1800 
     77 C          -2.8479  -26.0087  -46.2768 C.2       13 UNK         0.5000 
     78 O          -3.4138  -27.0932  -46.4180 O.2       13 UNK        -0.5000 
     79 N          -1.6707  -25.7042  -46.8436 N.am      14 UNK        -0.5000 
     80 CA         -0.9160  -26.5979  -47.7276 C.3       14 UNK         0.1400 
     81 CB          0.4565  -25.9784  -48.0303 C.3       14 UNK        -0.1800 
     82 C          -1.6613  -26.9199  -49.0367 C.2       14 UNK         0.5000 
     83 O          -1.5488  -28.0356  -49.5451 O.2       14 UNK        -0.5000 
     84 N          -2.4348  -25.9477  -49.5350 N.am      15 UNK        -0.5000 
     85 CA         -3.2989  -26.0735  -50.7071 C.3       15 UNK         0.1400 
     86 CB         -3.5183  -24.6724  -51.2939 C.3       15 UNK        -0.1800 
     87 C          -4.6495  -26.7585  -50.4119 C.2       15 UNK         0.5000 
     88 O          -5.4382  -26.9296  -51.3404 O.2       15 UNK        -0.5000 
     89 N          -4.9135  -27.1154  -49.1454 N.am      16 UNK        -0.5000 
     90 CA         -6.1472  -27.7260  -48.6373 C.3       16 UNK         0.1400 
     91 CB         -6.3236  -29.1542  -49.1943 C.3       16 UNK        -0.1800 
     92 C          -7.3857  -26.8285  -48.8506 C.2       16 UNK         0.5000 
     93 O          -8.4366  -27.3055  -49.2820 O.2       16 UNK        -0.5000 
     94 N          -7.2171  -25.5339  -48.5468 N.am      17 UNK        -0.5000 
     95 CA         -8.1891  -24.4394  -48.6419 C.3       17 UNK         0.1400 
     96 CB         -9.4589  -24.7278  -47.8135 C.3       17 UNK        -0.1800 
     97 C          -8.5030  -23.9874  -50.0836 C.2       17 UNK         0.5000 
     98 O          -9.4416  -23.2130  -50.2806 O.2       17 UNK        -0.5000 
     99 N          -7.7030  -24.4321  -51.0625 N.am      18 UNK        -0.5000 
    100 CA        -7.7185  -23.9261  -52.4356 C.3       18 UNK         0.1400 
    101 CB        -7.1439  -25.0011  -53.3738 C.3       18 UNK        -0.1800 
    102 C         -6.9446  -22.5946  -52.5533 C.2       18 UNK         0.5000 
    103 O         -6.3830  -22.1040  -51.5708 O.2       18 UNK        -0.5000 
    104 N         -6.9169  -22.0375  -53.7713 N.am      19 UNK        -0.5000 
    105 CA        -6.3159  -20.7410  -54.1086 C.3       19 UNK         0.1400 
    106 CB        -6.7910  -20.3363  -55.5134 C.3       19 UNK        -0.1800 
    107 C         -4.7747  -20.6782  -54.0236 C.2       19 UNK         0.5000 
    108 O         -4.2158  -19.5947  -54.1926 O.2       19 UNK        -0.5000 
    109 N         -4.1129  -21.8221  -53.7896 N.am      20 UNK        -0.5000 
    110 CA        -2.6639  -21.9802  -53.6041 C.3       20 UNK         0.1400 
    111 CB        -2.2142  -21.3305  -52.2777 C.3       20 UNK        -0.1800 
    112 C         -1.8423  -21.5201  -54.8265 C.2       20 UNK         0.5000 
    113 O         -0.7947  -20.8916  -54.6753 O.2       20 UNK        -0.5000 
    114 N         -2.3640  -21.8476  -56.0179 N.am      21 UNK        -0.5000 
    115 CA        -1.8377  -21.5595  -57.3582 C.3       21 UNK         0.1400 
    116 CB        -0.4149  -22.1287  -57.5414 C.3       21 UNK        -0.1800 
    117 C         -1.9339  -20.0819  -57.7963 C.2       21 UNK         0.5000 
    118 O         -1.5144  -19.7672  -58.9118 O.2       21 UNK        -0.5000 
    119 N         -2.5054  -19.2076  -56.9587 N.am      22 UNK        -0.5000 
    120 CA        -2.8275  -17.8179  -57.3139 C.3       22 UNK         0.1400 
    121 C         -4.1263  -17.7189  -58.1628 C.2       22 UNK         0.5000 
    122 N         -4.2778  -16.6605  -58.9476 N.am      22 UNK        -0.7600 
    123 O         -5.0101  -18.5711  -58.1025 O.2       22 UNK        -0.5000 
    124 C124       -2.9113  -16.9088  -56.0641 C.3       23 UNK        -0.0398 
    125 S125       -1.2907  -16.7142  -55.2486 S.3       23 UNK        -0.2404 
    126 C126       -1.6220  -17.4333  -53.6103 C.3       23 UNK        -0.0205 
    127 H127        0.0625   -9.2646  -46.0108 H         1 UNK         0.0600 
    128 H128        0.5633  -10.0804  -44.5249 H         1 UNK         0.0600 
    129 H129       -0.6230  -10.8380  -45.5914 H         1 UNK         0.0600 
    130 H130        0.2605  -12.4999  -46.7842 H         1 UNK         0.3000 
    131 H131        2.6508  -12.3247  -48.3231 H         1 UNK         0.0600 
    132 H132        2.2781  -14.8158  -48.6572 H         1 UNK         0.0800 
    133 H133        0.9400  -14.7399  -47.5487 H         1 UNK         0.0800 
    134 H134        2.3769  -14.0998  -50.9251 H         1 UNK         0.0800 
    135 H135        1.0531  -13.5440  -51.9094 H         1 UNK         0.0800 
    136 H136       -0.6914  -15.0537  -52.7011 H         1 UNK         0.1150 
    137 H137       -0.0079  -19.2709  -52.3755 H         1 UNK         0.1150 
    138 H138        2.4722  -16.5270  -50.2099 H         1 UNK         0.1150 
    139 H139        1.8903  -20.1101  -51.1478 H         1 UNK         0.0800 
    140 H140        3.1479  -18.9876  -50.6991 H         1 UNK         0.0800 
    141 H141       -0.2803  -20.2291  -49.9666 H         1 UNK         0.0800 
    142 H142       -0.6980  -19.2988  -48.5560 H         1 UNK         0.0800 
    143 H143        0.5663  -22.0920  -48.4705 H         1 UNK         0.0600 
    144 H144        0.0849  -20.2647  -46.3395 H         1 UNK         0.3000 
    145 H145       -0.3510  -22.6771  -43.7374 H         1 UNK         0.0600 
    146 H146        1.6068  -21.5315  -42.7596 H         1 UNK         0.0600 
    147 H147        2.1133  -22.6187  -44.0408 H         1 UNK         0.0600 
    148 H148        2.0570  -20.8890  -44.3389 H         1 UNK         0.0600 
    149 H149       -0.1568  -19.8961  -43.5144 H         1 UNK         0.3000 
    150 H150       -3.5270  -19.0417  -44.3759 H         1 UNK         0.0600 
    151 H151       -3.6931  -19.9164  -42.0489 H         1 UNK         0.0600 
    152 H152       -3.5170  -18.1681  -42.0529 H         1 UNK         0.0600 
    153 H153       -2.1410  -19.1929  -41.6479 H         1 UNK         0.0600 
    154 H154       -1.4446  -17.4442  -43.3141 H         1 UNK         0.3000 
    155 H155        0.1289  -16.5985  -46.4311 H         1 UNK         0.0600 
    156 H156       -1.7483  -15.0194  -46.1358 H         1 UNK         0.0600 
    157 H157       -0.3005  -14.3474  -45.3957 H         1 UNK         0.0600 
    158 H158       -1.5592  -15.0520  -44.3873 H         1 UNK         0.0600 
    159 H159        0.7464  -15.9204  -43.7192 H         1 UNK         0.3000 
    160 H160        2.9103  -18.6936  -43.0829 H         1 UNK         0.0600 
    161 H161        3.5170  -15.7180  -43.4726 H         1 UNK         0.0600 
    162 H162        4.3434  -17.0547  -44.2615 H         1 UNK         0.0600 
    163 H163        4.4725  -16.8548  -42.5210 H         1 UNK         0.0600 
    164 H164        2.0074  -16.3655  -41.6031 H         1 UNK         0.3000 
    165 H165       -0.7097  -18.0333  -39.9981 H         1 UNK         0.0600 
    166 H166        0.5549  -17.4651  -37.9432 H         1 UNK         0.0600 
    167 H167        1.2786  -18.8591  -38.7287 H         1 UNK         0.0600 
    168 H168        2.0426  -17.2806  -38.8732 H         1 UNK         0.0600 
    169 H169        0.4837  -15.4832  -39.5673 H         1 UNK         0.3000 
    170 H170       -1.1317  -13.6694  -42.1341 H         1 UNK         0.0600 
    171 H171       -2.9478  -13.8694  -40.4294 H         1 UNK         0.0600 
    172 H172       -1.7686  -13.7121  -39.1330 H         1 UNK         0.0600 
    173 H173       -2.0598  -12.3666  -40.2363 H         1 UNK         0.0600 
    174 H174        0.4341  -12.8468  -39.9009 H         1 UNK         0.3000 
    175 H175        2.5446  -12.2555  -40.0620 H         1 UNK         0.0600 
    176 H176        4.0287  -14.7349  -41.0908 H         1 UNK         0.0600 
    177 H177        4.5790  -13.6440  -39.8223 H         1 UNK         0.0600 
    178 H178        3.1547  -14.6394  -39.5654 H         1 UNK         0.0600 
    179 H179        4.4067  -12.6172  -42.2481 H         1 UNK         0.3000 
    180 H180        3.6052   -9.5421  -43.8662 H         1 UNK         0.0600 
    181 H181        6.0118  -10.4091  -42.1840 H         1 UNK         0.0600 
    182 H182        5.0700   -8.9422  -41.9722 H         1 UNK         0.0600 
    183 H183        6.0169   -9.1662  -43.4347 H         1 UNK         0.0600 
    184 H184        4.1463  -10.9983  -45.3664 H         1 UNK         0.3000 
    185 H185        6.4331  -12.4448  -46.2834 H         1 UNK         0.0600 
    186 H186        7.0297  -14.5275  -45.1380 H         1 UNK         0.0600 
    187 H187        5.3637  -15.0796  -45.1583 H         1 UNK         0.0600 
    188 H188        6.2590  -14.9165  -46.6673 H         1 UNK         0.0600 
    189 H189        4.6200  -12.2606  -47.5153 H         1 UNK         0.3000 
    190 H190       -2.4797  -20.7056  -47.1758 H         1 UNK         0.3000 
    191 H191       -4.2217  -22.0587  -49.0080 H         1 UNK         0.0600 
    192 H192       -4.7930  -20.8403  -46.2539 H         1 UNK         0.0600 
    193 H193       -6.0039  -21.3188  -47.4372 H         1 UNK         0.0600 
    194 H194       -4.8990  -20.0023  -47.8013 H         1 UNK         0.0600 
    195 H195       -3.0681  -22.8407  -45.7000 H         1 UNK         0.3000 
    196 H196       -4.5782  -25.1953  -45.3130 H         1 UNK         0.0600 
    197 H197       -2.9275  -25.6765  -43.5238 H         1 UNK         0.0600 
    198 H198       -3.3910  -23.9813  -43.4903 H         1 UNK         0.0600 
    199 H199       -1.8350  -24.4589  -44.1668 H         1 UNK         0.0600 
    200 H200       -1.2517  -24.7963  -46.6575 H         1 UNK         0.3000 
    201 H201       -0.7575  -27.5388  -47.1968 H         1 UNK         0.0600 
    202 H202        1.0309  -25.8284  -47.1160 H         1 UNK         0.0600 
    203 H203        0.3593  -25.0117  -48.5265 H         1 UNK         0.0600 
    204 H204        1.0447  -26.6262  -48.6814 H         1 UNK         0.0600 
    205 H205       -2.4282  -25.0429  -49.0788 H         1 UNK         0.3000 
    206 H206       -2.7848  -26.6774  -51.4576 H         1 UNK         0.0600 
    207 H207       -2.5640  -24.1761  -51.4643 H         1 UNK         0.0600 
    208 H208       -4.0324  -24.7222  -52.2525 H         1 UNK         0.0600 
    209 H209       -4.1110  -24.0413  -50.6308 H         1 UNK         0.0600 
    210 H210       -4.2142  -26.9115  -48.4416 H         1 UNK         0.3000 
    211 H211       -6.0191  -27.8111  -47.5573 H         1 UNK         0.0600 
    212 H212       -6.5089  -29.1528  -50.2688 H         1 UNK         0.0600 
    213 H213       -7.1667  -29.6565  -48.7188 H         1 UNK         0.0600 
    214 H214       -5.4378  -29.7613  -49.0074 H         1 UNK         0.0600 
    215 H215       -6.2866  -25.2331  -48.2570 H         1 UNK         0.3000 
    216 H216       -7.6953  -23.5845  -48.1777 H         1 UNK         0.0600 
    217 H217      -10.0815  -23.8362  -47.7310 H         1 UNK         0.0600 
    218 H218       -9.2073  -25.0397  -46.7999 H         1 UNK         0.0600 
    219 H219      -10.0718  -25.5081  -48.2649 H         1 UNK         0.0600 
    220 H220       -6.9525  -25.0646  -50.8222 H         1 UNK         0.3000 
    221 H221       -8.7530  -23.7384  -52.7306 H         1 UNK         0.0600 
    222 H222       -6.0749  -25.1427  -53.2239 H         1 UNK         0.0600 
    223 H223       -7.6313  -25.9635  -53.2156 H         1 UNK         0.0600 
    224 H224       -7.2937  -24.7364  -54.4208 H         1 UNK         0.0600 
    225 H225       -7.3904  -22.5099  -54.5280 H         1 UNK         0.3000 
    226 H226       -6.6974  -20.0047  -53.3982 H         1 UNK         0.0600 
    227 H227       -7.8791  -20.3018  -55.5698 H         1 UNK         0.0600 
    228 H228       -6.4250  -19.3441  -55.7811 H         1 UNK         0.0600 
    229 H229       -6.4349  -21.0315  -56.2747 H         1 UNK         0.0600 
    230 H230       -4.6672  -22.6575  -53.6765 H         1 UNK         0.3000 
    231 H231       -2.4809  -23.0515  -53.5235 H         1 UNK         0.0600 
    232 H232       -1.1674  -21.5514  -52.0669 H         1 UNK         0.0600 
    233 H233       -2.7990  -21.7072  -51.4389 H         1 UNK         0.0600 
    234 H234       -2.3285  -20.2476  -52.2933 H         1 UNK         0.0600 
    235 H235       -3.2466  -22.3393  -56.0078 H         1 UNK         0.3000 
    236 H236       -2.4888  -22.1047  -58.0430 H         1 UNK         0.0600 
    237 H237       -0.1046  -22.0749  -58.5855 H         1 UNK         0.0600 
    238 H238        0.3229  -21.5778  -56.9578 H         1 UNK         0.0600 
    239 H239       -0.3663  -23.1763  -57.2443 H         1 UNK         0.0600 
    240 H240       -2.8541  -19.5324  -56.0667 H         1 UNK         0.3000 
    241 H241       -2.0172  -17.4365  -57.9390 H         1 UNK         0.0600 
    242 H242       -5.1189  -16.5770  -59.4977 H         1 UNK         0.3800 
    243 H243       -3.5696  -15.9456  -59.0187 H         1 UNK         0.3800 
    244 H244       -3.2475  -15.9076  -56.3392 H         1 UNK         0.0800 
    245 H245       -3.6519  -17.2891  -55.3595 H         1 UNK         0.0800 
    246 H246       -1.8060  -18.5000  -53.7323 H         1 UNK         0.0800 
    247 H247       -2.5326  -17.0015  -53.1927 H         1 UNK         0.0800 
@<TRIPOS>BOND
     1    1    2 1    
     2    1  127 1    
     3    1  128 1    
     4    1  129 1    
     5    2    3 2    
     6    2    4 am   BACKBONE|DICT|INTERRES
     7    4    5 1    
     8    4  130 1    
     9    5    6 1    
    10    5   65 1    
    11    5  131 1    
    12    6    7 1    
    13    6  132 1    
    14    6  133 1    
    15    7    8 1    
    16    8    9 1    
    17    8  134 1    
    18    8  135 1    
    19    9   10 ar   
    20    9   14 ar   
    21   10   11 ar   
    22   10  136 1    
    23   11   12 ar   
    24   11  126 1    
    25   12   13 ar   
    26   12  137 1    
    27   13   14 ar   
    28   13   15 1    
    29   14  138 1    
    30   15   16 1    
    31   15  139 1    
    32   15  140 1    
    33   16   17 1    
    34   17   18 1    
    35   17  141 1    
    36   17  142 1    
    37   18   19 1    
    38   18   67 1    
    39   18  143 1    
    40   19   20 am   BACKBONE|DICT|INTERRES
    41   19  144 1    
    42   20   21 2    
    43   20   22 1    
    44   22   23 1    
    45   22   24 1    
    46   22  145 1    
    47   23  146 1    
    48   23  147 1    
    49   23  148 1    
    50   24   25 am   BACKBONE|DICT|INTERRES
    51   24  149 1    
    52   25   26 2    
    53   25   27 1    
    54   27   28 1    
    55   27   29 1    
    56   27  150 1    
    57   28  151 1    
    58   28  152 1    
    59   28  153 1    
    60   29   30 am   BACKBONE|DICT|INTERRES
    61   29  154 1    
    62   30   31 2    
    63   30   32 1    
    64   32   33 1    
    65   32   34 1    
    66   32  155 1    
    67   33  156 1    
    68   33  157 1    
    69   33  158 1    
    70   34   35 am   BACKBONE|DICT|INTERRES
    71   34  159 1    
    72   35   36 2    
    73   35   37 1    
    74   37   38 1    
    75   37   39 1    
    76   37  160 1    
    77   38  161 1    
    78   38  162 1    
    79   38  163 1    
    80   39   40 am   BACKBONE|DICT|INTERRES
    81   39  164 1    
    82   40   41 2    
    83   40   42 1    
    84   42   43 1    
    85   42   44 1    
    86   42  165 1    
    87   43  166 1    
    88   43  167 1    
    89   43  168 1    
    90   44   45 am   BACKBONE|DICT|INTERRES
    91   44  169 1    
    92   45   46 2    
    93   45   47 1    
    94   47   48 1    
    95   47   49 1    
    96   47  170 1    
    97   48  171 1    
    98   48  172 1    
    99   48  173 1    
   100   49   50 am   BACKBONE|DICT|INTERRES
   101   49  174 1    
   102   50   51 2    
   103   50   52 1    
   104   52   53 1    
   105   52   54 1    
   106   52  175 1    
   107   53  176 1    
   108   53  177 1    
   109   53  178 1    
   110   54   55 am   BACKBONE|DICT|INTERRES
   111   54  179 1    
   112   55   56 2    
   113   55   57 1    
   114   57   58 1    
   115   57   59 1    
   116   57  180 1    
   117   58  181 1    
   118   58  182 1    
   119   58  183 1    
   120   59   60 am   BACKBONE|DICT|INTERRES
   121   59  184 1    
   122   60   61 2    
   123   60   62 1    
   124   62   63 1    
   125   62   64 1    
   126   62  185 1    
   127   63  186 1    
   128   63  187 1    
   129   63  188 1    
   130   64   65 am   BACKBONE|DICT|INTERRES
   131   64  189 1    
   132   65   66 2    
   133   67   68 2    
   134   67   69 am   BACKBONE|DICT|INTERRES
   135   69   70 1    
   136   69  190 1    
   137   70   71 1    
   138   70   72 1    
   139   70  191 1    
   140   71  192 1    
   141   71  193 1    
   142   71  194 1    
   143   72   73 2    
   144   72   74 am   BACKBONE|DICT|INTERRES
   145   74   75 1    
   146   74  195 1    
   147   75   76 1    
   148   75   77 1    
   149   75  196 1    
   150   76  197 1    
   151   76  198 1    
   152   76  199 1    
   153   77   78 2    
   154   77   79 am   BACKBONE|DICT|INTERRES
   155   79   80 1    
   156   79  200 1    
   157   80   81 1    
   158   80   82 1    
   159   80  201 1    
   160   81  202 1    
   161   81  203 1    
   162   81  204 1    
   163   82   83 2    
   164   82   84 am   BACKBONE|DICT|INTERRES
   165   84   85 1    
   166   84  205 1    
   167   85   86 1    
   168   85   87 1    
   169   85  206 1    
   170   86  207 1    
   171   86  208 1    
   172   86  209 1    
   173   87   88 2    
   174   87   89 am   BACKBONE|DICT|INTERRES
   175   89   90 1    
   176   89  210 1    
   177   90   91 1    
   178   90   92 1    
   179   90  211 1    
   180   91  212 1    
   181   91  213 1    
   182   91  214 1    
   183   92   93 2    
   184   92   94 am   BACKBONE|DICT|INTERRES
   185   94   95 1    
   186   94  215 1    
   187   95   96 1    
   188   95   97 1    
   189   95  216 1    
   190   96  217 1    
   191   96  218 1    
   192   96  219 1    
   193   97   98 2    
   194   97   99 am   BACKBONE|DICT|INTERRES
   195   99  100 1    
   196   99  220 1    
   197  100  101 1    
   198  100  102 1    
   199  100  221 1    
   200  101  222 1    
   201  101  223 1    
   202  101  224 1    
   203  102  103 2    
   204  102  104 am   BACKBONE|DICT|INTERRES
   205  104  105 1    
   206  104  225 1    
   207  105  106 1    
   208  105  107 1    
   209  105  226 1    
   210  106  227 1    
   211  106  228 1    
   212  106  229 1    
   213  107  108 2    
   214  107  109 am   BACKBONE|DICT|INTERRES
   215  109  110 1    
   216  109  230 1    
   217  110  111 1    
   218  110  112 1    
   219  110  231 1    
   220  111  232 1    
   221  111  233 1    
   222  111  234 1    
   223  112  113 2    
   224  112  114 am   BACKBONE|DICT|INTERRES
   225  114  115 1    
   226  114  235 1    
   227  115  116 1    
   228  115  117 1    
   229  115  236 1    
   230  116  237 1    
   231  116  238 1    
   232  116  239 1    
   233  117  118 2    
   234  117  119 am   BACKBONE|DICT|INTERRES
   235  119  120 1    
   236  119  240 1    
   237  120  121 1    
   238  120  124 1    
   239  120  241 1    
   240  121  122 am   BACKBONE|DICT|INTERRES
   241  121  123 2    
   242  122  242 1    
   243  122  243 1    
   244  124  125 1    
   245  124  244 1    
   246  124  245 1    
   247  125  126 1    
   248  126  246 1    
   249  126  247 1    
@<TRIPOS>SUBSTRUCTURE
     1 UNK         1 GROUP             0       ****    0 ROOT    
