@<TRIPOS>MOLECULE
3R540
247   249    1
SMALL
USER_CHARGES


@<TRIPOS>ATOM
      1 CA          2.6509  -16.8797  -46.9195 C.3       0 UNK        -0.1800 
      2 C           2.0632  -15.5786  -47.4427 C.2       0 UNK         0.5000 
      3 O           2.8041  -14.6100  -47.6026 O.2       0 UNK        -0.5000 
      4 N           0.7451  -15.5676  -47.7005 N.am      1 UNK        -0.5000 
      5 CA         -0.0872  -14.4677  -48.2166 C.3       1 UNK         0.1400 
      6 C6         -0.1919  -14.3973  -49.7729 C.3       23 UNK        -0.0398 
      7 S7          1.3852  -14.4681  -50.7017 S.3       23 UNK        -0.2404 
      8 C8          0.9025  -15.3536  -52.2312 C.3       23 UNK        -0.0205 
      9 C9          0.7281  -16.8737  -52.1287 C.ar      23 UNK        -0.0193 
     10 C10         0.6509  -17.6169  -53.3134 C.ar      23 UNK        -0.1150 
     11 C11         0.4555  -19.0027  -53.2859 C.ar      23 UNK        -0.0193 
     12 C12         0.3278  -19.6506  -52.0547 C.ar      23 UNK        -0.1150 
     13 C13         0.3803  -18.9241  -50.8658 C.ar      23 UNK        -0.0193 
     14 C14         0.6017  -17.5463  -50.9070 C.ar      23 UNK        -0.1150 
     15 C15         0.1595  -19.6167  -49.5355 C.3       23 UNK        -0.0205 
     16 S16         1.7212  -20.2469  -48.8493 S.3       23 UNK        -0.2404 
     17 C17         1.2806  -20.3486  -47.0838 C.3       23 UNK        -0.0398 
     18 CA          0.8287  -21.7375  -46.5805 C.3       11 UNK         0.1400 
     19 N           0.6113  -21.7046  -45.1353 N.am      11 UNK        -0.5000 
     20 C           0.3503  -22.7595  -44.3544 C.2       10 UNK         0.5000 
     21 O           0.2993  -23.9203  -44.7614 O.2       10 UNK        -0.5000 
     22 CA          0.0557  -22.4486  -42.8751 C.3       10 UNK         0.1400 
     23 CB          1.3555  -22.1813  -42.1014 C.3       10 UNK        -0.1800 
     24 N          -0.8499  -21.3085  -42.7135 N.am      10 UNK        -0.5000 
     25 C          -2.1263  -21.2964  -43.1247 C.2       9 UNK         0.5000 
     26 O          -2.6838  -22.2600  -43.6530 O.2       9 UNK        -0.5000 
     27 CA         -2.8969  -19.9732  -42.9539 C.3       9 UNK         0.1400 
     28 CB         -3.3441  -19.7825  -41.4969 C.3       9 UNK        -0.1800 
     29 N          -2.1316  -18.8035  -43.3908 N.am      9 UNK        -0.5000 
     30 C          -1.7071  -18.6041  -44.6463 C.2       8 UNK         0.5000 
     31 O          -1.9277  -19.3764  -45.5745 O.2       8 UNK        -0.5000 
     32 CA         -0.8398  -17.3659  -44.9133 C.3       8 UNK         0.1400 
     33 CB         -1.7030  -16.1034  -45.0433 C.3       8 UNK        -0.1800 
     34 N           0.1955  -17.1686  -43.9020 N.am      8 UNK        -0.5000 
     35 C           1.1640  -18.0482  -43.6078 C.2       7 UNK         0.5000 
     36 O           1.3222  -19.1167  -44.1946 O.2       7 UNK        -0.5000 
     37 CA          2.0728  -17.7023  -42.4190 C.3       7 UNK         0.1400 
     38 CB          3.1434  -16.6756  -42.8198 C.3       7 UNK        -0.1800 
     39 N           1.2996  -17.2034  -41.2832 N.am      7 UNK        -0.5000 
     40 C           0.4271  -17.9406  -40.5800 C.2       6 UNK         0.5000 
     41 O           0.2216  -19.1391  -40.7783 O.2       6 UNK        -0.5000 
     42 CA         -0.3828  -17.1934  -39.5055 C.3       6 UNK         0.1400 
     43 CB          0.4244  -17.0693  -38.2046 C.3       6 UNK        -0.1800 
     44 N          -0.7971  -15.8608  -39.9510 N.am      6 UNK        -0.5000 
     45 C          -1.6955  -15.6374  -40.9209 C.2       5 UNK         0.5000 
     46 O          -2.2931  -16.5337  -41.5161 O.2       5 UNK        -0.5000 
     47 CA         -1.9306  -14.1678  -41.3204 C.3       5 UNK         0.1400 
     48 CB         -2.9497  -13.5075  -40.3800 C.3       5 UNK        -0.1800 
     49 N          -0.6988  -13.3717  -41.3438 N.am      5 UNK        -0.5000 
     50 C           0.3211  -13.5900  -42.1834 C.2       4 UNK         0.5000 
     51 O           0.3367  -14.4987  -43.0160 O.2       4 UNK        -0.5000 
     52 CA          1.5503  -12.6861  -42.0370 C.3       4 UNK         0.1400 
     53 CB          2.4302  -13.1953  -40.8757 C.3       4 UNK        -0.1800 
     54 N           2.2806  -12.7106  -43.3028 N.am      4 UNK        -0.5000 
     55 C           3.3706  -12.0009  -43.6131 C.2       3 UNK         0.5000 
     56 O           3.9026  -11.1868  -42.8570 O.2       3 UNK        -0.5000 
     57 CA          3.9656  -12.2360  -45.0144 C.3       3 UNK         0.1400 
     58 CB          4.6432  -13.6138  -45.0919 C.3       3 UNK        -0.1800 
     59 N           2.9912  -12.1019  -46.1020 N.am      3 UNK        -0.5000 
     60 C           2.3446  -10.9667  -46.4113 C.2       2 UNK         0.5000 
     61 O           2.4663   -9.9210  -45.7716 O.2       2 UNK        -0.5000 
     62 CA          1.4351  -10.9626  -47.6584 C.3       2 UNK         0.1400 
     63 CB          2.1128  -10.2077  -48.8130 C.3       2 UNK        -0.1800 
     64 N           1.0549  -12.2907  -48.1369 N.am      2 UNK        -0.5000 
     65 C           0.1832  -13.1068  -47.5346 C.2       1 UNK         0.5000 
     66 O          -0.3987  -12.8264  -46.4860 O.2       1 UNK        -0.5000 
     67 C          -0.4115  -22.2685  -47.3282 C.2       11 UNK         0.5000 
     68 O          -0.2672  -23.1534  -48.1683 O.2       11 UNK        -0.5000 
     69 N          -1.6037  -21.7590  -46.9874 N.am      12 UNK        -0.5000 
     70 CA         -2.8913  -22.1801  -47.5428 C.3       12 UNK         0.1400 
     71 CB         -4.0145  -21.3233  -46.9401 C.3       12 UNK        -0.1800 
     72 C          -3.1758  -23.6728  -47.3133 C.2       12 UNK         0.5000 
     73 O          -3.5765  -24.3654  -48.2484 O.2       12 UNK        -0.5000 
     74 N          -2.9157  -24.1495  -46.0874 N.am      13 UNK        -0.5000 
     75 CA         -3.0401  -25.5561  -45.7052 C.3       13 UNK         0.1400 
     76 CB         -2.8490  -25.6902  -44.1870 C.3       13 UNK        -0.1800 
     77 C          -2.0666  -26.4785  -46.4648 C.2       13 UNK         0.5000 
     78 O          -2.4489  -27.5918  -46.8271 O.2       13 UNK        -0.5000 
     79 N          -0.8380  -25.9992  -46.7019 N.am      14 UNK        -0.5000 
     80 CA          0.1922  -26.7075  -47.4593 C.3       14 UNK         0.1400 
     81 CB          1.5641  -26.0803  -47.1652 C.3       14 UNK        -0.1800 
     82 C          -0.0909  -26.7271  -48.9735 C.2       14 UNK         0.5000 
     83 O           0.0302  -27.7817  -49.5983 O.2       14 UNK        -0.5000 
     84 N          -0.4460  -25.5646  -49.5372 N.am      15 UNK        -0.5000 
     85 CA         -0.6938  -25.3702  -50.9660 C.3       15 UNK         0.1400 
     86 CB         -0.6896  -23.8653  -51.2869 C.3       15 UNK        -0.1800 
     87 C          -2.0069  -26.0100  -51.4451 C.2       15 UNK         0.5000 
     88 O          -2.0480  -26.5374  -52.5563 O.2       15 UNK        -0.5000 
     89 N          -3.0579  -25.9156  -50.6167 N.am      16 UNK        -0.5000 
     90 CA         -4.4362  -26.3814  -50.8264 C.3       16 UNK         0.1400 
     91 CB         -4.4819  -27.9050  -51.0572 C.3       16 UNK        -0.1800 
     92 C          -5.2317  -25.6142  -51.9072 C.2       16 UNK         0.5000 
     93 O          -6.4373  -25.8361  -52.0354 O.2       16 UNK        -0.5000 
     94 N          -4.5814  -24.7037  -52.6432 N.am      17 UNK        -0.5000 
     95 CA         -5.1671  -23.8360  -53.6642 C.3       17 UNK         0.1400 
     96 CB         -4.0569  -23.4123  -54.6432 C.3       17 UNK        -0.1800 
     97 C          -5.8727  -22.6302  -53.0152 C.2       17 UNK         0.5000 
     98 O          -5.4344  -21.4906  -53.1859 O.2       17 UNK        -0.5000 
     99 N          -6.9351  -22.9150  -52.2487 N.am      18 UNK        -0.5000 
    100 CA        -7.6937  -21.9792  -51.4129 C.3       18 UNK         0.1400 
    101 CB        -8.5317  -21.0267  -52.2947 C.3       18 UNK        -0.1800 
    102 C         -6.7639  -21.2610  -50.4100 C.2       18 UNK         0.5000 
    103 O         -5.9427  -21.9276  -49.7779 O.2       18 UNK        -0.5000 
    104 N         -6.8866  -19.9326  -50.2905 N.am      19 UNK        -0.5000 
    105 CA        -5.9411  -19.0951  -49.5548 C.3       19 UNK         0.1400 
    106 CB        -6.5950  -17.7439  -49.2244 C.3       19 UNK        -0.1800 
    107 C         -4.6340  -18.8994  -50.3457 C.2       19 UNK         0.5000 
    108 O         -3.5530  -19.0994  -49.7924 O.2       19 UNK        -0.5000 
    109 N         -4.7689  -18.5164  -51.6232 N.am      20 UNK        -0.5000 
    110 CA        -3.6738  -18.2201  -52.5461 C.3       20 UNK         0.1400 
    111 CB        -2.8979  -16.9640  -52.0874 C.3       20 UNK        -0.1800 
    112 C         -4.2165  -18.0755  -53.9817 C.2       20 UNK         0.5000 
    113 O         -3.8260  -17.1513  -54.6981 O.2       20 UNK        -0.5000 
    114 N         -5.1087  -18.9871  -54.4027 N.am      21 UNK        -0.5000 
    115 CA        -5.6892  -19.0117  -55.7569 C.3       21 UNK         0.1400 
    116 CB        -6.8510  -20.0153  -55.8108 C.3       21 UNK        -0.1800 
    117 C         -4.6537  -19.3220  -56.8582 C.2       21 UNK         0.5000 
    118 O         -4.8666  -18.9763  -58.0207 O.2       21 UNK        -0.5000 
    119 N         -3.5372  -19.9323  -56.4510 N.am      22 UNK        -0.5000 
    120 CA        -2.2838  -20.0767  -57.2009 C.3       22 UNK         0.1400 
    121 C         -1.5594  -18.7386  -57.5448 C.2       22 UNK         0.5000 
    122 N         -1.8926  -17.6081  -56.9306 N.am      22 UNK        -0.7600 
    123 O         -0.6741  -18.7280  -58.3954 O.2       22 UNK        -0.5000 
    124 C124       -1.3260  -21.0650  -56.4791 C.3       23 UNK        -0.0398 
    125 S125       -1.1785  -20.7476  -54.6822 S.3       23 UNK        -0.2404 
    126 C126        0.3715  -19.7976  -54.5823 C.3       23 UNK        -0.0205 
    127 H127        3.2735  -16.6881  -46.0463 H         1 UNK         0.0600 
    128 H128        1.8760  -17.5858  -46.6313 H         1 UNK         0.0600 
    129 H129        3.2696  -17.3459  -47.6862 H         1 UNK         0.0600 
    130 H130        0.2307  -16.4156  -47.5242 H         1 UNK         0.3000 
    131 H131       -1.0927  -14.7269  -47.8803 H         1 UNK         0.0600 
    132 H132       -0.7286  -13.4982  -50.0812 H         1 UNK         0.0800 
    133 H133       -0.8227  -15.2191  -50.1123 H         1 UNK         0.0800 
    134 H134       -0.0220  -14.9190  -52.6138 H         1 UNK         0.0800 
    135 H135        1.6686  -15.1454  -52.9795 H         1 UNK         0.0800 
    136 H136        0.7357  -17.1099  -54.2645 H         1 UNK         0.1150 
    137 H137        0.1635  -20.7187  -52.0227 H         1 UNK         0.1150 
    138 H138        0.6540  -17.0086  -49.9755 H         1 UNK         0.1150 
    139 H139       -0.3123  -18.9189  -48.8424 H         1 UNK         0.0800 
    140 H140       -0.5450  -20.4410  -49.6587 H         1 UNK         0.0800 
    141 H141        0.5256  -19.5991  -46.8482 H         1 UNK         0.0800 
    142 H142        2.1721  -20.0494  -46.5313 H         1 UNK         0.0800 
    143 H143        1.6433  -22.4409  -46.7652 H         1 UNK         0.0600 
    144 H144        0.6739  -20.7869  -44.7006 H         1 UNK         0.3000 
    145 H145       -0.4262  -23.3267  -42.4403 H         1 UNK         0.0600 
    146 H146        1.1577  -22.0362  -41.0392 H         1 UNK         0.0600 
    147 H147        2.0452  -23.0211  -42.1934 H         1 UNK         0.0600 
    148 H148        1.8682  -21.2913  -42.4684 H         1 UNK         0.0600 
    149 H149       -0.4697  -20.4800  -42.2685 H         1 UNK         0.3000 
    150 H150       -3.7921  -20.0320  -43.5763 H         1 UNK         0.0600 
    151 H151       -3.9308  -20.6353  -41.1531 H         1 UNK         0.0600 
    152 H152       -3.9672  -18.8944  -41.3900 H         1 UNK         0.0600 
    153 H153       -2.4932  -19.6753  -40.8238 H         1 UNK         0.0600 
    154 H154       -1.9470  -18.0900  -42.6921 H         1 UNK         0.3000 
    155 H155       -0.3379  -17.5246  -45.8670 H         1 UNK         0.0600 
    156 H156       -2.2523  -15.8929  -44.1265 H         1 UNK         0.0600 
    157 H157       -2.4337  -16.2107  -45.8458 H         1 UNK         0.0600 
    158 H158       -1.0928  -15.2300  -45.2717 H         1 UNK         0.0600 
    159 H159        0.1714  -16.2818  -43.4037 H         1 UNK         0.3000 
    160 H160        2.5798  -18.6179  -42.1070 H         1 UNK         0.0600 
    161 H161        3.8045  -16.4477  -41.9838 H         1 UNK         0.0600 
    162 H162        2.7036  -15.7403  -43.1647 H         1 UNK         0.0600 
    163 H163        3.7662  -17.0611  -43.6277 H         1 UNK         0.0600 
    164 H164        1.3751  -16.2196  -41.0771 H         1 UNK         0.3000 
    165 H165       -1.2803  -17.7796  -39.2965 H         1 UNK         0.0600 
    166 H166       -0.1688  -16.6063  -37.4158 H         1 UNK         0.0600 
    167 H167        0.7340  -18.0509  -37.8433 H         1 UNK         0.0600 
    168 H168        1.3257  -16.4707  -38.3426 H         1 UNK         0.0600 
    169 H169       -0.3553  -15.0691  -39.5080 H         1 UNK         0.3000 
    170 H170       -2.3494  -14.1642  -42.3289 H         1 UNK         0.0600 
    171 H171       -3.8831  -14.0718  -40.3583 H         1 UNK         0.0600 
    172 H172       -2.5773  -13.4494  -39.3565 H         1 UNK         0.0600 
    173 H173       -3.1910  -12.4962  -40.7078 H         1 UNK         0.0600 
    174 H174       -0.6380  -12.6132  -40.6796 H         1 UNK         0.3000 
    175 H175        1.2193  -11.6650  -41.8389 H         1 UNK         0.0600 
    176 H176        2.8388  -14.1842  -41.0841 H         1 UNK         0.0600 
    177 H177        3.2668  -12.5256  -40.6790 H         1 UNK         0.0600 
    178 H178        1.8602  -13.2644  -39.9484 H         1 UNK         0.0600 
    179 H179        1.8820  -13.3404  -43.9887 H         1 UNK         0.3000 
    180 H180        4.7362  -11.4788  -45.1733 H         1 UNK         0.0600 
    181 H181        3.9228  -14.4247  -44.9832 H         1 UNK         0.0600 
    182 H182        5.3884  -13.7291  -44.3038 H         1 UNK         0.0600 
    183 H183        5.1543  -13.7483  -46.0453 H         1 UNK         0.0600 
    184 H184        2.8492  -12.9204  -46.6892 H         1 UNK         0.3000 
    185 H185        0.5234  -10.4245  -47.3906 H         1 UNK         0.0600 
    186 H186        2.3815   -9.1933  -48.5152 H         1 UNK         0.0600 
    187 H187        3.0263  -10.7078  -49.1374 H         1 UNK         0.0600 
    188 H188        1.4499  -10.1264  -49.6747 H         1 UNK         0.0600 
    189 H189        1.5354  -12.6345  -48.9581 H         1 UNK         0.3000 
    190 H190       -1.6433  -20.9948  -46.3154 H         1 UNK         0.3000 
    191 H191       -2.8656  -22.0040  -48.6203 H         1 UNK         0.0600 
    192 H192       -4.0395  -21.3946  -45.8529 H         1 UNK         0.0600 
    193 H193       -4.9907  -21.6374  -47.3094 H         1 UNK         0.0600 
    194 H194       -3.8872  -20.2734  -47.2023 H         1 UNK         0.0600 
    195 H195       -2.6091  -23.5048  -45.3665 H         1 UNK         0.3000 
    196 H196       -4.0552  -25.8765  -45.9487 H         1 UNK         0.0600 
    197 H197       -1.8593  -25.3565  -43.8741 H         1 UNK         0.0600 
    198 H198       -2.9628  -26.7271  -43.8686 H         1 UNK         0.0600 
    199 H199       -3.5867  -25.0995  -43.6435 H         1 UNK         0.0600 
    200 H200       -0.5903  -25.0876  -46.3341 H         1 UNK         0.3000 
    201 H201        0.2192  -27.7429  -47.1128 H         1 UNK         0.0600 
    202 H202        1.6033  -25.0323  -47.4634 H         1 UNK         0.0600 
    203 H203        2.3563  -26.6045  -47.7010 H         1 UNK         0.0600 
    204 H204        1.8000  -26.1320  -46.1021 H         1 UNK         0.0600 
    205 H205       -0.4800  -24.7276  -48.9558 H         1 UNK         0.3000 
    206 H206        0.1248  -25.8359  -51.5189 H         1 UNK         0.0600 
    207 H207        0.2631  -23.4077  -51.0189 H         1 UNK         0.0600 
    208 H208       -0.8460  -23.6884  -52.3520 H         1 UNK         0.0600 
    209 H209       -1.4752  -23.3353  -50.7463 H         1 UNK         0.0600 
    210 H210       -2.9290  -25.4126  -49.7420 H         1 UNK         0.3000 
    211 H211       -4.9520  -26.1820  -49.8861 H         1 UNK         0.0600 
    212 H212       -4.0437  -28.1868  -52.0147 H         1 UNK         0.0600 
    213 H213       -5.5101  -28.2686  -51.0531 H         1 UNK         0.0600 
    214 H214       -3.9467  -28.4383  -50.2713 H         1 UNK         0.0600 
    215 H215       -3.5975  -24.5772  -52.4625 H         1 UNK         0.3000 
    216 H216       -5.9163  -24.3958  -54.2277 H         1 UNK         0.0600 
    217 H217       -4.4495  -22.7635  -55.4272 H         1 UNK         0.0600 
    218 H218       -3.6104  -24.2784  -55.1319 H         1 UNK         0.0600 
    219 H219       -3.2601  -22.8695  -54.1341 H         1 UNK         0.0600 
    220 H220       -7.1563  -23.8970  -52.1237 H         1 UNK         0.3000 
    221 H221       -8.3827  -22.5817  -50.8195 H         1 UNK         0.0600 
    222 H222       -7.9054  -20.3313  -52.8527 H         1 UNK         0.0600 
    223 H223       -9.1274  -21.5856  -53.0165 H         1 UNK         0.0600 
    224 H224       -9.2283  -20.4415  -51.6933 H         1 UNK         0.0600 
    225 H225       -7.5981  -19.4606  -50.8282 H         1 UNK         0.3000 
    226 H226       -5.6980  -19.5841  -48.6104 H         1 UNK         0.0600 
    227 H227       -7.4803  -17.8779  -48.6026 H         1 UNK         0.0600 
    228 H228       -5.9054  -17.1035  -48.6727 H         1 UNK         0.0600 
    229 H229       -6.8957  -17.2047  -50.1234 H         1 UNK         0.0600 
    230 H230       -5.6974  -18.4000  -52.0027 H         1 UNK         0.3000 
    231 H231       -2.9871  -19.0691  -52.5522 H         1 UNK         0.0600 
    232 H232       -2.4142  -17.1168  -51.1232 H         1 UNK         0.0600 
    233 H233       -3.5542  -16.0977  -52.0012 H         1 UNK         0.0600 
    234 H234       -2.1087  -16.7093  -52.7947 H         1 UNK         0.0600 
    235 H235       -5.3141  -19.7923  -53.8113 H         1 UNK         0.3000 
    236 H236       -6.0927  -18.0187  -55.9649 H         1 UNK         0.0600 
    237 H237       -7.3141  -20.0213  -56.7983 H         1 UNK         0.0600 
    238 H238       -6.5184  -21.0319  -55.6025 H         1 UNK         0.0600 
    239 H239       -7.6294  -19.7568  -55.0944 H         1 UNK         0.0600 
    240 H240       -3.4714  -20.1762  -55.4733 H         1 UNK         0.3000 
    241 H241       -2.5451  -20.5200  -58.1634 H         1 UNK         0.0600 
    242 H242       -1.4136  -16.7576  -57.1788 H         1 UNK         0.3800 
    243 H243       -2.6114  -17.5811  -56.2154 H         1 UNK         0.3800 
    244 H244       -1.7160  -22.0774  -56.5913 H         1 UNK         0.0800 
    245 H245       -0.3376  -21.0843  -56.9421 H         1 UNK         0.0800 
    246 H246        1.2190  -20.4813  -54.6441 H         1 UNK         0.0800 
    247 H247        0.4462  -19.1285  -55.4402 H         1 UNK         0.0800 
@<TRIPOS>BOND
     1    1    2 1    
     2    1  127 1    
     3    1  128 1    
     4    1  129 1    
     5    2    3 2    
     6    2    4 am   BACKBONE|DICT|INTERRES
     7    4    5 1    
     8    4  130 1    
     9    5    6 1    
    10    5   65 1    
    11    5  131 1    
    12    6    7 1    
    13    6  132 1    
    14    6  133 1    
    15    7    8 1    
    16    8    9 1    
    17    8  134 1    
    18    8  135 1    
    19    9   10 ar   
    20    9   14 ar   
    21   10   11 ar   
    22   10  136 1    
    23   11   12 ar   
    24   11  126 1    
    25   12   13 ar   
    26   12  137 1    
    27   13   14 ar   
    28   13   15 1    
    29   14  138 1    
    30   15   16 1    
    31   15  139 1    
    32   15  140 1    
    33   16   17 1    
    34   17   18 1    
    35   17  141 1    
    36   17  142 1    
    37   18   19 1    
    38   18   67 1    
    39   18  143 1    
    40   19   20 am   BACKBONE|DICT|INTERRES
    41   19  144 1    
    42   20   21 2    
    43   20   22 1    
    44   22   23 1    
    45   22   24 1    
    46   22  145 1    
    47   23  146 1    
    48   23  147 1    
    49   23  148 1    
    50   24   25 am   BACKBONE|DICT|INTERRES
    51   24  149 1    
    52   25   26 2    
    53   25   27 1    
    54   27   28 1    
    55   27   29 1    
    56   27  150 1    
    57   28  151 1    
    58   28  152 1    
    59   28  153 1    
    60   29   30 am   BACKBONE|DICT|INTERRES
    61   29  154 1    
    62   30   31 2    
    63   30   32 1    
    64   32   33 1    
    65   32   34 1    
    66   32  155 1    
    67   33  156 1    
    68   33  157 1    
    69   33  158 1    
    70   34   35 am   BACKBONE|DICT|INTERRES
    71   34  159 1    
    72   35   36 2    
    73   35   37 1    
    74   37   38 1    
    75   37   39 1    
    76   37  160 1    
    77   38  161 1    
    78   38  162 1    
    79   38  163 1    
    80   39   40 am   BACKBONE|DICT|INTERRES
    81   39  164 1    
    82   40   41 2    
    83   40   42 1    
    84   42   43 1    
    85   42   44 1    
    86   42  165 1    
    87   43  166 1    
    88   43  167 1    
    89   43  168 1    
    90   44   45 am   BACKBONE|DICT|INTERRES
    91   44  169 1    
    92   45   46 2    
    93   45   47 1    
    94   47   48 1    
    95   47   49 1    
    96   47  170 1    
    97   48  171 1    
    98   48  172 1    
    99   48  173 1    
   100   49   50 am   BACKBONE|DICT|INTERRES
   101   49  174 1    
   102   50   51 2    
   103   50   52 1    
   104   52   53 1    
   105   52   54 1    
   106   52  175 1    
   107   53  176 1    
   108   53  177 1    
   109   53  178 1    
   110   54   55 am   BACKBONE|DICT|INTERRES
   111   54  179 1    
   112   55   56 2    
   113   55   57 1    
   114   57   58 1    
   115   57   59 1    
   116   57  180 1    
   117   58  181 1    
   118   58  182 1    
   119   58  183 1    
   120   59   60 am   BACKBONE|DICT|INTERRES
   121   59  184 1    
   122   60   61 2    
   123   60   62 1    
   124   62   63 1    
   125   62   64 1    
   126   62  185 1    
   127   63  186 1    
   128   63  187 1    
   129   63  188 1    
   130   64   65 am   BACKBONE|DICT|INTERRES
   131   64  189 1    
   132   65   66 2    
   133   67   68 2    
   134   67   69 am   BACKBONE|DICT|INTERRES
   135   69   70 1    
   136   69  190 1    
   137   70   71 1    
   138   70   72 1    
   139   70  191 1    
   140   71  192 1    
   141   71  193 1    
   142   71  194 1    
   143   72   73 2    
   144   72   74 am   BACKBONE|DICT|INTERRES
   145   74   75 1    
   146   74  195 1    
   147   75   76 1    
   148   75   77 1    
   149   75  196 1    
   150   76  197 1    
   151   76  198 1    
   152   76  199 1    
   153   77   78 2    
   154   77   79 am   BACKBONE|DICT|INTERRES
   155   79   80 1    
   156   79  200 1    
   157   80   81 1    
   158   80   82 1    
   159   80  201 1    
   160   81  202 1    
   161   81  203 1    
   162   81  204 1    
   163   82   83 2    
   164   82   84 am   BACKBONE|DICT|INTERRES
   165   84   85 1    
   166   84  205 1    
   167   85   86 1    
   168   85   87 1    
   169   85  206 1    
   170   86  207 1    
   171   86  208 1    
   172   86  209 1    
   173   87   88 2    
   174   87   89 am   BACKBONE|DICT|INTERRES
   175   89   90 1    
   176   89  210 1    
   177   90   91 1    
   178   90   92 1    
   179   90  211 1    
   180   91  212 1    
   181   91  213 1    
   182   91  214 1    
   183   92   93 2    
   184   92   94 am   BACKBONE|DICT|INTERRES
   185   94   95 1    
   186   94  215 1    
   187   95   96 1    
   188   95   97 1    
   189   95  216 1    
   190   96  217 1    
   191   96  218 1    
   192   96  219 1    
   193   97   98 2    
   194   97   99 am   BACKBONE|DICT|INTERRES
   195   99  100 1    
   196   99  220 1    
   197  100  101 1    
   198  100  102 1    
   199  100  221 1    
   200  101  222 1    
   201  101  223 1    
   202  101  224 1    
   203  102  103 2    
   204  102  104 am   BACKBONE|DICT|INTERRES
   205  104  105 1    
   206  104  225 1    
   207  105  106 1    
   208  105  107 1    
   209  105  226 1    
   210  106  227 1    
   211  106  228 1    
   212  106  229 1    
   213  107  108 2    
   214  107  109 am   BACKBONE|DICT|INTERRES
   215  109  110 1    
   216  109  230 1    
   217  110  111 1    
   218  110  112 1    
   219  110  231 1    
   220  111  232 1    
   221  111  233 1    
   222  111  234 1    
   223  112  113 2    
   224  112  114 am   BACKBONE|DICT|INTERRES
   225  114  115 1    
   226  114  235 1    
   227  115  116 1    
   228  115  117 1    
   229  115  236 1    
   230  116  237 1    
   231  116  238 1    
   232  116  239 1    
   233  117  118 2    
   234  117  119 am   BACKBONE|DICT|INTERRES
   235  119  120 1    
   236  119  240 1    
   237  120  121 1    
   238  120  124 1    
   239  120  241 1    
   240  121  122 am   BACKBONE|DICT|INTERRES
   241  121  123 2    
   242  122  242 1    
   243  122  243 1    
   244  124  125 1    
   245  124  244 1    
   246  124  245 1    
   247  125  126 1    
   248  126  246 1    
   249  126  247 1    
@<TRIPOS>SUBSTRUCTURE
     1 UNK         1 GROUP             0       ****    0 ROOT    
