@<TRIPOS>MOLECULE
3R540
247   249    1
SMALL
USER_CHARGES


@<TRIPOS>ATOM
      1 CA          5.5527  -10.3758  -46.9728 C.3       0 UNK        -0.1800 
      2 C           4.7267  -11.5602  -47.4528 C.2       0 UNK         0.5000 
      3 O           3.9584  -11.4248  -48.4044 O.2       0 UNK        -0.5000 
      4 N           4.8656  -12.7138  -46.7851 N.am      1 UNK        -0.5000 
      5 CA          4.2134  -14.0028  -47.0649 C.3       1 UNK         0.1400 
      6 C6          4.5734  -14.5960  -48.4725 C.3       23 UNK        -0.0398 
      7 S7          3.2324  -14.9785  -49.6613 S.3       23 UNK        -0.2404 
      8 C8          2.7416  -16.6268  -49.0650 C.3       23 UNK        -0.0205 
      9 C9          1.6261  -17.2720  -49.8731 C.ar      23 UNK        -0.0193 
     10 C10         0.4714  -16.5610  -50.2202 C.ar      23 UNK        -0.1150 
     11 C11        -0.5553  -17.1835  -50.9360 C.ar      23 UNK        -0.0193 
     12 C12        -0.4326  -18.5310  -51.2832 C.ar      23 UNK        -0.1150 
     13 C13         0.7080  -19.2544  -50.9305 C.ar      23 UNK        -0.0193 
     14 C14         1.7342  -18.6189  -50.2289 C.ar      23 UNK        -0.1150 
     15 C15         0.8245  -20.7271  -51.2904 C.3       23 UNK        -0.0205 
     16 S16        -0.4644  -21.7245  -50.4841 S.3       23 UNK        -0.2404 
     17 C17        -0.2124  -21.3285  -48.7221 C.3       23 UNK        -0.0398 
     18 CA         -0.4092  -22.5459  -47.7905 C.3       11 UNK         0.1400 
     19 N           0.2293  -22.3165  -46.4917 N.am      11 UNK        -0.5000 
     20 C           0.3911  -23.2435  -45.5384 C.2       10 UNK         0.5000 
     21 O           0.0755  -24.4245  -45.6729 O.2       10 UNK        -0.5000 
     22 CA          0.9364  -22.7492  -44.1871 C.3       10 UNK         0.1400 
     23 CB          2.4708  -22.6821  -44.1978 C.3       10 UNK        -0.1800 
     24 N           0.3798  -21.4431  -43.8282 N.am      10 UNK        -0.5000 
     25 C          -0.8978  -21.2492  -43.4693 C.2       9 UNK         0.5000 
     26 O          -1.7135  -22.1620  -43.3469 O.2       9 UNK        -0.5000 
     27 CA         -1.3551  -19.7938  -43.2601 C.3       9 UNK         0.1400 
     28 CB         -1.0675  -19.3443  -41.8205 C.3       9 UNK        -0.1800 
     29 N          -0.7351  -18.8639  -44.2077 N.am      9 UNK        -0.5000 
     30 C          -0.9631  -18.8788  -45.5306 C.2       8 UNK         0.5000 
     31 O          -1.7630  -19.6428  -46.0677 O.2       8 UNK        -0.5000 
     32 CA         -0.1221  -17.9381  -46.4159 C.3       8 UNK         0.1400 
     33 CB         -0.8508  -16.6119  -46.6645 C.3       8 UNK        -0.1800 
     34 N           1.2143  -17.6790  -45.8770 N.am      8 UNK        -0.5000 
     35 C           2.1590  -18.6226  -45.7419 C.2       7 UNK         0.5000 
     36 O           1.9816  -19.7974  -46.0676 O.2       7 UNK        -0.5000 
     37 CA          3.5032  -18.2123  -45.1161 C.3       7 UNK         0.1400 
     38 CB          4.5830  -18.0190  -46.1892 C.3       7 UNK        -0.1800 
     39 N           3.3820  -16.9866  -44.3254 N.am      7 UNK        -0.5000 
     40 C           3.6791  -16.8900  -43.0251 C.2       6 UNK         0.5000 
     41 O           4.2077  -17.7893  -42.3696 O.2       6 UNK        -0.5000 
     42 CA          3.2987  -15.5718  -42.3226 C.3       6 UNK         0.1400 
     43 CB          4.4128  -14.5308  -42.5108 C.3       6 UNK        -0.1800 
     44 N           2.0153  -14.9786  -42.7208 N.am      6 UNK        -0.5000 
     45 C           0.8294  -15.6063  -42.8008 C.2       5 UNK         0.5000 
     46 O           0.6911  -16.8247  -42.6916 O.2       5 UNK        -0.5000 
     47 CA         -0.4160  -14.7279  -43.0568 C.3       5 UNK         0.1400 
     48 CB         -1.7310  -15.4048  -42.6209 C.3       5 UNK        -0.1800 
     49 N          -0.3168  -13.3817  -42.4900 N.am      5 UNK        -0.5000 
     50 C          -0.0813  -13.0337  -41.2145 C.2       4 UNK         0.5000 
     51 O          -0.0397  -13.8386  -40.2829 O.2       4 UNK        -0.5000 
     52 CA          0.1762  -11.5309  -40.9427 C.3       4 UNK         0.1400 
     53 CB          1.2114  -11.3111  -39.8198 C.3       4 UNK        -0.1800 
     54 N           0.5502  -10.7644  -42.1424 N.am      4 UNK        -0.5000 
     55 C           1.6004  -10.9868  -42.9466 C.2       3 UNK         0.5000 
     56 O           2.4492  -11.8599  -42.7556 O.2       3 UNK        -0.5000 
     57 CA          1.6489  -10.1645  -44.2453 C.3       3 UNK         0.1400 
     58 CB          2.9702   -9.3890  -44.3598 C.3       3 UNK        -0.1800 
     59 N           1.5037  -11.0401  -45.4085 N.am      3 UNK        -0.5000 
     60 C           0.4450  -11.8204  -45.6757 C.2       2 UNK         0.5000 
     61 O          -0.5833  -11.8291  -44.9983 O.2       2 UNK        -0.5000 
     62 CA          0.5624  -12.7746  -46.8771 C.3       2 UNK         0.1400 
     63 CB         -0.1471  -12.1937  -48.1083 C.3       2 UNK        -0.1800 
     64 N           1.9572  -13.0436  -47.2156 N.am      2 UNK        -0.5000 
     65 C           2.7161  -14.0007  -46.6728 C.2       1 UNK         0.5000 
     66 O           2.2923  -14.8431  -45.8763 O.2       1 UNK        -0.5000 
     67 C          -1.8998  -22.9373  -47.6436 C.2       11 UNK         0.5000 
     68 O          -2.3790  -23.8090  -48.3716 O.2       11 UNK        -0.5000 
     69 N          -2.6028  -22.3144  -46.6872 N.am      12 UNK        -0.5000 
     70 CA         -3.9770  -22.6468  -46.3125 C.3       12 UNK         0.1400 
     71 CB         -4.5692  -21.5235  -45.4499 C.3       12 UNK        -0.1800 
     72 C          -4.0839  -24.0084  -45.6074 C.2       12 UNK         0.5000 
     73 O          -4.9842  -24.7798  -45.9359 O.2       12 UNK        -0.5000 
     74 N          -3.1463  -24.3096  -44.6972 N.am      13 UNK        -0.5000 
     75 CA         -3.0402  -25.6019  -44.0100 C.3       13 UNK         0.1400 
     76 CB         -1.9725  -25.5172  -42.9094 C.3       13 UNK        -0.1800 
     77 C          -2.7446  -26.7712  -44.9708 C.2       13 UNK         0.5000 
     78 O          -3.2739  -27.8664  -44.7807 O.2       13 UNK        -0.5000 
     79 N          -1.9462  -26.5010  -46.0122 N.am      14 UNK        -0.5000 
     80 CA         -1.6677  -27.4085  -47.1274 C.3       14 UNK         0.1400 
     81 CB         -0.4047  -26.9162  -47.8529 C.3       14 UNK        -0.1800 
     82 C          -2.8394  -27.5435  -48.1251 C.2       14 UNK         0.5000 
     83 O          -2.7707  -28.3943  -49.0126 O.2       14 UNK        -0.5000 
     84 N          -3.8713  -26.6967  -47.9826 N.am      15 UNK        -0.5000 
     85 CA         -5.0644  -26.5676  -48.8271 C.3       15 UNK         0.1400 
     86 CB         -5.8999  -27.8639  -48.8216 C.3       15 UNK        -0.1800 
     87 C          -4.7695  -26.0540  -50.2521 C.2       15 UNK         0.5000 
     88 O          -5.6182  -26.1819  -51.1346 O.2       15 UNK        -0.5000 
     89 N          -3.5952  -25.4442  -50.4521 N.am      16 UNK        -0.5000 
     90 CA         -3.1802  -24.8446  -51.7163 C.3       16 UNK         0.1400 
     91 CB         -1.6480  -24.8274  -51.7970 C.3       16 UNK        -0.1800 
     92 C          -3.7884  -23.4446  -51.8925 C.2       16 UNK         0.5000 
     93 O          -4.2784  -23.1309  -52.9769 O.2       16 UNK        -0.5000 
     94 N          -3.8298  -22.6459  -50.8149 N.am      17 UNK        -0.5000 
     95 CA         -4.5064  -21.3420  -50.8130 C.3       17 UNK         0.1400 
     96 CB         -4.1057  -20.5258  -49.5768 C.3       17 UNK        -0.1800 
     97 C          -6.0378  -21.4875  -50.9093 C.2       17 UNK         0.5000 
     98 O          -6.6941  -20.6365  -51.5081 O.2       17 UNK        -0.5000 
     99 N          -6.5721  -22.6018  -50.3857 N.am      18 UNK        -0.5000 
    100 CA        -7.9709  -23.0132  -50.5404 C.3       18 UNK         0.1400 
    101 CB        -8.2733  -24.1610  -49.5651 C.3       18 UNK        -0.1800 
    102 C         -8.3188  -23.4175  -51.9894 C.2       18 UNK         0.5000 
    103 O         -9.4726  -23.2812  -52.3955 O.2       18 UNK        -0.5000 
    104 N         -7.3088  -23.8571  -52.7537 N.am      19 UNK        -0.5000 
    105 CA        -7.3717  -24.1208  -54.1931 C.3       19 UNK         0.1400 
    106 CB        -6.4456  -25.3038  -54.5253 C.3       19 UNK        -0.1800 
    107 C         -7.0309  -22.8695  -55.0360 C.2       19 UNK         0.5000 
    108 O         -6.8322  -22.9914  -56.2455 O.2       19 UNK        -0.5000 
    109 N         -6.9890  -21.6937  -54.3913 N.am      20 UNK        -0.5000 
    110 CA        -6.7940  -20.3572  -54.9552 C.3       20 UNK         0.1400 
    111 CB        -7.8830  -20.0187  -55.9962 C.3       20 UNK        -0.1800 
    112 C         -5.3640  -20.0722  -55.4550 C.2       20 UNK         0.5000 
    113 O         -5.1918  -19.2291  -56.3399 O.2       20 UNK        -0.5000 
    114 N         -4.3482  -20.7161  -54.8552 N.am      21 UNK        -0.5000 
    115 CA        -2.9390  -20.3469  -55.0384 C.3       21 UNK         0.1400 
    116 CB        -2.0279  -21.3024  -54.2534 C.3       21 UNK        -0.1800 
    117 C         -2.6859  -18.8899  -54.6025 C.2       21 UNK         0.5000 
    118 O         -3.2014  -18.4716  -53.5663 O.2       21 UNK        -0.5000 
    119 N         -1.9342  -18.1512  -55.4244 N.am      22 UNK        -0.5000 
    120 CA        -1.6711  -16.7046  -55.3152 C.3       22 UNK         0.1400 
    121 C         -2.8846  -15.7784  -55.6517 C.2       22 UNK         0.5000 
    122 N         -4.0564  -16.3006  -55.9983 N.am      22 UNK        -0.7600 
    123 O         -2.7445  -14.5586  -55.6764 O.2       22 UNK        -0.5000 
    124 C124       -0.8144  -16.3241  -54.0575 C.3       23 UNK        -0.0398 
    125 S125       -1.5443  -15.2796  -52.7322 S.3       23 UNK        -0.2404 
    126 C126       -1.8067  -16.4122  -51.3254 C.3       23 UNK        -0.0205 
    127 H127        4.9144   -9.5044  -46.8292 H         1 UNK         0.0600 
    128 H128        6.3103  -10.1240  -47.7149 H         1 UNK         0.0600 
    129 H129        6.0555  -10.5875  -46.0289 H         1 UNK         0.0600 
    130 H130        5.4977  -12.7304  -45.9964 H         1 UNK         0.3000 
    131 H131        4.6759  -14.6725  -46.3376 H         1 UNK         0.0600 
    132 H132        5.2563  -13.9264  -48.9965 H         1 UNK         0.0800 
    133 H133        5.1614  -15.5040  -48.3364 H         1 UNK         0.0800 
    134 H134        2.4038  -16.5473  -48.0346 H         1 UNK         0.0800 
    135 H135        3.6230  -17.2695  -49.0631 H         1 UNK         0.0800 
    136 H136        0.3718  -15.5223  -49.9381 H         1 UNK         0.1150 
    137 H137       -1.2292  -19.0231  -51.8233 H         1 UNK         0.1150 
    138 H138        2.6139  -19.1799  -49.9462 H         1 UNK         0.1150 
    139 H139        1.8039  -21.1225  -51.0170 H         1 UNK         0.0800 
    140 H140        0.7359  -20.8398  -52.3716 H         1 UNK         0.0800 
    141 H141       -0.8695  -20.5030  -48.4469 H         1 UNK         0.0800 
    142 H142        0.8044  -20.9503  -48.6057 H         1 UNK         0.0800 
    143 H143        0.1028  -23.3998  -48.2396 H         1 UNK         0.0600 
    144 H144        0.5591  -21.3770  -46.3035 H         1 UNK         0.3000 
    145 H145        0.6385  -23.4687  -43.4218 H         1 UNK         0.0600 
    146 H146        2.8988  -23.6647  -44.4004 H         1 UNK         0.0600 
    147 H147        2.8581  -22.3520  -43.2338 H         1 UNK         0.0600 
    148 H148        2.8462  -22.0011  -44.9613 H         1 UNK         0.0600 
    149 H149        0.9788  -20.6401  -43.9533 H         1 UNK         0.3000 
    150 H150       -2.4355  -19.7604  -43.4143 H         1 UNK         0.0600 
    151 H151        0.0028  -19.3219  -41.6118 H         1 UNK         0.0600 
    152 H152       -1.5295  -20.0202  -41.0998 H         1 UNK         0.0600 
    153 H153       -1.4661  -18.3479  -41.6309 H         1 UNK         0.0600 
    154 H154       -0.0797  -18.1916  -43.8175 H         1 UNK         0.3000 
    155 H155        0.0057  -18.4285  -47.3833 H         1 UNK         0.0600 
    156 H156       -0.2703  -15.9623  -47.3193 H         1 UNK         0.0600 
    157 H157       -1.0449  -16.0782  -45.7363 H         1 UNK         0.0600 
    158 H158       -1.8122  -16.7840  -47.1500 H         1 UNK         0.0600 
    159 H159        1.4254  -16.7234  -45.6210 H         1 UNK         0.3000 
    160 H160        3.8062  -19.0496  -44.4843 H         1 UNK         0.0600 
    161 H161        4.3949  -17.1312  -46.7876 H         1 UNK         0.0600 
    162 H162        4.6307  -18.8747  -46.8641 H         1 UNK         0.0600 
    163 H163        5.5672  -17.9076  -45.7342 H         1 UNK         0.0600 
    164 H164        2.9613  -16.1812  -44.7807 H         1 UNK         0.3000 
    165 H165        3.2212  -15.7928  -41.2565 H         1 UNK         0.0600 
    166 H166        5.3897  -14.9466  -42.2603 H         1 UNK         0.0600 
    167 H167        4.4586  -14.1750  -43.5408 H         1 UNK         0.0600 
    168 H168        4.2566  -13.6671  -41.8645 H         1 UNK         0.0600 
    169 H169        2.0250  -13.9713  -42.8352 H         1 UNK         0.3000 
    170 H170       -0.4586  -14.5832  -44.1355 H         1 UNK         0.0600 
    171 H171       -2.5893  -14.7637  -42.8212 H         1 UNK         0.0600 
    172 H172       -1.7287  -15.6406  -41.5563 H         1 UNK         0.0600 
    173 H173       -1.8929  -16.3365  -43.1636 H         1 UNK         0.0600 
    174 H174       -0.3614  -12.6347  -43.1761 H         1 UNK         0.3000 
    175 H175       -0.7750  -11.1200  -40.6017 H         1 UNK         0.0600 
    176 H176        2.1723  -11.7673  -40.0599 H         1 UNK         0.0600 
    177 H177        0.8699  -11.7463  -38.8799 H         1 UNK         0.0600 
    178 H178        1.3795  -10.2493  -39.6404 H         1 UNK         0.0600 
    179 H179       -0.1137  -10.0532  -42.4173 H         1 UNK         0.3000 
    180 H180        0.8256   -9.4474  -44.2530 H         1 UNK         0.0600 
    181 H181        3.8309  -10.0587  -44.3852 H         1 UNK         0.0600 
    182 H182        3.1023   -8.7183  -43.5099 H         1 UNK         0.0600 
    183 H183        2.9920   -8.7776  -45.2620 H         1 UNK         0.0600 
    184 H184        2.3115  -11.1279  -46.0046 H         1 UNK         0.3000 
    185 H185        0.0666  -13.7079  -46.6060 H         1 UNK         0.0600 
    186 H186       -1.1986  -11.9953  -47.8966 H         1 UNK         0.0600 
    187 H187        0.3077  -11.2562  -48.4306 H         1 UNK         0.0600 
    188 H188       -0.1101  -12.8901  -48.9466 H         1 UNK         0.0600 
    189 H189        2.4108  -12.4066  -47.8657 H         1 UNK         0.3000 
    190 H190       -2.1736  -21.5359  -46.1963 H         1 UNK         0.3000 
    191 H191       -4.5712  -22.7180  -47.2248 H         1 UNK         0.0600 
    192 H192       -4.5440  -20.5688  -45.9757 H         1 UNK         0.0600 
    193 H193       -5.6104  -21.7312  -45.2005 H         1 UNK         0.0600 
    194 H194       -4.0257  -21.4028  -44.5133 H         1 UNK         0.0600 
    195 H195       -2.4751  -23.5955  -44.4298 H         1 UNK         0.3000 
    196 H196       -4.0020  -25.8023  -43.5334 H         1 UNK         0.0600 
    197 H197       -1.9137  -26.4521  -42.3509 H         1 UNK         0.0600 
    198 H198       -2.2026  -24.7259  -42.1958 H         1 UNK         0.0600 
    199 H199       -0.9834  -25.3199  -43.3218 H         1 UNK         0.0600 
    200 H200       -1.4800  -25.5991  -46.0388 H         1 UNK         0.3000 
    201 H201       -1.4660  -28.4024  -46.7232 H         1 UNK         0.0600 
    202 H202       -0.1291  -27.5895  -48.6655 H         1 UNK         0.0600 
    203 H203        0.4458  -26.8643  -47.1729 H         1 UNK         0.0600 
    204 H204       -0.5495  -25.9248  -48.2833 H         1 UNK         0.0600 
    205 H205       -3.8334  -26.0422  -47.2108 H         1 UNK         0.3000 
    206 H206       -5.6721  -25.7927  -48.3592 H         1 UNK         0.0600 
    207 H207       -6.0982  -28.2000  -47.8038 H         1 UNK         0.0600 
    208 H208       -6.8656  -27.7084  -49.3040 H         1 UNK         0.0600 
    209 H209       -5.3988  -28.6734  -49.3525 H         1 UNK         0.0600 
    210 H210       -2.9889  -25.2892  -49.6541 H         1 UNK         0.3000 
    211 H211       -3.5440  -25.4605  -52.5416 H         1 UNK         0.0600 
    212 H212       -1.2573  -25.8350  -51.9389 H         1 UNK         0.0600 
    213 H213       -1.2991  -24.2207  -52.6339 H         1 UNK         0.0600 
    214 H214       -1.2011  -24.4322  -50.8861 H         1 UNK         0.0600 
    215 H215       -3.3908  -22.9577  -49.9559 H         1 UNK         0.3000 
    216 H216       -4.1739  -20.7869  -51.6932 H         1 UNK         0.0600 
    217 H217       -4.4481  -20.9883  -48.6542 H         1 UNK         0.0600 
    218 H218       -4.5409  -19.5266  -49.6178 H         1 UNK         0.0600 
    219 H219       -3.0259  -20.4008  -49.5162 H         1 UNK         0.0600 
    220 H220       -5.9568  -23.2503  -49.9198 H         1 UNK         0.3000 
    221 H221       -8.6035  -22.1641  -50.2730 H         1 UNK         0.0600 
    222 H222       -7.7064  -25.0592  -49.8083 H         1 UNK         0.0600 
    223 H223       -8.0400  -23.8817  -48.5375 H         1 UNK         0.0600 
    224 H224       -9.3305  -24.4271  -49.5969 H         1 UNK         0.0600 
    225 H225       -6.3898  -23.9371  -52.3410 H         1 UNK         0.3000 
    226 H226       -8.3893  -24.4137  -54.4587 H         1 UNK         0.0600 
    227 H227       -6.6842  -26.1746  -53.9144 H         1 UNK         0.0600 
    228 H228       -6.5502  -25.6025  -55.5689 H         1 UNK         0.0600 
    229 H229       -5.3971  -25.0579  -54.3603 H         1 UNK         0.0600 
    230 H230       -7.1268  -21.7066  -53.3890 H         1 UNK         0.3000 
    231 H231       -6.9394  -19.6728  -54.1185 H         1 UNK         0.0600 
    232 H232       -7.7606  -20.5928  -56.9148 H         1 UNK         0.0600 
    233 H233       -7.8496  -18.9629  -56.2675 H         1 UNK         0.0600 
    234 H234       -8.8803  -20.2182  -55.6042 H         1 UNK         0.0600 
    235 H235       -4.5465  -21.4232  -54.1563 H         1 UNK         0.3000 
    236 H236       -2.7079  -20.4486  -56.1007 H         1 UNK         0.0600 
    237 H237       -2.1979  -21.2290  -53.1789 H         1 UNK         0.0600 
    238 H238       -2.1862  -22.3381  -54.5534 H         1 UNK         0.0600 
    239 H239       -0.9770  -21.0712  -54.4304 H         1 UNK         0.0600 
    240 H240       -1.5750  -18.5843  -56.2634 H         1 UNK         0.3000 
    241 H241       -1.0139  -16.5335  -56.1689 H         1 UNK         0.0600 
    242 H242       -4.2024  -17.3016  -56.0227 H         1 UNK         0.3800 
    243 H243       -4.8154  -15.6836  -56.2400 H         1 UNK         0.3800 
    244 H244       -0.3703  -17.2177  -53.6242 H         1 UNK         0.0800 
    245 H245        0.0474  -15.7548  -54.4079 H         1 UNK         0.0800 
    246 H246       -2.6256  -17.0937  -51.5515 H         1 UNK         0.0800 
    247 H247       -2.1421  -15.8261  -50.4688 H         1 UNK         0.0800 
@<TRIPOS>BOND
     1    1    2 1    
     2    1  127 1    
     3    1  128 1    
     4    1  129 1    
     5    2    3 2    
     6    2    4 am   BACKBONE|DICT|INTERRES
     7    4    5 1    
     8    4  130 1    
     9    5    6 1    
    10    5   65 1    
    11    5  131 1    
    12    6    7 1    
    13    6  132 1    
    14    6  133 1    
    15    7    8 1    
    16    8    9 1    
    17    8  134 1    
    18    8  135 1    
    19    9   10 ar   
    20    9   14 ar   
    21   10   11 ar   
    22   10  136 1    
    23   11   12 ar   
    24   11  126 1    
    25   12   13 ar   
    26   12  137 1    
    27   13   14 ar   
    28   13   15 1    
    29   14  138 1    
    30   15   16 1    
    31   15  139 1    
    32   15  140 1    
    33   16   17 1    
    34   17   18 1    
    35   17  141 1    
    36   17  142 1    
    37   18   19 1    
    38   18   67 1    
    39   18  143 1    
    40   19   20 am   BACKBONE|DICT|INTERRES
    41   19  144 1    
    42   20   21 2    
    43   20   22 1    
    44   22   23 1    
    45   22   24 1    
    46   22  145 1    
    47   23  146 1    
    48   23  147 1    
    49   23  148 1    
    50   24   25 am   BACKBONE|DICT|INTERRES
    51   24  149 1    
    52   25   26 2    
    53   25   27 1    
    54   27   28 1    
    55   27   29 1    
    56   27  150 1    
    57   28  151 1    
    58   28  152 1    
    59   28  153 1    
    60   29   30 am   BACKBONE|DICT|INTERRES
    61   29  154 1    
    62   30   31 2    
    63   30   32 1    
    64   32   33 1    
    65   32   34 1    
    66   32  155 1    
    67   33  156 1    
    68   33  157 1    
    69   33  158 1    
    70   34   35 am   BACKBONE|DICT|INTERRES
    71   34  159 1    
    72   35   36 2    
    73   35   37 1    
    74   37   38 1    
    75   37   39 1    
    76   37  160 1    
    77   38  161 1    
    78   38  162 1    
    79   38  163 1    
    80   39   40 am   BACKBONE|DICT|INTERRES
    81   39  164 1    
    82   40   41 2    
    83   40   42 1    
    84   42   43 1    
    85   42   44 1    
    86   42  165 1    
    87   43  166 1    
    88   43  167 1    
    89   43  168 1    
    90   44   45 am   BACKBONE|DICT|INTERRES
    91   44  169 1    
    92   45   46 2    
    93   45   47 1    
    94   47   48 1    
    95   47   49 1    
    96   47  170 1    
    97   48  171 1    
    98   48  172 1    
    99   48  173 1    
   100   49   50 am   BACKBONE|DICT|INTERRES
   101   49  174 1    
   102   50   51 2    
   103   50   52 1    
   104   52   53 1    
   105   52   54 1    
   106   52  175 1    
   107   53  176 1    
   108   53  177 1    
   109   53  178 1    
   110   54   55 am   BACKBONE|DICT|INTERRES
   111   54  179 1    
   112   55   56 2    
   113   55   57 1    
   114   57   58 1    
   115   57   59 1    
   116   57  180 1    
   117   58  181 1    
   118   58  182 1    
   119   58  183 1    
   120   59   60 am   BACKBONE|DICT|INTERRES
   121   59  184 1    
   122   60   61 2    
   123   60   62 1    
   124   62   63 1    
   125   62   64 1    
   126   62  185 1    
   127   63  186 1    
   128   63  187 1    
   129   63  188 1    
   130   64   65 am   BACKBONE|DICT|INTERRES
   131   64  189 1    
   132   65   66 2    
   133   67   68 2    
   134   67   69 am   BACKBONE|DICT|INTERRES
   135   69   70 1    
   136   69  190 1    
   137   70   71 1    
   138   70   72 1    
   139   70  191 1    
   140   71  192 1    
   141   71  193 1    
   142   71  194 1    
   143   72   73 2    
   144   72   74 am   BACKBONE|DICT|INTERRES
   145   74   75 1    
   146   74  195 1    
   147   75   76 1    
   148   75   77 1    
   149   75  196 1    
   150   76  197 1    
   151   76  198 1    
   152   76  199 1    
   153   77   78 2    
   154   77   79 am   BACKBONE|DICT|INTERRES
   155   79   80 1    
   156   79  200 1    
   157   80   81 1    
   158   80   82 1    
   159   80  201 1    
   160   81  202 1    
   161   81  203 1    
   162   81  204 1    
   163   82   83 2    
   164   82   84 am   BACKBONE|DICT|INTERRES
   165   84   85 1    
   166   84  205 1    
   167   85   86 1    
   168   85   87 1    
   169   85  206 1    
   170   86  207 1    
   171   86  208 1    
   172   86  209 1    
   173   87   88 2    
   174   87   89 am   BACKBONE|DICT|INTERRES
   175   89   90 1    
   176   89  210 1    
   177   90   91 1    
   178   90   92 1    
   179   90  211 1    
   180   91  212 1    
   181   91  213 1    
   182   91  214 1    
   183   92   93 2    
   184   92   94 am   BACKBONE|DICT|INTERRES
   185   94   95 1    
   186   94  215 1    
   187   95   96 1    
   188   95   97 1    
   189   95  216 1    
   190   96  217 1    
   191   96  218 1    
   192   96  219 1    
   193   97   98 2    
   194   97   99 am   BACKBONE|DICT|INTERRES
   195   99  100 1    
   196   99  220 1    
   197  100  101 1    
   198  100  102 1    
   199  100  221 1    
   200  101  222 1    
   201  101  223 1    
   202  101  224 1    
   203  102  103 2    
   204  102  104 am   BACKBONE|DICT|INTERRES
   205  104  105 1    
   206  104  225 1    
   207  105  106 1    
   208  105  107 1    
   209  105  226 1    
   210  106  227 1    
   211  106  228 1    
   212  106  229 1    
   213  107  108 2    
   214  107  109 am   BACKBONE|DICT|INTERRES
   215  109  110 1    
   216  109  230 1    
   217  110  111 1    
   218  110  112 1    
   219  110  231 1    
   220  111  232 1    
   221  111  233 1    
   222  111  234 1    
   223  112  113 2    
   224  112  114 am   BACKBONE|DICT|INTERRES
   225  114  115 1    
   226  114  235 1    
   227  115  116 1    
   228  115  117 1    
   229  115  236 1    
   230  116  237 1    
   231  116  238 1    
   232  116  239 1    
   233  117  118 2    
   234  117  119 am   BACKBONE|DICT|INTERRES
   235  119  120 1    
   236  119  240 1    
   237  120  121 1    
   238  120  124 1    
   239  120  241 1    
   240  121  122 am   BACKBONE|DICT|INTERRES
   241  121  123 2    
   242  122  242 1    
   243  122  243 1    
   244  124  125 1    
   245  124  244 1    
   246  124  245 1    
   247  125  126 1    
   248  126  246 1    
   249  126  247 1    
@<TRIPOS>SUBSTRUCTURE
     1 UNK         1 GROUP             0       ****    0 ROOT    
