@<TRIPOS>MOLECULE
3R540
247   249    1
SMALL
USER_CHARGES


@<TRIPOS>ATOM
      1 CA          2.4493  -19.0007  -41.5165 C.3       0 UNK        -0.1800 
      2 C           1.8071  -18.2041  -42.6414 C.2       0 UNK         0.5000 
      3 O           2.5084  -17.7066  -43.5215 O.2       0 UNK        -0.5000 
      4 N           0.4721  -18.0952  -42.6166 N.am      1 UNK        -0.5000 
      5 CA         -0.3364  -17.2600  -43.5181 C.3       1 UNK         0.1400 
      6 C6         -0.1610  -17.6319  -45.0165 C.3       23 UNK        -0.0398 
      7 S7         -1.6570  -17.3205  -46.0163 S.3       23 UNK        -0.2404 
      8 C8         -0.9606  -16.5270  -47.5057 C.3       23 UNK        -0.0205 
      9 C9         -0.6075  -17.5010  -48.6279 C.ar      23 UNK        -0.0193 
     10 C10        -1.0126  -17.2152  -49.9366 C.ar      23 UNK        -0.1150 
     11 C11        -0.6834  -18.0736  -50.9890 C.ar      23 UNK        -0.0193 
     12 C12         0.0654  -19.2218  -50.7297 C.ar      23 UNK        -0.1150 
     13 C13         0.4647  -19.5331  -49.4291 C.ar      23 UNK        -0.0193 
     14 C14         0.1330  -18.6644  -48.3848 C.ar      23 UNK        -0.1150 
     15 C15         1.2258  -20.8214  -49.1570 C.3       23 UNK        -0.0205 
     16 S16         0.1731  -22.2711  -49.4764 S.3       23 UNK        -0.2404 
     17 C17         1.1108  -23.6113  -48.6589 C.3       23 UNK        -0.0398 
     18 CA          0.4958  -24.0879  -47.3156 C.3       11 UNK         0.1400 
     19 N           0.5720  -23.0345  -46.2995 N.am      11 UNK        -0.5000 
     20 C           0.2201  -23.1496  -45.0129 C.2       10 UNK         0.5000 
     21 O          -0.1859  -24.1930  -44.4962 O.2       10 UNK        -0.5000 
     22 CA          0.4107  -21.8743  -44.1668 C.3       10 UNK         0.1400 
     23 CB         -0.2207  -21.9787  -42.7632 C.3       10 UNK        -0.1800 
     24 N           1.8232  -21.4812  -44.0746 N.am      10 UNK        -0.5000 
     25 C           2.8441  -22.2193  -43.6073 C.2       9 UNK         0.5000 
     26 O           2.7162  -23.3569  -43.1532 O.2       9 UNK        -0.5000 
     27 CA          4.2459  -21.5697  -43.6038 C.3       9 UNK         0.1400 
     28 CB          5.3551  -22.5761  -43.9764 C.3       9 UNK        -0.1800 
     29 N           4.3712  -20.3430  -44.4030 N.am      9 UNK        -0.5000 
     30 C           4.2806  -20.2134  -45.7352 C.2       8 UNK         0.5000 
     31 O           3.9587  -21.1315  -46.4900 O.2       8 UNK        -0.5000 
     32 CA          4.5906  -18.8212  -46.3213 C.3       8 UNK         0.1400 
     33 CB          3.5039  -18.3708  -47.3092 C.3       8 UNK        -0.1800 
     34 N           4.7088  -17.7921  -45.2876 N.am      8 UNK        -0.5000 
     35 C           5.8417  -17.2159  -44.8733 C.2       7 UNK         0.5000 
     36 O           6.9648  -17.5438  -45.2586 O.2       7 UNK        -0.5000 
     37 CA          5.6496  -16.0150  -43.9336 C.3       7 UNK         0.1400 
     38 CB          6.9726  -15.4175  -43.4213 C.3       7 UNK        -0.1800 
     39 N           4.9185  -15.0069  -44.6946 N.am      7 UNK        -0.5000 
     40 C           3.8312  -14.3494  -44.2844 C.2       6 UNK         0.5000 
     41 O           3.3837  -14.3976  -43.1361 O.2       6 UNK        -0.5000 
     42 CA          3.1180  -13.5307  -45.3746 C.3       6 UNK         0.1400 
     43 CB          2.4178  -14.4618  -46.3779 C.3       6 UNK        -0.1800 
     44 N           2.1137  -12.6422  -44.7998 N.am      6 UNK        -0.5000 
     45 C           2.3203  -11.3591  -44.4775 C.2       5 UNK         0.5000 
     46 O           3.4001  -10.7857  -44.6350 O.2       5 UNK        -0.5000 
     47 CA          1.1234  -10.5892  -43.8759 C.3       5 UNK         0.1400 
     48 CB          1.1672   -9.0762  -44.1761 C.3       5 UNK        -0.1800 
     49 N          -0.1792  -11.1636  -44.2351 N.am      5 UNK        -0.5000 
     50 C          -0.7319  -11.2584  -45.4561 C.2       4 UNK         0.5000 
     51 O          -0.2292  -10.7746  -46.4708 O.2       4 UNK        -0.5000 
     52 CA         -2.0469  -12.0583  -45.5786 C.3       4 UNK         0.1400 
     53 CB         -1.9235  -13.1375  -46.6659 C.3       4 UNK        -0.1800 
     54 N          -2.4079  -12.7169  -44.3221 N.am      4 UNK        -0.5000 
     55 C          -3.2722  -12.2375  -43.4165 C.2       3 UNK         0.5000 
     56 O          -3.9370  -11.2142  -43.5792 O.2       3 UNK        -0.5000 
     57 CA         -3.3876  -13.0122  -42.0859 C.3       3 UNK         0.1400 
     58 CB         -4.5641  -13.9984  -42.1391 C.3       3 UNK        -0.1800 
     59 N          -2.1680  -13.7450  -41.7325 N.am      3 UNK        -0.5000 
     60 C          -0.9747  -13.1850  -41.4866 C.2       2 UNK         0.5000 
     61 O          -0.7956  -11.9687  -41.4399 O.2       2 UNK        -0.5000 
     62 CA          0.2335  -14.1276  -41.3287 C.3       2 UNK         0.1400 
     63 CB          0.6192  -14.2682  -39.8490 C.3       2 UNK        -0.1800 
     64 N           0.0297  -15.4629  -41.8957 N.am      2 UNK        -0.5000 
     65 C          -0.1628  -15.7539  -43.1923 C.2       1 UNK         0.5000 
     66 O          -0.2335  -14.8927  -44.0722 O.2       1 UNK        -0.5000 
     67 C          -0.9365  -24.6424  -47.5072 C.2       11 UNK         0.5000 
     68 O          -1.9166  -23.9527  -47.2110 O.2       11 UNK        -0.5000 
     69 N          -1.0328  -25.8625  -48.0546 N.am      12 UNK        -0.5000 
     70 CA         -2.2918  -26.5648  -48.3245 C.3       12 UNK         0.1400 
     71 CB         -1.9850  -27.9469  -48.9197 C.3       12 UNK        -0.1800 
     72 C          -3.2595  -25.7881  -49.2383 C.2       12 UNK         0.5000 
     73 O          -4.4680  -25.8317  -49.0145 O.2       12 UNK        -0.5000 
     74 N          -2.7108  -25.0557  -50.2179 N.am      13 UNK        -0.5000 
     75 CA         -3.4663  -24.2003  -51.1335 C.3       13 UNK         0.1400 
     76 CB         -2.5391  -23.7199  -52.2584 C.3       13 UNK        -0.1800 
     77 C          -4.1258  -22.9971  -50.4350 C.2       13 UNK         0.5000 
     78 O          -5.2246  -22.5999  -50.8268 O.2       13 UNK        -0.5000 
     79 N          -3.4547  -22.4447  -49.4166 N.am      14 UNK        -0.5000 
     80 CA         -3.9726  -21.3606  -48.5852 C.3       14 UNK         0.1400 
     81 CB         -2.8099  -20.6084  -47.9278 C.3       14 UNK        -0.1800 
     82 C          -4.9568  -21.8838  -47.5296 C.2       14 UNK         0.5000 
     83 O          -5.9858  -21.2494  -47.3018 O.2       14 UNK        -0.5000 
     84 N          -4.6559  -23.0513  -46.9422 N.am      15 UNK        -0.5000 
     85 CA         -5.5109  -23.7472  -45.9764 C.3       15 UNK         0.1400 
     86 CB         -4.7555  -24.9543  -45.4018 C.3       15 UNK        -0.1800 
     87 C          -6.8631  -24.1810  -46.5767 C.2       15 UNK         0.5000 
     88 O          -7.8906  -24.0717  -45.9070 O.2       15 UNK        -0.5000 
     89 N          -6.8431  -24.6194  -47.8430 N.am      16 UNK        -0.5000 
     90 CA         -8.0280  -24.9347  -48.6442 C.3       16 UNK         0.1400 
     91 CB         -7.5986  -25.8166  -49.8281 C.3       16 UNK        -0.1800 
     92 C          -8.7725  -23.6859  -49.1620 C.2       16 UNK         0.5000 
     93 O          -9.8816  -23.8257  -49.6786 O.2       16 UNK        -0.5000 
     94 N          -8.1454  -22.5041  -49.0472 N.am      17 UNK        -0.5000 
     95 CA         -8.5864  -21.1983  -49.5524 C.3       17 UNK         0.1400 
     96 CB         -9.8704  -20.7327  -48.8351 C.3       17 UNK        -0.1800 
     97 C          -8.6999  -21.1474  -51.0920 C.2       17 UNK         0.5000 
     98 O          -9.4930  -20.3720  -51.6290 O.2       17 UNK        -0.5000 
     99 N          -7.8979  -21.9738  -51.7746 N.am      18 UNK        -0.5000 
    100 CA        -7.8230  -22.0557  -53.2303 C.3       18 UNK         0.1400 
    101 CB        -7.4121  -23.4832  -53.6269 C.3       18 UNK        -0.1800 
    102 C         -6.8253  -21.0353  -53.8005 C.2       18 UNK         0.5000 
    103 O         -7.0660  -20.4926  -54.8788 O.2       18 UNK        -0.5000 
    104 N         -5.7176  -20.8157  -53.0721 N.am      19 UNK        -0.5000 
    105 CA        -4.5850  -19.9406  -53.4073 C.3       19 UNK         0.1400 
    106 CB        -5.0151  -18.4601  -53.4148 C.3       19 UNK        -0.1800 
    107 C         -3.8407  -20.3476  -54.6998 C.2       19 UNK         0.5000 
    108 O         -3.1521  -19.5222  -55.3027 O.2       19 UNK        -0.5000 
    109 N         -3.9573  -21.6267  -55.0857 N.am      20 UNK        -0.5000 
    110 CA        -3.3925  -22.2257  -56.2999 C.3       20 UNK         0.1400 
    111 CB        -3.8839  -23.6779  -56.4012 C.3       20 UNK        -0.1800 
    112 C         -1.8539  -22.1708  -56.3887 C.2       20 UNK         0.5000 
    113 O         -1.3087  -22.2137  -57.4916 O.2       20 UNK        -0.5000 
    114 N         -1.1865  -22.0564  -55.2327 N.am      21 UNK        -0.5000 
    115 CA         0.2556  -21.8425  -55.1158 C.3       21 UNK         0.1400 
    116 CB         0.6827  -22.1448  -53.6714 C.3       21 UNK        -0.1800 
    117 C          0.6973  -20.4261  -55.5440 C.2       21 UNK         0.5000 
    118 O          1.8521  -20.2559  -55.9376 O.2       21 UNK        -0.5000 
    119 N         -0.2185  -19.4501  -55.4785 N.am      22 UNK        -0.5000 
    120 CA        -0.0306  -18.0838  -55.9914 C.3       22 UNK         0.1400 
    121 C         -0.6555  -17.9241  -57.4024 C.2       22 UNK         0.5000 
    122 N         -1.8488  -18.4542  -57.6449 N.am      22 UNK        -0.7600 
    123 O         -0.0532  -17.3182  -58.2843 O.2       22 UNK        -0.5000 
    124 C124       -0.6078  -17.0084  -55.0362 C.3       23 UNK        -0.0398 
    125 S125        0.1790  -17.0266  -53.3914 S.3       23 UNK        -0.2404 
    126 C126       -1.1474  -17.7799  -52.4047 C.3       23 UNK        -0.0205 
    127 H127        2.0614  -20.0185  -41.4910 H         1 UNK         0.0600 
    128 H128        2.2460  -18.5289  -40.5552 H         1 UNK         0.0600 
    129 H129        3.5303  -19.0485  -41.6456 H         1 UNK         0.0600 
    130 H130       -0.0416  -18.5573  -41.8789 H         1 UNK         0.3000 
    131 H131       -1.3676  -17.4912  -43.2466 H         1 UNK         0.0600 
    132 H132        0.0440  -18.6983  -45.1015 H         1 UNK         0.0800 
    133 H133        0.7075  -17.1328  -45.4442 H         1 UNK         0.0800 
    134 H134       -0.0811  -15.9372  -47.2505 H         1 UNK         0.0800 
    135 H135       -1.7047  -15.8148  -47.8639 H         1 UNK         0.0800 
    136 H136       -1.5850  -16.3211  -50.1400 H         1 UNK         0.1150 
    137 H137        0.3255  -19.8846  -51.5399 H         1 UNK         0.1150 
    138 H138        0.4370  -18.9081  -47.3802 H         1 UNK         0.1150 
    139 H139        2.1110  -20.8667  -49.7928 H         1 UNK         0.0800 
    140 H140        1.5799  -20.8444  -48.1260 H         1 UNK         0.0800 
    141 H141        2.1413  -23.2889  -48.5005 H         1 UNK         0.0800 
    142 H142        1.1782  -24.4456  -49.3589 H         1 UNK         0.0800 
    143 H143        1.1080  -24.9125  -46.9448 H         1 UNK         0.0600 
    144 H144        0.9031  -22.1411  -46.6273 H         1 UNK         0.3000 
    145 H145       -0.1078  -21.0731  -44.6950 H         1 UNK         0.0600 
    146 H146       -0.1366  -21.0375  -42.2215 H         1 UNK         0.0600 
    147 H147       -1.2826  -22.2179  -42.8325 H         1 UNK         0.0600 
    148 H148        0.2495  -22.7555  -42.1598 H         1 UNK         0.0600 
    149 H149        2.0557  -20.5716  -44.4444 H         1 UNK         0.3000 
    150 H150        4.4224  -21.2669  -42.5710 H         1 UNK         0.0600 
    151 H151        5.3790  -23.4127  -43.2771 H         1 UNK         0.0600 
    152 H152        6.3388  -22.1073  -43.9494 H         1 UNK         0.0600 
    153 H153        5.2077  -22.9907  -44.9740 H         1 UNK         0.0600 
    154 H154        4.6075  -19.5085  -43.8853 H         1 UNK         0.3000 
    155 H155        5.5291  -18.9140  -46.8711 H         1 UNK         0.0600 
    156 H156        3.3760  -19.0902  -48.1180 H         1 UNK         0.0600 
    157 H157        3.7626  -17.4173  -47.7693 H         1 UNK         0.0600 
    158 H158        2.5445  -18.2480  -46.8089 H         1 UNK         0.0600 
    159 H159        3.8381  -17.5084  -44.8420 H         1 UNK         0.3000 
    160 H160        5.0631  -16.3572  -43.0780 H         1 UNK         0.0600 
    161 H161        7.5987  -15.0593  -44.2394 H         1 UNK         0.0600 
    162 H162        7.5465  -16.1598  -42.8653 H         1 UNK         0.0600 
    163 H163        6.7885  -14.5785  -42.7501 H         1 UNK         0.0600 
    164 H164        5.1977  -14.9219  -45.6623 H         1 UNK         0.3000 
    165 H165        3.8667  -12.9460  -45.9134 H         1 UNK         0.0600 
    166 H166        1.8715  -13.8938  -47.1313 H         1 UNK         0.0600 
    167 H167        3.1345  -15.0925  -46.9044 H         1 UNK         0.0600 
    168 H168        1.7099  -15.1194  -45.8772 H         1 UNK         0.0600 
    169 H169        1.2210  -13.0663  -44.5856 H         1 UNK         0.3000 
    170 H170        1.2141  -10.7057  -42.7954 H         1 UNK         0.0600 
    171 H171        0.3091   -8.5632  -43.7416 H         1 UNK         0.0600 
    172 H172        2.0632   -8.6199  -43.7539 H         1 UNK         0.0600 
    173 H173        1.1737   -8.8734  -45.2472 H         1 UNK         0.0600 
    174 H174       -0.6867  -11.5642  -43.4549 H         1 UNK         0.3000 
    175 H175       -2.8305  -11.3596  -45.8780 H         1 UNK         0.0600 
    176 H176       -1.7469  -12.6932  -47.6461 H         1 UNK         0.0600 
    177 H177       -1.0939  -13.8132  -46.4575 H         1 UNK         0.0600 
    178 H178       -2.8336  -13.7332  -46.7386 H         1 UNK         0.0600 
    179 H179       -1.8848  -13.5582  -44.1052 H         1 UNK         0.3000 
    180 H180       -3.5830  -12.2840  -41.2960 H         1 UNK         0.0600 
    181 H181       -5.4959  -13.4824  -42.3746 H         1 UNK         0.0600 
    182 H182       -4.4121  -14.7653  -42.8999 H         1 UNK         0.0600 
    183 H183       -4.7046  -14.4980  -41.1804 H         1 UNK         0.0600 
    184 H184       -2.2266  -14.7521  -41.7436 H         1 UNK         0.3000 
    185 H185        1.0702  -13.6676  -41.8581 H         1 UNK         0.0600 
    186 H186        0.8085  -13.2925  -39.3994 H         1 UNK         0.0600 
    187 H187       -0.1708  -14.7490  -39.2707 H         1 UNK         0.0600 
    188 H188        1.5288  -14.8581  -39.7338 H         1 UNK         0.0600 
    189 H189        0.0804  -16.2310  -41.2435 H         1 UNK         0.3000 
    190 H190       -0.1877  -26.3673  -48.2798 H         1 UNK         0.3000 
    191 H191       -2.7929  -26.7137  -47.3668 H         1 UNK         0.0600 
    192 H192       -1.4452  -27.8686  -49.8642 H         1 UNK         0.0600 
    193 H193       -2.9044  -28.5018  -49.1121 H         1 UNK         0.0600 
    194 H194       -1.3832  -28.5466  -48.2366 H         1 UNK         0.0600 
    195 H195       -1.7075  -25.0671  -50.3244 H         1 UNK         0.3000 
    196 H196       -4.2633  -24.8003  -51.5780 H         1 UNK         0.0600 
    197 H197       -2.1199  -24.5596  -52.8132 H         1 UNK         0.0600 
    198 H198       -1.7114  -23.1242  -51.8718 H         1 UNK         0.0600 
    199 H199       -3.0861  -23.1033  -52.9687 H         1 UNK         0.0600 
    200 H200       -2.5742  -22.8507  -49.1287 H         1 UNK         0.3000 
    201 H201       -4.5091  -20.6527  -49.2210 H         1 UNK         0.0600 
    202 H202       -3.1726  -19.8018  -47.2898 H         1 UNK         0.0600 
    203 H203       -2.1883  -21.2620  -47.3154 H         1 UNK         0.0600 
    204 H204       -2.1770  -20.1579  -48.6895 H         1 UNK         0.0600 
    205 H205       -3.7575  -23.4800  -47.1506 H         1 UNK         0.3000 
    206 H206       -5.7165  -23.0536  -45.1586 H         1 UNK         0.0600 
    207 H207       -3.8015  -24.6550  -44.9666 H         1 UNK         0.0600 
    208 H208       -5.3363  -25.4386  -44.6159 H         1 UNK         0.0600 
    209 H209       -4.5550  -25.7023  -46.1681 H         1 UNK         0.0600 
    210 H210       -5.9444  -24.7646  -48.2944 H         1 UNK         0.3000 
    211 H211       -8.7269  -25.5032  -48.0273 H         1 UNK         0.0600 
    212 H212       -8.4565  -26.1060  -50.4364 H         1 UNK         0.0600 
    213 H213       -7.1223  -26.7346  -49.4833 H         1 UNK         0.0600 
    214 H214       -6.8938  -25.2977  -50.4795 H         1 UNK         0.0600 
    215 H215       -7.2516  -22.4934  -48.5730 H         1 UNK         0.3000 
    216 H216       -7.7949  -20.4945  -49.2921 H         1 UNK         0.0600 
    217 H217      -10.1090  -19.6999  -49.0913 H         1 UNK         0.0600 
    218 H218       -9.7538  -20.7778  -47.7522 H         1 UNK         0.0600 
    219 H219      -10.7320  -21.3431  -49.1064 H         1 UNK         0.0600 
    220 H220       -7.2214  -22.5209  -51.2545 H         1 UNK         0.3000 
    221 H221       -8.8057  -21.8505  -53.6605 H         1 UNK         0.0600 
    222 H222       -6.4392  -23.7554  -53.2153 H         1 UNK         0.0600 
    223 H223       -8.1395  -24.2131  -53.2710 H         1 UNK         0.0600 
    224 H224       -7.3520  -23.5861  -54.7112 H         1 UNK         0.0600 
    225 H225       -5.6212  -21.3391  -52.2059 H         1 UNK         0.3000 
    226 H226       -3.8625  -20.0653  -52.5993 H         1 UNK         0.0600 
    227 H227       -5.5069  -18.1888  -52.4807 H         1 UNK         0.0600 
    228 H228       -4.1550  -17.8001  -53.5305 H         1 UNK         0.0600 
    229 H229       -5.7028  -18.2422  -54.2322 H         1 UNK         0.0600 
    230 H230       -4.5544  -22.2240  -54.5349 H         1 UNK         0.3000 
    231 H231       -3.7850  -21.6690  -57.1533 H         1 UNK         0.0600 
    232 H232       -4.9726  -23.7254  -56.4341 H         1 UNK         0.0600 
    233 H233       -3.5462  -24.2766  -55.5542 H         1 UNK         0.0600 
    234 H234       -3.5125  -24.1547  -57.3093 H         1 UNK         0.0600 
    235 H235       -1.7174  -22.0437  -54.3765 H         1 UNK         0.3000 
    236 H236        0.7633  -22.5513  -55.7734 H         1 UNK         0.0600 
    237 H237        1.7382  -21.9193  -53.5133 H         1 UNK         0.0600 
    238 H238        0.5372  -23.1984  -53.4321 H         1 UNK         0.0600 
    239 H239        0.1074  -21.5614  -52.9546 H         1 UNK         0.0600 
    240 H240       -1.1654  -19.6837  -55.2070 H         1 UNK         0.3000 
    241 H241        1.0370  -17.8797  -56.0938 H         1 UNK         0.0600 
    242 H242       -2.2586  -18.3585  -58.5602 H         1 UNK         0.3800 
    243 H243       -2.3751  -18.9005  -56.8991 H         1 UNK         0.3800 
    244 H244       -0.4539  -16.0125  -55.4557 H         1 UNK         0.0800 
    245 H245       -1.6879  -17.1247  -54.9300 H         1 UNK         0.0800 
    246 H246       -2.0117  -17.1144  -52.3918 H         1 UNK         0.0800 
    247 H247       -1.4744  -18.7062  -52.8790 H         1 UNK         0.0800 
@<TRIPOS>BOND
     1    1    2 1    
     2    1  127 1    
     3    1  128 1    
     4    1  129 1    
     5    2    3 2    
     6    2    4 am   BACKBONE|DICT|INTERRES
     7    4    5 1    
     8    4  130 1    
     9    5    6 1    
    10    5   65 1    
    11    5  131 1    
    12    6    7 1    
    13    6  132 1    
    14    6  133 1    
    15    7    8 1    
    16    8    9 1    
    17    8  134 1    
    18    8  135 1    
    19    9   10 ar   
    20    9   14 ar   
    21   10   11 ar   
    22   10  136 1    
    23   11   12 ar   
    24   11  126 1    
    25   12   13 ar   
    26   12  137 1    
    27   13   14 ar   
    28   13   15 1    
    29   14  138 1    
    30   15   16 1    
    31   15  139 1    
    32   15  140 1    
    33   16   17 1    
    34   17   18 1    
    35   17  141 1    
    36   17  142 1    
    37   18   19 1    
    38   18   67 1    
    39   18  143 1    
    40   19   20 am   BACKBONE|DICT|INTERRES
    41   19  144 1    
    42   20   21 2    
    43   20   22 1    
    44   22   23 1    
    45   22   24 1    
    46   22  145 1    
    47   23  146 1    
    48   23  147 1    
    49   23  148 1    
    50   24   25 am   BACKBONE|DICT|INTERRES
    51   24  149 1    
    52   25   26 2    
    53   25   27 1    
    54   27   28 1    
    55   27   29 1    
    56   27  150 1    
    57   28  151 1    
    58   28  152 1    
    59   28  153 1    
    60   29   30 am   BACKBONE|DICT|INTERRES
    61   29  154 1    
    62   30   31 2    
    63   30   32 1    
    64   32   33 1    
    65   32   34 1    
    66   32  155 1    
    67   33  156 1    
    68   33  157 1    
    69   33  158 1    
    70   34   35 am   BACKBONE|DICT|INTERRES
    71   34  159 1    
    72   35   36 2    
    73   35   37 1    
    74   37   38 1    
    75   37   39 1    
    76   37  160 1    
    77   38  161 1    
    78   38  162 1    
    79   38  163 1    
    80   39   40 am   BACKBONE|DICT|INTERRES
    81   39  164 1    
    82   40   41 2    
    83   40   42 1    
    84   42   43 1    
    85   42   44 1    
    86   42  165 1    
    87   43  166 1    
    88   43  167 1    
    89   43  168 1    
    90   44   45 am   BACKBONE|DICT|INTERRES
    91   44  169 1    
    92   45   46 2    
    93   45   47 1    
    94   47   48 1    
    95   47   49 1    
    96   47  170 1    
    97   48  171 1    
    98   48  172 1    
    99   48  173 1    
   100   49   50 am   BACKBONE|DICT|INTERRES
   101   49  174 1    
   102   50   51 2    
   103   50   52 1    
   104   52   53 1    
   105   52   54 1    
   106   52  175 1    
   107   53  176 1    
   108   53  177 1    
   109   53  178 1    
   110   54   55 am   BACKBONE|DICT|INTERRES
   111   54  179 1    
   112   55   56 2    
   113   55   57 1    
   114   57   58 1    
   115   57   59 1    
   116   57  180 1    
   117   58  181 1    
   118   58  182 1    
   119   58  183 1    
   120   59   60 am   BACKBONE|DICT|INTERRES
   121   59  184 1    
   122   60   61 2    
   123   60   62 1    
   124   62   63 1    
   125   62   64 1    
   126   62  185 1    
   127   63  186 1    
   128   63  187 1    
   129   63  188 1    
   130   64   65 am   BACKBONE|DICT|INTERRES
   131   64  189 1    
   132   65   66 2    
   133   67   68 2    
   134   67   69 am   BACKBONE|DICT|INTERRES
   135   69   70 1    
   136   69  190 1    
   137   70   71 1    
   138   70   72 1    
   139   70  191 1    
   140   71  192 1    
   141   71  193 1    
   142   71  194 1    
   143   72   73 2    
   144   72   74 am   BACKBONE|DICT|INTERRES
   145   74   75 1    
   146   74  195 1    
   147   75   76 1    
   148   75   77 1    
   149   75  196 1    
   150   76  197 1    
   151   76  198 1    
   152   76  199 1    
   153   77   78 2    
   154   77   79 am   BACKBONE|DICT|INTERRES
   155   79   80 1    
   156   79  200 1    
   157   80   81 1    
   158   80   82 1    
   159   80  201 1    
   160   81  202 1    
   161   81  203 1    
   162   81  204 1    
   163   82   83 2    
   164   82   84 am   BACKBONE|DICT|INTERRES
   165   84   85 1    
   166   84  205 1    
   167   85   86 1    
   168   85   87 1    
   169   85  206 1    
   170   86  207 1    
   171   86  208 1    
   172   86  209 1    
   173   87   88 2    
   174   87   89 am   BACKBONE|DICT|INTERRES
   175   89   90 1    
   176   89  210 1    
   177   90   91 1    
   178   90   92 1    
   179   90  211 1    
   180   91  212 1    
   181   91  213 1    
   182   91  214 1    
   183   92   93 2    
   184   92   94 am   BACKBONE|DICT|INTERRES
   185   94   95 1    
   186   94  215 1    
   187   95   96 1    
   188   95   97 1    
   189   95  216 1    
   190   96  217 1    
   191   96  218 1    
   192   96  219 1    
   193   97   98 2    
   194   97   99 am   BACKBONE|DICT|INTERRES
   195   99  100 1    
   196   99  220 1    
   197  100  101 1    
   198  100  102 1    
   199  100  221 1    
   200  101  222 1    
   201  101  223 1    
   202  101  224 1    
   203  102  103 2    
   204  102  104 am   BACKBONE|DICT|INTERRES
   205  104  105 1    
   206  104  225 1    
   207  105  106 1    
   208  105  107 1    
   209  105  226 1    
   210  106  227 1    
   211  106  228 1    
   212  106  229 1    
   213  107  108 2    
   214  107  109 am   BACKBONE|DICT|INTERRES
   215  109  110 1    
   216  109  230 1    
   217  110  111 1    
   218  110  112 1    
   219  110  231 1    
   220  111  232 1    
   221  111  233 1    
   222  111  234 1    
   223  112  113 2    
   224  112  114 am   BACKBONE|DICT|INTERRES
   225  114  115 1    
   226  114  235 1    
   227  115  116 1    
   228  115  117 1    
   229  115  236 1    
   230  116  237 1    
   231  116  238 1    
   232  116  239 1    
   233  117  118 2    
   234  117  119 am   BACKBONE|DICT|INTERRES
   235  119  120 1    
   236  119  240 1    
   237  120  121 1    
   238  120  124 1    
   239  120  241 1    
   240  121  122 am   BACKBONE|DICT|INTERRES
   241  121  123 2    
   242  122  242 1    
   243  122  243 1    
   244  124  125 1    
   245  124  244 1    
   246  124  245 1    
   247  125  126 1    
   248  126  246 1    
   249  126  247 1    
@<TRIPOS>SUBSTRUCTURE
     1 UNK         1 GROUP             0       ****    0 ROOT    
