@<TRIPOS>MOLECULE
3R540
247   249    1
SMALL
USER_CHARGES


@<TRIPOS>ATOM
      1 CA          2.0081   -9.6843  -47.5572 C.3       0 UNK        -0.1800 
      2 C           2.1691  -11.1847  -47.7580 C.2       0 UNK         0.5000 
      3 O           2.7054  -11.8569  -46.8789 O.2       0 UNK        -0.5000 
      4 N           1.6968  -11.6966  -48.9033 N.am      1 UNK        -0.5000 
      5 CA          1.7379  -13.1006  -49.3430 C.3       1 UNK         0.1400 
      6 C6          1.0834  -14.0978  -48.3461 C.3       23 UNK        -0.0398 
      7 S7         -0.6430  -13.6839  -47.9325 S.3       23 UNK        -0.2404 
      8 C8         -1.0648  -15.0445  -46.8001 C.3       23 UNK        -0.0205 
      9 C9         -1.4883  -16.3073  -47.5378 C.ar      23 UNK        -0.0193 
     10 C10        -2.8446  -16.5817  -47.7360 C.ar      23 UNK        -0.1150 
     11 C11        -3.2442  -17.7461  -48.3976 C.ar      23 UNK        -0.0193 
     12 C12        -2.2771  -18.6407  -48.8622 C.ar      23 UNK        -0.1150 
     13 C13        -0.9178  -18.3875  -48.6628 C.ar      23 UNK        -0.0193 
     14 C14        -0.5318  -17.2169  -47.9989 C.ar      23 UNK        -0.1150 
     15 C15         0.1110  -19.3920  -49.1754 C.3       23 UNK        -0.0205 
     16 S16         1.5163  -19.6951  -48.0471 S.3       23 UNK        -0.2404 
     17 C17         0.7049  -19.9860  -46.4365 C.3       23 UNK        -0.0398 
     18 CA          0.4353  -21.4744  -46.1279 C.3       11 UNK         0.1400 
     19 N           0.2461  -21.6836  -44.6933 N.am      11 UNK        -0.5000 
     20 C           0.1066  -22.8697  -44.0889 C.2       10 UNK         0.5000 
     21 O           0.1465  -23.9490  -44.6775 O.2       10 UNK        -0.5000 
     22 CA         -0.1761  -22.8325  -42.5790 C.3       10 UNK         0.1400 
     23 CB          1.1192  -22.6157  -41.7820 C.3       10 UNK        -0.1800 
     24 N          -1.1406  -21.7848  -42.2446 N.am      10 UNK        -0.5000 
     25 C          -2.4506  -21.8530  -42.5186 C.2       9 UNK         0.5000 
     26 O          -2.9917  -22.8306  -43.0357 O.2       9 UNK        -0.5000 
     27 CA         -3.2903  -20.6060  -42.1839 C.3       9 UNK         0.1400 
     28 CB         -3.6951  -20.6059  -40.7022 C.3       9 UNK        -0.1800 
     29 N          -2.6058  -19.3500  -42.5001 N.am      9 UNK        -0.5000 
     30 C          -2.2989  -18.9531  -43.7428 C.2       8 UNK         0.5000 
     31 O          -2.5416  -19.6135  -44.7497 O.2       8 UNK        -0.5000 
     32 CA         -1.5632  -17.6108  -43.8879 C.3       8 UNK         0.1400 
     33 CB         -2.5689  -16.4530  -43.8300 C.3       8 UNK        -0.1800 
     34 N          -0.5021  -17.3816  -42.9038 N.am      8 UNK        -0.5000 
     35 C           0.5192  -18.2096  -42.6335 C.2       7 UNK         0.5000 
     36 O           0.6187  -19.3415  -43.1082 O.2       7 UNK        -0.5000 
     37 CA          1.6231  -17.6980  -41.6885 C.3       7 UNK         0.1400 
     38 CB          3.0161  -17.9310  -42.3001 C.3       7 UNK        -0.1800 
     39 N           1.4784  -16.2717  -41.3928 N.am      7 UNK        -0.5000 
     40 C           1.0076  -15.7563  -40.2487 C.2       6 UNK         0.5000 
     41 O           0.6196  -16.4415  -39.3023 O.2       6 UNK        -0.5000 
     42 CA          0.9624  -14.2176  -40.1322 C.3       6 UNK         0.1400 
     43 CB          2.1197  -13.7153  -39.2550 C.3       6 UNK        -0.1800 
     44 N           1.0273  -13.5359  -41.4265 N.am      6 UNK        -0.5000 
     45 C           0.0241  -13.4750  -42.3129 C.2       5 UNK         0.5000 
     46 O          -1.0983  -13.9310  -42.1003 O.2       5 UNK        -0.5000 
     47 CA          0.3494  -12.8471  -43.6839 C.3       5 UNK         0.1400 
     48 CB         -0.0083  -11.3542  -43.7016 C.3       5 UNK        -0.1800 
     49 N           1.7540  -13.0111  -44.0732 N.am      5 UNK        -0.5000 
     50 C           2.3364  -14.1899  -44.3183 C.2       4 UNK         0.5000 
     51 O           1.7461  -15.2712  -44.2489 O.2       4 UNK        -0.5000 
     52 CA          3.8360  -14.1743  -44.6295 C.3       4 UNK         0.1400 
     53 CB          4.6584  -14.2553  -43.3305 C.3       4 UNK        -0.1800 
     54 N           4.1145  -15.3257  -45.4747 N.am      4 UNK        -0.5000 
     55 C           5.1676  -15.4760  -46.2822 C.2       3 UNK         0.5000 
     56 O           6.0936  -14.6678  -46.3588 O.2       3 UNK        -0.5000 
     57 CA          5.1716  -16.7267  -47.1789 C.3       3 UNK         0.1400 
     58 CB          4.3713  -17.9070  -46.5906 C.3       3 UNK        -0.1800 
     59 N           4.6092  -16.3667  -48.4772 N.am      3 UNK        -0.5000 
     60 C           5.3117  -15.9063  -49.5212 C.2       2 UNK         0.5000 
     61 O           6.5415  -15.8497  -49.5563 O.2       2 UNK        -0.5000 
     62 CA          4.4941  -15.4154  -50.7323 C.3       2 UNK         0.1400 
     63 CB          4.1808  -16.5838  -51.6801 C.3       2 UNK        -0.1800 
     64 N           3.2401  -14.7628  -50.3425 N.am      2 UNK        -0.5000 
     65 C           3.1599  -13.5643  -49.7443 C.2       1 UNK         0.5000 
     66 O           4.1442  -12.8512  -49.5348 O.2       1 UNK        -0.5000 
     67 C          -0.7483  -22.0291  -46.9470 C.2       11 UNK         0.5000 
     68 O          -0.5237  -22.7622  -47.9074 O.2       11 UNK        -0.5000 
     69 N          -1.9834  -21.7220  -46.5261 N.am      12 UNK        -0.5000 
     70 CA         -3.2195  -22.2061  -47.1423 C.3       12 UNK         0.1400 
     71 CB         -4.4180  -21.4742  -46.5206 C.3       12 UNK        -0.1800 
     72 C          -3.4105  -23.7313  -47.0368 C.2       12 UNK         0.5000 
     73 O          -4.0527  -24.3163  -47.9078 O.2       12 UNK        -0.5000 
     74 N          -2.8569  -24.3501  -45.9856 N.am      13 UNK        -0.5000 
     75 CA         -2.8365  -25.8019  -45.8168 C.3       13 UNK         0.1400 
     76 CB         -2.6225  -26.1437  -44.3340 C.3       13 UNK        -0.1800 
     77 C          -1.7624  -26.4669  -46.6979 C.2       13 UNK         0.5000 
     78 O          -2.0155  -27.5322  -47.2617 O.2       13 UNK        -0.5000 
     79 N          -0.5834  -25.8369  -46.7888 N.am      14 UNK        -0.5000 
     80 CA          0.5658  -26.3229  -47.5498 C.3       14 UNK         0.1400 
     81 CB          1.8302  -25.5846  -47.0823 C.3       14 UNK        -0.1800 
     82 C           0.3896  -26.1847  -49.0726 C.2       14 UNK         0.5000 
     83 O           0.6939  -27.1280  -49.8047 O.2       14 UNK        -0.5000 
     84 N          -0.0688  -25.0113  -49.5258 N.am      15 UNK        -0.5000 
     85 CA         -0.2570  -24.6846  -50.9370 C.3       15 UNK         0.1400 
     86 CB         -0.3971  -23.1621  -51.0906 C.3       15 UNK        -0.1800 
     87 C          -1.4837  -25.3955  -51.5306 C.2       15 UNK         0.5000 
     88 O          -2.5306  -25.4647  -50.8818 O.2       15 UNK        -0.5000 
     89 N          -1.3467  -25.8659  -52.7772 N.am      16 UNK        -0.5000 
     90 CA         -2.4229  -26.4697  -53.5632 C.3       16 UNK         0.1400 
     91 CB         -1.8490  -27.0056  -54.8833 C.3       16 UNK        -0.1800 
     92 C          -3.5457  -25.4527  -53.8305 C.2       16 UNK         0.5000 
     93 O          -3.2550  -24.3264  -54.2418 O.2       16 UNK        -0.5000 
     94 N          -4.7929  -25.8537  -53.5445 N.am      17 UNK        -0.5000 
     95 CA         -6.0197  -25.0489  -53.6391 C.3       17 UNK         0.1400 
     96 CB         -6.3667  -24.7780  -55.1189 C.3       17 UNK        -0.1800 
     97 C          -5.9726  -23.7500  -52.8010 C.2       17 UNK         0.5000 
     98 O          -6.5815  -22.7523  -53.1877 O.2       17 UNK        -0.5000 
     99 N          -5.2043  -23.7663  -51.6995 N.am      18 UNK        -0.5000 
    100 CA        -4.8706  -22.6232  -50.8418 C.3       18 UNK         0.1400 
    101 CB        -6.1017  -22.1611  -50.0348 C.3       18 UNK        -0.1800 
    102 C         -4.1868  -21.4741  -51.6131 C.2       18 UNK         0.5000 
    103 O         -4.4715  -20.3048  -51.3599 O.2       18 UNK        -0.5000 
    104 N         -3.3217  -21.8431  -52.5702 N.am      19 UNK        -0.5000 
    105 CA        -2.6156  -20.9753  -53.5196 C.3       19 UNK         0.1400 
    106 CB        -1.7413  -19.9286  -52.7943 C.3       19 UNK        -0.1800 
    107 C         -3.5418  -20.3468  -54.5841 C.2       19 UNK         0.5000 
    108 O         -3.1374  -19.3922  -55.2498 O.2       19 UNK        -0.5000 
    109 N         -4.7589  -20.8932  -54.7362 N.am      20 UNK        -0.5000 
    110 CA        -5.8351  -20.5515  -55.6753 C.3       20 UNK         0.1400 
    111 CB        -5.3801  -20.7154  -57.1372 C.3       20 UNK        -0.1800 
    112 C         -6.4830  -19.1736  -55.4407 C.2       20 UNK         0.5000 
    113 O         -7.7109  -19.0748  -55.4529 O.2       20 UNK        -0.5000 
    114 N         -5.6625  -18.1415  -55.2098 N.am      21 UNK        -0.5000 
    115 CA        -6.0599  -16.7478  -54.9942 C.3       21 UNK         0.1400 
    116 CB        -4.7943  -15.8866  -54.8653 C.3       21 UNK        -0.1800 
    117 C         -6.9808  -16.5362  -53.7770 C.2       21 UNK         0.5000 
    118 O         -7.8024  -15.6183  -53.7922 O.2       21 UNK        -0.5000 
    119 N         -6.8410  -17.3963  -52.7619 N.am      22 UNK        -0.5000 
    120 CA        -7.6888  -17.4247  -51.5604 C.3       22 UNK         0.1400 
    121 C         -9.0475  -18.1617  -51.7603 C.2       22 UNK         0.5000 
    122 N         -9.3331  -18.7565  -52.9138 N.am      22 UNK        -0.7600 
    123 O         -9.8710  -18.1843  -50.8497 O.2       22 UNK        -0.5000 
    124 C124       -6.9246  -17.9823  -50.3329 C.3       23 UNK        -0.0398 
    125 S125       -5.3840  -17.0659  -49.9932 S.3       23 UNK        -0.2404 
    126 C126       -4.7186  -18.0418  -48.6134 C.3       23 UNK        -0.0205 
    127 H127        1.5068   -9.2120  -48.4024 H         1 UNK         0.0600 
    128 H128        2.9848   -9.2160  -47.4355 H         1 UNK         0.0600 
    129 H129        1.4204   -9.4879  -46.6604 H         1 UNK         0.0600 
    130 H130        1.2875  -11.0625  -49.5744 H         1 UNK         0.3000 
    131 H131        1.1497  -13.1258  -50.2618 H         1 UNK         0.0600 
    132 H132        1.0759  -15.0955  -48.7801 H         1 UNK         0.0800 
    133 H133        1.6607  -14.1690  -47.4233 H         1 UNK         0.0800 
    134 H134       -0.2267  -15.2583  -46.1355 H         1 UNK         0.0800 
    135 H135       -1.8796  -14.7016  -46.1626 H         1 UNK         0.0800 
    136 H136       -3.5927  -15.8872  -47.3804 H         1 UNK         0.1150 
    137 H137       -2.5871  -19.5371  -49.3810 H         1 UNK         0.1150 
    138 H138        0.5162  -17.0241  -47.8259 H         1 UNK         0.1150 
    139 H139       -0.3675  -20.3487  -49.3892 H         1 UNK         0.0800 
    140 H140        0.5019  -19.0306  -50.1271 H         1 UNK         0.0800 
    141 H141       -0.2049  -19.3963  -46.3315 H         1 UNK         0.0800 
    142 H142        1.3910  -19.5828  -45.6904 H         1 UNK         0.0800 
    143 H143        1.3231  -22.0454  -46.4081 H         1 UNK         0.0600 
    144 H144        0.2321  -20.8466  -44.1147 H         1 UNK         0.3000 
    145 H145       -0.5958  -23.7988  -42.2907 H         1 UNK         0.0600 
    146 H146        0.9295  -22.6396  -40.7088 H         1 UNK         0.0600 
    147 H147        1.8458  -23.3991  -42.0011 H         1 UNK         0.0600 
    148 H148        1.5875  -21.6595  -42.0182 H         1 UNK         0.0600 
    149 H149       -0.7652  -20.9201  -41.8823 H         1 UNK         0.3000 
    150 H150       -4.2012  -20.6522  -42.7849 H         1 UNK         0.0600 
    151 H151       -4.3623  -19.7740  -40.4759 H         1 UNK         0.0600 
    152 H152       -4.2231  -21.5244  -40.4421 H         1 UNK         0.0600 
    153 H153       -2.8272  -20.5289  -40.0462 H         1 UNK         0.0600 
    154 H154       -2.3567  -18.7525  -41.7257 H         1 UNK         0.3000 
    155 H155       -1.0905  -17.6019  -44.8715 H         1 UNK         0.0600 
    156 H156       -3.0638  -16.3963  -42.8598 H         1 UNK         0.0600 
    157 H157       -3.3427  -16.5678  -44.5904 H         1 UNK         0.0600 
    158 H158       -2.0795  -15.4970  -44.0065 H         1 UNK         0.0600 
    159 H159       -0.4947  -16.4724  -42.4643 H         1 UNK         0.3000 
    160 H160        1.5555  -18.2854  -40.7709 H         1 UNK         0.0600 
    161 H161        3.1254  -17.4263  -43.2605 H         1 UNK         0.0600 
    162 H162        3.2004  -18.9931  -42.4666 H         1 UNK         0.0600 
    163 H163        3.8028  -17.5675  -41.6390 H         1 UNK         0.0600 
    164 H164        1.7147  -15.6466  -42.1535 H         1 UNK         0.3000 
    165 H165        0.0219  -13.9512  -39.6451 H         1 UNK         0.0600 
    166 H166        2.0656  -12.6362  -39.1101 H         1 UNK         0.0600 
    167 H167        2.0902  -14.1758  -38.2666 H         1 UNK         0.0600 
    168 H168        3.0898  -13.9477  -39.6965 H         1 UNK         0.0600 
    169 H169        1.9140  -13.1253  -41.6790 H         1 UNK         0.3000 
    170 H170       -0.2670  -13.3525  -44.4297 H         1 UNK         0.0600 
    171 H171       -1.0559  -11.2006  -43.4394 H         1 UNK         0.0600 
    172 H172        0.5954  -10.7863  -42.9927 H         1 UNK         0.0600 
    173 H173        0.1437  -10.9260  -44.6928 H         1 UNK         0.0600 
    174 H174        2.2940  -12.1651  -44.1897 H         1 UNK         0.3000 
    175 H175        4.0851  -13.2583  -45.1675 H         1 UNK         0.0600 
    176 H176        4.4356  -15.1631  -42.7685 H         1 UNK         0.0600 
    177 H177        5.7285  -14.2460  -43.5374 H         1 UNK         0.0600 
    178 H178        4.4489  -13.4053  -42.6801 H         1 UNK         0.0600 
    179 H179        3.3763  -16.0181  -45.4701 H         1 UNK         0.3000 
    180 H180        6.2086  -17.0498  -47.2924 H         1 UNK         0.0600 
    181 H181        3.3041  -17.6935  -46.5215 H         1 UNK         0.0600 
    182 H182        4.7254  -18.1628  -45.5910 H         1 UNK         0.0600 
    183 H183        4.4862  -18.7975  -47.2088 H         1 UNK         0.0600 
    184 H184        3.6037  -16.3677  -48.5467 H         1 UNK         0.3000 
    185 H185        5.1048  -14.6910  -51.2756 H         1 UNK         0.0600 
    186 H186        5.0972  -17.0783  -52.0051 H         1 UNK         0.0600 
    187 H187        3.5542  -17.3371  -51.2006 H         1 UNK         0.0600 
    188 H188        3.6650  -16.2379  -52.5761 H         1 UNK         0.0600 
    189 H189        2.3934  -15.2752  -50.5421 H         1 UNK         0.3000 
    190 H190       -2.0980  -21.0691  -45.7528 H         1 UNK         0.3000 
    191 H191       -3.1776  -21.9507  -48.2024 H         1 UNK         0.0600 
    192 H192       -4.3518  -20.3992  -46.6866 H         1 UNK         0.0600 
    193 H193       -5.3582  -21.8146  -46.9554 H         1 UNK         0.0600 
    194 H194       -4.4738  -21.6434  -45.4445 H         1 UNK         0.0600 
    195 H195       -2.3684  -23.7986  -45.2934 H         1 UNK         0.3000 
    196 H196       -3.8081  -26.2036  -46.1129 H         1 UNK         0.0600 
    197 H197       -2.6416  -27.2228  -44.1769 H         1 UNK         0.0600 
    198 H198       -3.4067  -25.7100  -43.7133 H         1 UNK         0.0600 
    199 H199       -1.6649  -25.7763  -43.9652 H         1 UNK         0.0600 
    200 H200       -0.4402  -24.9911  -46.2460 H         1 UNK         0.3000 
    201 H201        0.6966  -27.3837  -47.3260 H         1 UNK         0.0600 
    202 H202        2.0137  -25.7522  -46.0208 H         1 UNK         0.0600 
    203 H203        1.7497  -24.5084  -47.2402 H         1 UNK         0.0600 
    204 H204        2.7104  -25.9327  -47.6242 H         1 UNK         0.0600 
    205 H205       -0.3041  -24.2781  -48.8589 H         1 UNK         0.3000 
    206 H206        0.6357  -25.0010  -51.4809 H         1 UNK         0.0600 
    207 H207        0.4717  -22.6418  -50.6868 H         1 UNK         0.0600 
    208 H208       -0.4847  -22.8829  -52.1410 H         1 UNK         0.0600 
    209 H209       -1.2807  -22.7854  -50.5736 H         1 UNK         0.0600 
    210 H210       -0.4663  -25.7387  -53.2544 H         1 UNK         0.3000 
    211 H211       -2.8253  -27.3102  -52.9938 H         1 UNK         0.0600 
    212 H212       -1.4109  -26.2084  -55.4854 H         1 UNK         0.0600 
    213 H213       -2.6275  -27.4792  -55.4828 H         1 UNK         0.0600 
    214 H214       -1.0773  -27.7545  -54.7038 H         1 UNK         0.0600 
    215 H215       -4.9217  -26.7912  -53.1890 H         1 UNK         0.3000 
    216 H216       -6.8217  -25.6543  -53.2146 H         1 UNK         0.0600 
    217 H217       -7.3455  -24.3063  -55.2132 H         1 UNK         0.0600 
    218 H218       -6.3993  -25.7043  -55.6923 H         1 UNK         0.0600 
    219 H219       -5.6391  -24.1168  -55.5911 H         1 UNK         0.0600 
    220 H220       -4.7165  -24.6246  -51.4742 H         1 UNK         0.3000 
    221 H221       -4.1232  -22.9867  -50.1383 H         1 UNK         0.0600 
    222 H222       -6.8858  -21.7651  -50.6808 H         1 UNK         0.0600 
    223 H223       -6.5231  -22.9839  -49.4574 H         1 UNK         0.0600 
    224 H224       -5.8344  -21.3751  -49.3287 H         1 UNK         0.0600 
    225 H225       -3.2253  -22.8339  -52.7640 H         1 UNK         0.3000 
    226 H226       -1.9425  -21.6346  -54.0693 H         1 UNK         0.0600 
    227 H227       -1.1216  -20.3903  -52.0263 H         1 UNK         0.0600 
    228 H228       -1.0700  -19.4304  -53.4944 H         1 UNK         0.0600 
    229 H229       -2.3418  -19.1530  -52.3179 H         1 UNK         0.0600 
    230 H230       -5.0095  -21.6321  -54.0900 H         1 UNK         0.3000 
    231 H231       -6.6171  -21.2916  -55.4991 H         1 UNK         0.0600 
    232 H232       -4.6040  -19.9992  -57.4080 H         1 UNK         0.0600 
    233 H233       -6.2150  -20.5634  -57.8223 H         1 UNK         0.0600 
    234 H234       -4.9904  -21.7174  -57.3173 H         1 UNK         0.0600 
    235 H235       -4.6648  -18.3396  -55.2186 H         1 UNK         0.3000 
    236 H236       -6.6091  -16.4224  -55.8799 H         1 UNK         0.0600 
    237 H237       -4.1752  -15.9582  -55.7597 H         1 UNK         0.0600 
    238 H238       -5.0482  -14.8346  -54.7290 H         1 UNK         0.0600 
    239 H239       -4.1875  -16.1924  -54.0117 H         1 UNK         0.0600 
    240 H240       -6.1338  -18.1143  -52.8258 H         1 UNK         0.3000 
    241 H241       -7.9559  -16.3937  -51.3207 H         1 UNK         0.0600 
    242 H242       -8.6833  -18.7446  -53.6919 H         1 UNK         0.3800 
    243 H243      -10.2208  -19.2212  -53.0194 H         1 UNK         0.3800 
    244 H244       -7.5475  -17.9360  -49.4379 H         1 UNK         0.0800 
    245 H245       -6.6822  -19.0347  -50.4878 H         1 UNK         0.0800 
    246 H246       -4.8592  -19.1039  -48.8188 H         1 UNK         0.0800 
    247 H247       -5.2809  -17.8233  -47.7045 H         1 UNK         0.0800 
@<TRIPOS>BOND
     1    1    2 1    
     2    1  127 1    
     3    1  128 1    
     4    1  129 1    
     5    2    3 2    
     6    2    4 am   BACKBONE|DICT|INTERRES
     7    4    5 1    
     8    4  130 1    
     9    5    6 1    
    10    5   65 1    
    11    5  131 1    
    12    6    7 1    
    13    6  132 1    
    14    6  133 1    
    15    7    8 1    
    16    8    9 1    
    17    8  134 1    
    18    8  135 1    
    19    9   10 ar   
    20    9   14 ar   
    21   10   11 ar   
    22   10  136 1    
    23   11   12 ar   
    24   11  126 1    
    25   12   13 ar   
    26   12  137 1    
    27   13   14 ar   
    28   13   15 1    
    29   14  138 1    
    30   15   16 1    
    31   15  139 1    
    32   15  140 1    
    33   16   17 1    
    34   17   18 1    
    35   17  141 1    
    36   17  142 1    
    37   18   19 1    
    38   18   67 1    
    39   18  143 1    
    40   19   20 am   BACKBONE|DICT|INTERRES
    41   19  144 1    
    42   20   21 2    
    43   20   22 1    
    44   22   23 1    
    45   22   24 1    
    46   22  145 1    
    47   23  146 1    
    48   23  147 1    
    49   23  148 1    
    50   24   25 am   BACKBONE|DICT|INTERRES
    51   24  149 1    
    52   25   26 2    
    53   25   27 1    
    54   27   28 1    
    55   27   29 1    
    56   27  150 1    
    57   28  151 1    
    58   28  152 1    
    59   28  153 1    
    60   29   30 am   BACKBONE|DICT|INTERRES
    61   29  154 1    
    62   30   31 2    
    63   30   32 1    
    64   32   33 1    
    65   32   34 1    
    66   32  155 1    
    67   33  156 1    
    68   33  157 1    
    69   33  158 1    
    70   34   35 am   BACKBONE|DICT|INTERRES
    71   34  159 1    
    72   35   36 2    
    73   35   37 1    
    74   37   38 1    
    75   37   39 1    
    76   37  160 1    
    77   38  161 1    
    78   38  162 1    
    79   38  163 1    
    80   39   40 am   BACKBONE|DICT|INTERRES
    81   39  164 1    
    82   40   41 2    
    83   40   42 1    
    84   42   43 1    
    85   42   44 1    
    86   42  165 1    
    87   43  166 1    
    88   43  167 1    
    89   43  168 1    
    90   44   45 am   BACKBONE|DICT|INTERRES
    91   44  169 1    
    92   45   46 2    
    93   45   47 1    
    94   47   48 1    
    95   47   49 1    
    96   47  170 1    
    97   48  171 1    
    98   48  172 1    
    99   48  173 1    
   100   49   50 am   BACKBONE|DICT|INTERRES
   101   49  174 1    
   102   50   51 2    
   103   50   52 1    
   104   52   53 1    
   105   52   54 1    
   106   52  175 1    
   107   53  176 1    
   108   53  177 1    
   109   53  178 1    
   110   54   55 am   BACKBONE|DICT|INTERRES
   111   54  179 1    
   112   55   56 2    
   113   55   57 1    
   114   57   58 1    
   115   57   59 1    
   116   57  180 1    
   117   58  181 1    
   118   58  182 1    
   119   58  183 1    
   120   59   60 am   BACKBONE|DICT|INTERRES
   121   59  184 1    
   122   60   61 2    
   123   60   62 1    
   124   62   63 1    
   125   62   64 1    
   126   62  185 1    
   127   63  186 1    
   128   63  187 1    
   129   63  188 1    
   130   64   65 am   BACKBONE|DICT|INTERRES
   131   64  189 1    
   132   65   66 2    
   133   67   68 2    
   134   67   69 am   BACKBONE|DICT|INTERRES
   135   69   70 1    
   136   69  190 1    
   137   70   71 1    
   138   70   72 1    
   139   70  191 1    
   140   71  192 1    
   141   71  193 1    
   142   71  194 1    
   143   72   73 2    
   144   72   74 am   BACKBONE|DICT|INTERRES
   145   74   75 1    
   146   74  195 1    
   147   75   76 1    
   148   75   77 1    
   149   75  196 1    
   150   76  197 1    
   151   76  198 1    
   152   76  199 1    
   153   77   78 2    
   154   77   79 am   BACKBONE|DICT|INTERRES
   155   79   80 1    
   156   79  200 1    
   157   80   81 1    
   158   80   82 1    
   159   80  201 1    
   160   81  202 1    
   161   81  203 1    
   162   81  204 1    
   163   82   83 2    
   164   82   84 am   BACKBONE|DICT|INTERRES
   165   84   85 1    
   166   84  205 1    
   167   85   86 1    
   168   85   87 1    
   169   85  206 1    
   170   86  207 1    
   171   86  208 1    
   172   86  209 1    
   173   87   88 2    
   174   87   89 am   BACKBONE|DICT|INTERRES
   175   89   90 1    
   176   89  210 1    
   177   90   91 1    
   178   90   92 1    
   179   90  211 1    
   180   91  212 1    
   181   91  213 1    
   182   91  214 1    
   183   92   93 2    
   184   92   94 am   BACKBONE|DICT|INTERRES
   185   94   95 1    
   186   94  215 1    
   187   95   96 1    
   188   95   97 1    
   189   95  216 1    
   190   96  217 1    
   191   96  218 1    
   192   96  219 1    
   193   97   98 2    
   194   97   99 am   BACKBONE|DICT|INTERRES
   195   99  100 1    
   196   99  220 1    
   197  100  101 1    
   198  100  102 1    
   199  100  221 1    
   200  101  222 1    
   201  101  223 1    
   202  101  224 1    
   203  102  103 2    
   204  102  104 am   BACKBONE|DICT|INTERRES
   205  104  105 1    
   206  104  225 1    
   207  105  106 1    
   208  105  107 1    
   209  105  226 1    
   210  106  227 1    
   211  106  228 1    
   212  106  229 1    
   213  107  108 2    
   214  107  109 am   BACKBONE|DICT|INTERRES
   215  109  110 1    
   216  109  230 1    
   217  110  111 1    
   218  110  112 1    
   219  110  231 1    
   220  111  232 1    
   221  111  233 1    
   222  111  234 1    
   223  112  113 2    
   224  112  114 am   BACKBONE|DICT|INTERRES
   225  114  115 1    
   226  114  235 1    
   227  115  116 1    
   228  115  117 1    
   229  115  236 1    
   230  116  237 1    
   231  116  238 1    
   232  116  239 1    
   233  117  118 2    
   234  117  119 am   BACKBONE|DICT|INTERRES
   235  119  120 1    
   236  119  240 1    
   237  120  121 1    
   238  120  124 1    
   239  120  241 1    
   240  121  122 am   BACKBONE|DICT|INTERRES
   241  121  123 2    
   242  122  242 1    
   243  122  243 1    
   244  124  125 1    
   245  124  244 1    
   246  124  245 1    
   247  125  126 1    
   248  126  246 1    
   249  126  247 1    
@<TRIPOS>SUBSTRUCTURE
     1 UNK         1 GROUP             0       ****    0 ROOT    
