@<TRIPOS>MOLECULE
3R540
247   249    1
SMALL
USER_CHARGES


@<TRIPOS>ATOM
      1 CA         -2.6587  -14.9700  -53.0769 C.3       0 UNK        -0.1800 
      2 C          -1.5062  -14.5841  -52.1640 C.2       0 UNK         0.5000 
      3 O          -0.7107  -13.7128  -52.5172 O.2       0 UNK        -0.5000 
      4 N          -1.4105  -15.2338  -50.9993 N.am      1 UNK        -0.5000 
      5 CA         -0.4098  -14.9578  -49.9637 C.3       1 UNK         0.1400 
      6 C6         -0.2863  -16.1184  -48.9438 C.3       23 UNK        -0.0398 
      7 S7         -0.0039  -17.7408  -49.7294 S.3       23 UNK        -0.2404 
      8 C8          1.8075  -17.7320  -49.9376 C.3       23 UNK        -0.0205 
      9 C9          2.3385  -18.9663  -50.6633 C.ar      23 UNK        -0.0193 
     10 C10         1.7655  -19.3912  -51.8683 C.ar      23 UNK        -0.1150 
     11 C11         2.2716  -20.4982  -52.5588 C.ar      23 UNK        -0.0193 
     12 C12         3.3994  -21.1511  -52.0511 C.ar      23 UNK        -0.1150 
     13 C13         3.9874  -20.7401  -50.8526 C.ar      23 UNK        -0.0193 
     14 C14         3.4468  -19.6544  -50.1566 C.ar      23 UNK        -0.1150 
     15 C15         5.2340  -21.4518  -50.3490 C.3       23 UNK        -0.0205 
     16 S16         4.8709  -23.1263  -49.7311 S.3       23 UNK        -0.2404 
     17 C17         4.3626  -22.7929  -48.0139 C.3       23 UNK        -0.0398 
     18 CA          2.9893  -23.4151  -47.6555 C.3       11 UNK         0.1400 
     19 N           2.9250  -23.7562  -46.2308 N.am      11 UNK        -0.5000 
     20 C           1.9324  -24.4351  -45.6386 C.2       10 UNK         0.5000 
     21 O           0.9765  -24.9142  -46.2473 O.2       10 UNK        -0.5000 
     22 CA          1.9969  -24.5516  -44.1026 C.3       10 UNK         0.1400 
     23 CB          2.6890  -25.8592  -43.6915 C.3       10 UNK        -0.1800 
     24 N           2.6835  -23.4197  -43.4710 N.am      10 UNK        -0.5000 
     25 C           2.2276  -22.1597  -43.4654 C.2       9 UNK         0.5000 
     26 O           1.1592  -21.8173  -43.9755 O.2       9 UNK        -0.5000 
     27 CA          3.1663  -21.1010  -42.8738 C.3       9 UNK         0.1400 
     28 CB          3.7233  -20.2044  -43.9921 C.3       9 UNK        -0.1800 
     29 N           2.4620  -20.2618  -41.9082 N.am      9 UNK        -0.5000 
     30 C           2.7546  -20.1991  -40.6025 C.2       8 UNK         0.5000 
     31 O           3.5854  -20.9235  -40.0523 O.2       8 UNK        -0.5000 
     32 CA          2.0208  -19.1404  -39.7642 C.3       8 UNK         0.1400 
     33 CB          2.6160  -17.7464  -40.0224 C.3       8 UNK        -0.1800 
     34 N           0.5900  -19.1067  -40.0563 N.am      8 UNK        -0.5000 
     35 C          -0.3734  -19.5207  -39.2210 C.2       7 UNK         0.5000 
     36 O          -0.1525  -20.0146  -38.1143 O.2       7 UNK        -0.5000 
     37 CA         -1.8365  -19.3415  -39.6775 C.3       7 UNK         0.1400 
     38 CB         -2.4631  -18.1143  -38.9976 C.3       7 UNK        -0.1800 
     39 N          -1.9743  -19.1967  -41.1257 N.am      7 UNK        -0.5000 
     40 C          -1.8152  -20.1979  -42.0029 C.2       6 UNK         0.5000 
     41 O          -1.6318  -21.3685  -41.6705 O.2       6 UNK        -0.5000 
     42 CA         -1.8521  -19.8322  -43.5001 C.3       6 UNK         0.1400 
     43 CB         -3.2472  -20.1159  -44.0757 C.3       6 UNK        -0.1800 
     44 N          -1.5053  -18.4393  -43.7943 N.am      6 UNK        -0.5000 
     45 C          -0.3670  -17.8125  -43.4626 C.2       5 UNK         0.5000 
     46 O           0.5799  -18.3678  -42.9062 O.2       5 UNK        -0.5000 
     47 CA         -0.2947  -16.3014  -43.7554 C.3       5 UNK         0.1400 
     48 CB          0.5197  -16.0330  -45.0290 C.3       5 UNK        -0.1800 
     49 N          -1.6069  -15.6633  -43.8913 N.am      5 UNK        -0.5000 
     50 C          -2.5488  -15.5775  -42.9435 C.2       4 UNK         0.5000 
     51 O          -2.4128  -16.0583  -41.8167 O.2       4 UNK        -0.5000 
     52 CA         -3.8641  -14.8665  -43.3384 C.3       4 UNK         0.1400 
     53 CB         -4.7850  -14.6201  -42.1299 C.3       4 UNK        -0.1800 
     54 N          -3.6569  -13.5936  -44.0371 N.am      4 UNK        -0.5000 
     55 C          -3.2451  -13.4373  -45.3023 C.2       3 UNK         0.5000 
     56 O          -2.9613  -14.3844  -46.0401 O.2       3 UNK        -0.5000 
     57 CA         -3.1315  -11.9953  -45.8410 C.3       3 UNK         0.1400 
     58 CB         -3.0867  -10.9077  -44.7435 C.3       3 UNK        -0.1800 
     59 N          -2.0048  -11.8531  -46.7660 N.am      3 UNK        -0.5000 
     60 C          -0.7024  -12.0139  -46.4986 C.2       2 UNK         0.5000 
     61 O          -0.2506  -12.2659  -45.3799 O.2       2 UNK        -0.5000 
     62 CA          0.2479  -11.8930  -47.7088 C.3       2 UNK         0.1400 
     63 CB          1.6807  -11.5210  -47.2875 C.3       2 UNK        -0.1800 
     64 N           0.2988  -13.1264  -48.4960 N.am      2 UNK        -0.5000 
     65 C          -0.6980  -13.6201  -49.2436 C.2       1 UNK         0.5000 
     66 O          -1.7943  -13.0651  -49.3671 O.2       1 UNK        -0.5000 
     67 C           1.8183  -22.4961  -48.0646 C.2       11 UNK         0.5000 
     68 O           1.1625  -22.7398  -49.0770 O.2       11 UNK        -0.5000 
     69 N           1.5347  -21.4963  -47.2174 N.am      12 UNK        -0.5000 
     70 CA          0.4087  -20.5834  -47.3824 C.3       12 UNK         0.1400 
     71 CB          0.6217  -19.3451  -46.5072 C.3       12 UNK        -0.1800 
     72 C          -0.9452  -21.2458  -47.0771 C.2       12 UNK         0.5000 
     73 O          -1.9472  -20.8669  -47.6808 O.2       12 UNK        -0.5000 
     74 N          -0.9616  -22.2361  -46.1732 N.am      13 UNK        -0.5000 
     75 CA         -2.1399  -23.0542  -45.8795 C.3       13 UNK         0.1400 
     76 CB         -1.9143  -23.8746  -44.6019 C.3       13 UNK        -0.1800 
     77 C          -2.5323  -23.9510  -47.0655 C.2       13 UNK         0.5000 
     78 O          -3.7163  -24.0331  -47.3908 O.2       13 UNK        -0.5000 
     79 N          -1.5345  -24.5458  -47.7356 N.am      14 UNK        -0.5000 
     80 CA         -1.7035  -25.2999  -48.9818 C.3       14 UNK         0.1400 
     81 CB         -0.3828  -25.9984  -49.3388 C.3       14 UNK        -0.1800 
     82 C          -2.1935  -24.4219  -50.1521 C.2       14 UNK         0.5000 
     83 O          -2.9584  -24.8954  -50.9922 O.2       14 UNK        -0.5000 
     84 N          -1.7752  -23.1501  -50.1603 N.am      15 UNK        -0.5000 
     85 CA         -2.2191  -22.1208  -51.1009 C.3       15 UNK         0.1400 
     86 CB         -1.1560  -21.0181  -51.1396 C.3       15 UNK        -0.1800 
     87 C          -3.6015  -21.5215  -50.7697 C.2       15 UNK         0.5000 
     88 O          -4.1433  -20.7693  -51.5831 O.2       15 UNK        -0.5000 
     89 N          -4.1367  -21.8525  -49.5847 N.am      16 UNK        -0.5000 
     90 CA         -5.3759  -21.3473  -48.9921 C.3       16 UNK         0.1400 
     91 CB         -6.6054  -21.8829  -49.7540 C.3       16 UNK        -0.1800 
     92 C          -5.3616  -19.8160  -48.7927 C.2       16 UNK         0.5000 
     93 O          -6.3656  -19.1421  -49.0320 O.2       16 UNK        -0.5000 
     94 N          -4.2095  -19.3011  -48.3381 N.am      17 UNK        -0.5000 
     95 CA         -3.9208  -17.9013  -48.0313 C.3       17 UNK         0.1400 
     96 CB         -4.6761  -17.4736  -46.7515 C.3       17 UNK        -0.1800 
     97 C          -4.1624  -16.9796  -49.2459 C.2       17 UNK         0.5000 
     98 O          -3.4749  -17.1127  -50.2590 O.2       17 UNK        -0.5000 
     99 N          -5.1287  -16.0619  -49.1308 N.am      18 UNK        -0.5000 
    100 CA        -5.4847  -15.0743  -50.1486 C.3       18 UNK         0.1400 
    101 CB        -6.2886  -13.9521  -49.4726 C.3       18 UNK        -0.1800 
    102 C         -6.2542  -15.6513  -51.3568 C.2       18 UNK         0.5000 
    103 O         -6.4679  -14.9185  -52.3231 O.2       18 UNK        -0.5000 
    104 N         -6.6648  -16.9293  -51.3011 N.am      19 UNK        -0.5000 
    105 CA        -7.4102  -17.6115  -52.3669 C.3       19 UNK         0.1400 
    106 CB        -7.9371  -18.9517  -51.8406 C.3       19 UNK        -0.1800 
    107 C         -6.6037  -17.8346  -53.6630 C.2       19 UNK         0.5000 
    108 O         -7.2116  -18.0161  -54.7188 O.2       19 UNK        -0.5000 
    109 N         -5.2665  -17.7999  -53.5626 N.am      20 UNK        -0.5000 
    110 CA        -4.2993  -17.8623  -54.6633 C.3       20 UNK         0.1400 
    111 CB        -4.4759  -16.6618  -55.6200 C.3       20 UNK        -0.1800 
    112 C         -4.2780  -19.2155  -55.4032 C.2       20 UNK         0.5000 
    113 O         -4.0466  -19.2519  -56.6140 O.2       20 UNK        -0.5000 
    114 N         -4.4771  -20.3102  -54.6588 N.am      21 UNK        -0.5000 
    115 CA        -4.1595  -21.6656  -55.1091 C.3       21 UNK         0.1400 
    116 CB        -5.0803  -22.6574  -54.3755 C.3       21 UNK        -0.1800 
    117 C         -2.6707  -21.9630  -54.8341 C.2       21 UNK         0.5000 
    118 O         -1.9614  -21.1105  -54.2976 O.2       21 UNK        -0.5000 
    119 N         -2.2183  -23.1736  -55.1689 N.am      22 UNK        -0.5000 
    120 CA        -0.9217  -23.7256  -54.7534 C.3       22 UNK         0.1400 
    121 C         -0.8790  -25.2652  -54.9552 C.2       22 UNK         0.5000 
    122 N          0.1912  -25.9242  -54.5341 N.am      22 UNK        -0.7600 
    123 O         -1.8057  -25.8719  -55.4902 O.2       22 UNK        -0.5000 
    124 C124        0.3094  -22.9883  -55.3664 C.3       23 UNK        -0.0398 
    125 S125        1.6304  -22.7595  -54.1245 S.3       23 UNK        -0.2404 
    126 C126        1.5956  -20.9505  -53.8543 C.3       23 UNK        -0.0205 
    127 H127       -3.3076  -14.1113  -53.2489 H         1 UNK         0.0600 
    128 H128       -3.2623  -15.7692  -52.6481 H         1 UNK         0.0600 
    129 H129       -2.2742  -15.3092  -54.0385 H         1 UNK         0.0600 
    130 H130       -2.0955  -15.9489  -50.7660 H         1 UNK         0.3000 
    131 H131        0.5549  -14.8503  -50.4638 H         1 UNK         0.0600 
    132 H132        0.5269  -15.9324  -48.2410 H         1 UNK         0.0800 
    133 H133       -1.1936  -16.1903  -48.3426 H         1 UNK         0.0800 
    134 H134        2.2712  -17.6384  -48.9547 H         1 UNK         0.0800 
    135 H135        2.0986  -16.8486  -50.5068 H         1 UNK         0.0800 
    136 H136        0.9117  -18.8604  -52.2657 H         1 UNK         0.1150 
    137 H137        3.8258  -21.9890  -52.5837 H         1 UNK         0.1150 
    138 H138        3.9068  -19.3276  -49.2347 H         1 UNK         0.1150 
    139 H139        5.9444  -21.5354  -51.1727 H         1 UNK         0.0800 
    140 H140        5.7390  -20.8674  -49.5785 H         1 UNK         0.0800 
    141 H141        4.3862  -21.7223  -47.8025 H         1 UNK         0.0800 
    142 H142        5.1431  -23.2281  -47.3880 H         1 UNK         0.0800 
    143 H143        2.8756  -24.3537  -48.2029 H         1 UNK         0.0600 
    144 H144        3.6756  -23.4158  -45.6491 H         1 UNK         0.3000 
    145 H145        0.9728  -24.5751  -43.7264 H         1 UNK         0.0600 
    146 H146        2.6753  -25.9894  -42.6093 H         1 UNK         0.0600 
    147 H147        2.1831  -26.7218  -44.1275 H         1 UNK         0.0600 
    148 H148        3.7284  -25.8871  -44.0210 H         1 UNK         0.0600 
    149 H149        3.5706  -23.6222  -43.0323 H         1 UNK         0.3000 
    150 H150        4.0113  -21.6084  -42.4040 H         1 UNK         0.0600 
    151 H151        4.2304  -20.7936  -44.7570 H         1 UNK         0.0600 
    152 H152        4.4491  -19.4937  -43.5965 H         1 UNK         0.0600 
    153 H153        2.9353  -19.6317  -44.4819 H         1 UNK         0.0600 
    154 H154        1.7425  -19.6532  -42.2925 H         1 UNK         0.3000 
    155 H155        2.1905  -19.3805  -38.7125 H         1 UNK         0.0600 
    156 H156        2.4809  -17.4323  -41.0581 H         1 UNK         0.0600 
    157 H157        3.6862  -17.7333  -39.8119 H         1 UNK         0.0600 
    158 H158        2.1500  -16.9965  -39.3830 H         1 UNK         0.0600 
    159 H159        0.3306  -18.7595  -40.9728 H         1 UNK         0.3000 
    160 H160       -2.3926  -20.2271  -39.3628 H         1 UNK         0.0600 
    161 H161       -1.9419  -17.1953  -39.2690 H         1 UNK         0.0600 
    162 H162       -2.4238  -18.2058  -37.9114 H         1 UNK         0.0600 
    163 H163       -3.5107  -17.9996  -39.2765 H         1 UNK         0.0600 
    164 H164       -2.1285  -18.2573  -41.4725 H         1 UNK         0.3000 
    165 H165       -1.1274  -20.4713  -44.0041 H         1 UNK         0.0600 
    166 H166       -3.2473  -20.0350  -45.1625 H         1 UNK         0.0600 
    167 H167       -3.5800  -21.1232  -43.8228 H         1 UNK         0.0600 
    168 H168       -3.9924  -19.4226  -43.6839 H         1 UNK         0.0600 
    169 H169       -2.2213  -17.8877  -44.2409 H         1 UNK         0.3000 
    170 H170        0.2191  -15.8348  -42.9127 H         1 UNK         0.0600 
    171 H171        1.4934  -16.5233  -44.9871 H         1 UNK         0.0600 
    172 H172        0.0021  -16.3973  -45.9154 H         1 UNK         0.0600 
    173 H173        0.6983  -14.9659  -45.1633 H         1 UNK         0.0600 
    174 H174       -1.8223  -15.2427  -44.7912 H         1 UNK         0.3000 
    175 H175       -4.3895  -15.5419  -44.0165 H         1 UNK         0.0600 
    176 H176       -4.3184  -13.9600  -41.3976 H         1 UNK         0.0600 
    177 H177       -5.7281  -14.1679  -42.4375 H         1 UNK         0.0600 
    178 H178       -5.0283  -15.5548  -41.6227 H         1 UNK         0.0600 
    179 H179       -3.8294  -12.7615  -43.4919 H         1 UNK         0.3000 
    180 H180       -4.0304  -11.8272  -46.4356 H         1 UNK         0.0600 
    181 H181       -2.2674  -11.0668  -44.0414 H         1 UNK         0.0600 
    182 H182       -4.0152  -10.8809  -44.1723 H         1 UNK         0.0600 
    183 H183       -2.9579   -9.9177  -45.1815 H         1 UNK         0.0600 
    184 H184       -2.2573  -11.8014  -47.7467 H         1 UNK         0.3000 
    185 H185       -0.1263  -11.0907  -48.3485 H         1 UNK         0.0600 
    186 H186        2.1428  -12.3046  -46.6855 H         1 UNK         0.0600 
    187 H187        2.3152  -11.3482  -48.1570 H         1 UNK         0.0600 
    188 H188        1.6874  -10.6050  -46.6953 H         1 UNK         0.0600 
    189 H189        1.1656  -13.6402  -48.4382 H         1 UNK         0.3000 
    190 H190        2.0744  -21.3983  -46.3710 H         1 UNK         0.3000 
    191 H191        0.3911  -20.2632  -48.4238 H         1 UNK         0.0600 
    192 H192       -0.2215  -18.6601  -46.5997 H         1 UNK         0.0600 
    193 H193        1.5195  -18.8015  -46.8003 H         1 UNK         0.0600 
    194 H194        0.7189  -19.6138  -45.4568 H         1 UNK         0.0600 
    195 H195       -0.1118  -22.4469  -45.6656 H         1 UNK         0.3000 
    196 H196       -2.9783  -22.3810  -45.7010 H         1 UNK         0.0600 
    197 H197       -2.8403  -24.3557  -44.2855 H         1 UNK         0.0600 
    198 H198       -1.5768  -23.2442  -43.7790 H         1 UNK         0.0600 
    199 H199       -1.1767  -24.6620  -44.7488 H         1 UNK         0.0600 
    200 H200       -0.5900  -24.4750  -47.3683 H         1 UNK         0.3000 
    201 H201       -2.4588  -26.0688  -48.8069 H         1 UNK         0.0600 
    202 H202       -0.0614  -26.6660  -48.5391 H         1 UNK         0.0600 
    203 H203        0.4185  -25.2809  -49.5163 H         1 UNK         0.0600 
    204 H204       -0.4910  -26.5993  -50.2426 H         1 UNK         0.0600 
    205 H205       -1.0941  -22.8638  -49.4683 H         1 UNK         0.3000 
    206 H206       -2.2911  -22.5730  -52.0880 H         1 UNK         0.0600 
    207 H207       -0.1794  -21.4294  -51.3916 H         1 UNK         0.0600 
    208 H208       -1.3967  -20.2569  -51.8818 H         1 UNK         0.0600 
    209 H209       -1.0721  -20.5117  -50.1806 H         1 UNK         0.0600 
    210 H210       -3.6022  -22.4731  -48.9908 H         1 UNK         0.3000 
    211 H211       -5.4188  -21.7646  -47.9851 H         1 UNK         0.0600 
    212 H212       -6.5736  -21.6331  -50.8129 H         1 UNK         0.0600 
    213 H213       -7.5345  -21.4849  -49.3447 H         1 UNK         0.0600 
    214 H214       -6.6605  -22.9688  -49.6789 H         1 UNK         0.0600 
    215 H215       -3.4254  -19.9382  -48.2047 H         1 UNK         0.3000 
    216 H216       -2.8527  -17.8519  -47.8170 H         1 UNK         0.0600 
    217 H217       -4.4515  -16.4423  -46.4837 H         1 UNK         0.0600 
    218 H218       -4.3853  -18.0899  -45.9029 H         1 UNK         0.0600 
    219 H219       -5.7577  -17.5600  -46.8604 H         1 UNK         0.0600 
    220 H220       -5.6660  -16.0390  -48.2766 H         1 UNK         0.3000 
    221 H221       -4.5611  -14.6384  -50.5359 H         1 UNK         0.0600 
    222 H222       -7.2249  -14.3241  -49.0548 H         1 UNK         0.0600 
    223 H223       -5.7185  -13.4907  -48.6657 H         1 UNK         0.0600 
    224 H224       -6.5365  -13.1628  -50.1835 H         1 UNK         0.0600 
    225 H225       -6.4582  -17.4772  -50.4732 H         1 UNK         0.3000 
    226 H226       -8.2691  -16.9873  -52.6217 H         1 UNK         0.0600 
    227 H227       -7.1133  -19.6272  -51.6178 H         1 UNK         0.0600 
    228 H228       -8.5266  -18.8227  -50.9327 H         1 UNK         0.0600 
    229 H229       -8.5734  -19.4420  -52.5784 H         1 UNK         0.0600 
    230 H230       -4.8736  -17.6915  -52.6371 H         1 UNK         0.3000 
    231 H231       -3.3171  -17.7680  -54.1983 H         1 UNK         0.0600 
    232 H232       -3.6238  -16.5729  -56.2947 H         1 UNK         0.0600 
    233 H233       -4.5586  -15.7228  -55.0736 H         1 UNK         0.0600 
    234 H234       -5.3694  -16.7637  -56.2366 H         1 UNK         0.0600 
    235 H235       -4.5793  -20.1978  -53.6563 H         1 UNK         0.3000 
    236 H236       -4.3366  -21.7565  -56.1826 H         1 UNK         0.0600 
    237 H237       -6.1291  -22.3898  -54.5055 H         1 UNK         0.0600 
    238 H238       -4.9576  -23.6700  -54.7607 H         1 UNK         0.0600 
    239 H239       -4.8754  -22.6892  -53.3056 H         1 UNK         0.0600 
    240 H240       -2.8333  -23.8505  -55.6027 H         1 UNK         0.3000 
    241 H241       -0.9037  -23.5963  -53.6698 H         1 UNK         0.0600 
    242 H242        0.2350  -26.9238  -54.6583 H         1 UNK         0.3800 
    243 H243        0.9652  -25.4411  -54.1033 H         1 UNK         0.3800 
    244 H244        0.7162  -23.5323  -56.2206 H         1 UNK         0.0800 
    245 H245        0.0339  -22.0117  -55.7643 H         1 UNK         0.0800 
    246 H246        2.0750  -20.4534  -54.6982 H         1 UNK         0.0800 
    247 H247        0.5562  -20.6215  -53.8466 H         1 UNK         0.0800 
@<TRIPOS>BOND
     1    1    2 1    
     2    1  127 1    
     3    1  128 1    
     4    1  129 1    
     5    2    3 2    
     6    2    4 am   BACKBONE|DICT|INTERRES
     7    4    5 1    
     8    4  130 1    
     9    5    6 1    
    10    5   65 1    
    11    5  131 1    
    12    6    7 1    
    13    6  132 1    
    14    6  133 1    
    15    7    8 1    
    16    8    9 1    
    17    8  134 1    
    18    8  135 1    
    19    9   10 ar   
    20    9   14 ar   
    21   10   11 ar   
    22   10  136 1    
    23   11   12 ar   
    24   11  126 1    
    25   12   13 ar   
    26   12  137 1    
    27   13   14 ar   
    28   13   15 1    
    29   14  138 1    
    30   15   16 1    
    31   15  139 1    
    32   15  140 1    
    33   16   17 1    
    34   17   18 1    
    35   17  141 1    
    36   17  142 1    
    37   18   19 1    
    38   18   67 1    
    39   18  143 1    
    40   19   20 am   BACKBONE|DICT|INTERRES
    41   19  144 1    
    42   20   21 2    
    43   20   22 1    
    44   22   23 1    
    45   22   24 1    
    46   22  145 1    
    47   23  146 1    
    48   23  147 1    
    49   23  148 1    
    50   24   25 am   BACKBONE|DICT|INTERRES
    51   24  149 1    
    52   25   26 2    
    53   25   27 1    
    54   27   28 1    
    55   27   29 1    
    56   27  150 1    
    57   28  151 1    
    58   28  152 1    
    59   28  153 1    
    60   29   30 am   BACKBONE|DICT|INTERRES
    61   29  154 1    
    62   30   31 2    
    63   30   32 1    
    64   32   33 1    
    65   32   34 1    
    66   32  155 1    
    67   33  156 1    
    68   33  157 1    
    69   33  158 1    
    70   34   35 am   BACKBONE|DICT|INTERRES
    71   34  159 1    
    72   35   36 2    
    73   35   37 1    
    74   37   38 1    
    75   37   39 1    
    76   37  160 1    
    77   38  161 1    
    78   38  162 1    
    79   38  163 1    
    80   39   40 am   BACKBONE|DICT|INTERRES
    81   39  164 1    
    82   40   41 2    
    83   40   42 1    
    84   42   43 1    
    85   42   44 1    
    86   42  165 1    
    87   43  166 1    
    88   43  167 1    
    89   43  168 1    
    90   44   45 am   BACKBONE|DICT|INTERRES
    91   44  169 1    
    92   45   46 2    
    93   45   47 1    
    94   47   48 1    
    95   47   49 1    
    96   47  170 1    
    97   48  171 1    
    98   48  172 1    
    99   48  173 1    
   100   49   50 am   BACKBONE|DICT|INTERRES
   101   49  174 1    
   102   50   51 2    
   103   50   52 1    
   104   52   53 1    
   105   52   54 1    
   106   52  175 1    
   107   53  176 1    
   108   53  177 1    
   109   53  178 1    
   110   54   55 am   BACKBONE|DICT|INTERRES
   111   54  179 1    
   112   55   56 2    
   113   55   57 1    
   114   57   58 1    
   115   57   59 1    
   116   57  180 1    
   117   58  181 1    
   118   58  182 1    
   119   58  183 1    
   120   59   60 am   BACKBONE|DICT|INTERRES
   121   59  184 1    
   122   60   61 2    
   123   60   62 1    
   124   62   63 1    
   125   62   64 1    
   126   62  185 1    
   127   63  186 1    
   128   63  187 1    
   129   63  188 1    
   130   64   65 am   BACKBONE|DICT|INTERRES
   131   64  189 1    
   132   65   66 2    
   133   67   68 2    
   134   67   69 am   BACKBONE|DICT|INTERRES
   135   69   70 1    
   136   69  190 1    
   137   70   71 1    
   138   70   72 1    
   139   70  191 1    
   140   71  192 1    
   141   71  193 1    
   142   71  194 1    
   143   72   73 2    
   144   72   74 am   BACKBONE|DICT|INTERRES
   145   74   75 1    
   146   74  195 1    
   147   75   76 1    
   148   75   77 1    
   149   75  196 1    
   150   76  197 1    
   151   76  198 1    
   152   76  199 1    
   153   77   78 2    
   154   77   79 am   BACKBONE|DICT|INTERRES
   155   79   80 1    
   156   79  200 1    
   157   80   81 1    
   158   80   82 1    
   159   80  201 1    
   160   81  202 1    
   161   81  203 1    
   162   81  204 1    
   163   82   83 2    
   164   82   84 am   BACKBONE|DICT|INTERRES
   165   84   85 1    
   166   84  205 1    
   167   85   86 1    
   168   85   87 1    
   169   85  206 1    
   170   86  207 1    
   171   86  208 1    
   172   86  209 1    
   173   87   88 2    
   174   87   89 am   BACKBONE|DICT|INTERRES
   175   89   90 1    
   176   89  210 1    
   177   90   91 1    
   178   90   92 1    
   179   90  211 1    
   180   91  212 1    
   181   91  213 1    
   182   91  214 1    
   183   92   93 2    
   184   92   94 am   BACKBONE|DICT|INTERRES
   185   94   95 1    
   186   94  215 1    
   187   95   96 1    
   188   95   97 1    
   189   95  216 1    
   190   96  217 1    
   191   96  218 1    
   192   96  219 1    
   193   97   98 2    
   194   97   99 am   BACKBONE|DICT|INTERRES
   195   99  100 1    
   196   99  220 1    
   197  100  101 1    
   198  100  102 1    
   199  100  221 1    
   200  101  222 1    
   201  101  223 1    
   202  101  224 1    
   203  102  103 2    
   204  102  104 am   BACKBONE|DICT|INTERRES
   205  104  105 1    
   206  104  225 1    
   207  105  106 1    
   208  105  107 1    
   209  105  226 1    
   210  106  227 1    
   211  106  228 1    
   212  106  229 1    
   213  107  108 2    
   214  107  109 am   BACKBONE|DICT|INTERRES
   215  109  110 1    
   216  109  230 1    
   217  110  111 1    
   218  110  112 1    
   219  110  231 1    
   220  111  232 1    
   221  111  233 1    
   222  111  234 1    
   223  112  113 2    
   224  112  114 am   BACKBONE|DICT|INTERRES
   225  114  115 1    
   226  114  235 1    
   227  115  116 1    
   228  115  117 1    
   229  115  236 1    
   230  116  237 1    
   231  116  238 1    
   232  116  239 1    
   233  117  118 2    
   234  117  119 am   BACKBONE|DICT|INTERRES
   235  119  120 1    
   236  119  240 1    
   237  120  121 1    
   238  120  124 1    
   239  120  241 1    
   240  121  122 am   BACKBONE|DICT|INTERRES
   241  121  123 2    
   242  122  242 1    
   243  122  243 1    
   244  124  125 1    
   245  124  244 1    
   246  124  245 1    
   247  125  126 1    
   248  126  246 1    
   249  126  247 1    
@<TRIPOS>SUBSTRUCTURE
     1 UNK         1 GROUP             0       ****    0 ROOT    
