@<TRIPOS>MOLECULE
3R540
247   249    1
SMALL
USER_CHARGES


@<TRIPOS>ATOM
      1 CA         -0.7652  -15.4217  -48.9778 C.3       0 UNK        -0.1800 
      2 C          -1.0224  -14.6365  -47.7052 C.2       0 UNK         0.5000 
      3 O          -0.0745  -14.2006  -47.0581 O.2       0 UNK        -0.5000 
      4 N          -2.2956  -14.4156  -47.3540 N.am      1 UNK        -0.5000 
      5 CA         -2.7075  -13.6388  -46.1754 C.3       1 UNK         0.1400 
      6 C6         -4.1805  -13.8976  -45.7800 C.3       23 UNK        -0.0398 
      7 S7         -5.4022  -13.4735  -47.0705 S.3       23 UNK        -0.2404 
      8 C8         -6.0762  -15.1079  -47.5078 C.3       23 UNK        -0.0205 
      9 C9         -5.1875  -15.8433  -48.4987 C.ar      23 UNK        -0.0193 
     10 C10        -5.2098  -15.4763  -49.8473 C.ar      23 UNK        -0.1150 
     11 C11        -4.4278  -16.1570  -50.7832 C.ar      23 UNK        -0.0193 
     12 C12        -3.6146  -17.2098  -50.3593 C.ar      23 UNK        -0.1150 
     13 C13        -3.5693  -17.5763  -49.0112 C.ar      23 UNK        -0.0193 
     14 C14        -4.3634  -16.8950  -48.0831 C.ar      23 UNK        -0.1150 
     15 C15        -2.6431  -18.6966  -48.5730 C.3       23 UNK        -0.0205 
     16 S16        -3.2667  -20.3100  -49.1184 S.3       23 UNK        -0.2404 
     17 C17        -3.8994  -21.0547  -47.5830 C.3       23 UNK        -0.0398 
     18 CA         -3.1733  -22.3916  -47.2967 C.3       11 UNK         0.1400 
     19 N          -1.8516  -22.2029  -46.6905 N.am      11 UNK        -0.5000 
     20 C          -0.9678  -23.1873  -46.4680 C.2       10 UNK         0.5000 
     21 O          -1.1461  -24.3583  -46.8093 O.2       10 UNK        -0.5000 
     22 CA          0.3099  -22.8250  -45.6899 C.3       10 UNK         0.1400 
     23 CB          1.4504  -22.4881  -46.6596 C.3       10 UNK        -0.1800 
     24 N           0.1467  -21.7379  -44.7185 N.am      10 UNK        -0.5000 
     25 C          -0.7370  -21.7278  -43.7085 C.2       9 UNK         0.5000 
     26 O          -1.5651  -22.6177  -43.5149 O.2       9 UNK        -0.5000 
     27 CA         -0.7202  -20.5113  -42.7703 C.3       9 UNK         0.1400 
     28 CB          0.3607  -20.6819  -41.6931 C.3       9 UNK        -0.1800 
     29 N          -0.5195  -19.2456  -43.4728 N.am      9 UNK        -0.5000 
     30 C          -1.3837  -18.7059  -44.3446 C.2       8 UNK         0.5000 
     31 O          -2.4569  -19.2206  -44.6601 O.2       8 UNK        -0.5000 
     32 CA         -0.9559  -17.3766  -44.9939 C.3       8 UNK         0.1400 
     33 CB         -1.0733  -16.2204  -43.9884 C.3       8 UNK        -0.1800 
     34 N           0.4096  -17.4281  -45.5138 N.am      8 UNK        -0.5000 
     35 C           0.8450  -18.2768  -46.4562 C.2       7 UNK         0.5000 
     36 O           0.1287  -19.0861  -47.0433 O.2       7 UNK        -0.5000 
     37 CA          2.3515  -18.2466  -46.7557 C.3       7 UNK         0.1400 
     38 CB          2.6917  -17.1142  -47.7382 C.3       7 UNK        -0.1800 
     39 N           3.1431  -18.1044  -45.5321 N.am      7 UNK        -0.5000 
     40 C           3.2499  -19.0520  -44.5882 C.2       6 UNK         0.5000 
     41 O           2.7200  -20.1599  -44.6667 O.2       6 UNK        -0.5000 
     42 CA          4.0462  -18.6827  -43.3231 C.3       6 UNK         0.1400 
     43 CB          5.5563  -18.8115  -43.5732 C.3       6 UNK        -0.1800 
     44 N           3.7456  -17.3325  -42.8467 N.am      6 UNK        -0.5000 
     45 C           2.5528  -16.9445  -42.3733 C.2       5 UNK         0.5000 
     46 O           1.5958  -17.7041  -42.2338 O.2       5 UNK        -0.5000 
     47 CA          2.3855  -15.4490  -42.0417 C.3       5 UNK         0.1400 
     48 CB          2.7319  -15.1829  -40.5694 C.3       5 UNK        -0.1800 
     49 N           3.1832  -14.5631  -42.8954 N.am      5 UNK        -0.5000 
     50 C           3.0604  -14.4717  -44.2262 C.2       4 UNK         0.5000 
     51 O           2.2804  -15.1593  -44.8882 O.2       4 UNK        -0.5000 
     52 CA          4.0367  -13.5142  -44.9318 C.3       4 UNK         0.1400 
     53 CB          5.3297  -14.2610  -45.2965 C.3       4 UNK        -0.1800 
     54 N           3.4738  -12.9352  -46.1503 N.am      4 UNK        -0.5000 
     55 C           2.4771  -12.0418  -46.1945 C.2       3 UNK         0.5000 
     56 O           1.9410  -11.5731  -45.1870 O.2       3 UNK        -0.5000 
     57 CA          2.0394  -11.5509  -47.5901 C.3       3 UNK         0.1400 
     58 CB          2.4614  -12.4888  -48.7412 C.3       3 UNK        -0.1800 
     59 N           0.5881  -11.3978  -47.6240 N.am      3 UNK        -0.5000 
     60 C          -0.0810  -10.2427  -47.7410 C.2       2 UNK         0.5000 
     61 O           0.4702   -9.1445  -47.8319 O.2       2 UNK        -0.5000 
     62 CA         -1.6240  -10.3091  -47.7958 C.3       2 UNK         0.1400 
     63 CB         -2.1332   -9.8849  -49.1832 C.3       2 UNK        -0.1800 
     64 N          -2.1469  -11.6435  -47.5037 N.am      2 UNK        -0.5000 
     65 C          -2.3674  -12.1335  -46.2767 C.2       1 UNK         0.5000 
     66 O          -2.2729  -11.4627  -45.2482 O.2       1 UNK        -0.5000 
     67 C          -4.0722  -23.3378  -46.4798 C.2       11 UNK         0.5000 
     68 O          -4.7825  -24.1434  -47.0810 O.2       11 UNK        -0.5000 
     69 N          -4.0134  -23.2454  -45.1470 N.am      12 UNK        -0.5000 
     70 CA         -4.7650  -24.1106  -44.2414 C.3       12 UNK         0.1400 
     71 CB         -5.1196  -23.3192  -42.9727 C.3       12 UNK        -0.1800 
     72 C          -3.9713  -25.3766  -43.8810 C.2       12 UNK         0.5000 
     73 O          -4.5541  -26.4582  -43.7986 O.2       12 UNK        -0.5000 
     74 N          -2.6638  -25.2126  -43.6449 N.am      13 UNK        -0.5000 
     75 CA         -1.7914  -26.2414  -43.0863 C.3       13 UNK         0.1400 
     76 CB         -0.5493  -25.5673  -42.4823 C.3       13 UNK        -0.1800 
     77 C          -1.3696  -27.3365  -44.0797 C.2       13 UNK         0.5000 
     78 O          -1.0907  -28.4504  -43.6319 O.2       13 UNK        -0.5000 
     79 N          -1.2883  -27.0189  -45.3804 N.am      14 UNK        -0.5000 
     80 CA         -0.7024  -27.9185  -46.3761 C.3       14 UNK         0.1400 
     81 CB          0.7906  -27.5850  -46.5497 C.3       14 UNK        -0.1800 
     82 C          -1.4267  -27.8981  -47.7281 C.2       14 UNK         0.5000 
     83 O          -1.7679  -28.9653  -48.2403 O.2       14 UNK        -0.5000 
     84 N          -1.6005  -26.7074  -48.3152 N.am      15 UNK        -0.5000 
     85 CA         -1.9880  -26.5613  -49.7212 C.3       15 UNK         0.1400 
     86 CB         -1.6060  -25.1568  -50.2070 C.3       15 UNK        -0.1800 
     87 C          -3.4741  -26.8382  -50.0058 C.2       15 UNK         0.5000 
     88 O          -3.7947  -27.2454  -51.1229 O.2       15 UNK        -0.5000 
     89 N          -4.3403  -26.6018  -49.0074 N.am      16 UNK        -0.5000 
     90 CA         -5.8057  -26.5720  -49.1077 C.3       16 UNK         0.1400 
     91 CB         -6.3810  -27.9611  -49.4574 C.3       16 UNK        -0.1800 
     92 C          -6.2562  -25.4503  -50.0683 C.2       16 UNK         0.5000 
     93 O          -6.9061  -25.7128  -51.0824 O.2       16 UNK        -0.5000 
     94 N          -5.8500  -24.2240  -49.7094 N.am      17 UNK        -0.5000 
     95 CA         -5.9081  -22.9636  -50.4579 C.3       17 UNK         0.1400 
     96 CB         -7.3359  -22.6470  -50.9468 C.3       17 UNK        -0.1800 
     97 C          -4.8796  -22.8882  -51.6059 C.2       17 UNK         0.5000 
     98 O          -4.3790  -23.9107  -52.0758 O.2       17 UNK        -0.5000 
     99 N          -4.5889  -21.6498  -52.0311 N.am      18 UNK        -0.5000 
    100 CA        -3.6926  -21.2750  -53.1319 C.3       18 UNK         0.1400 
    101 CB        -4.2915  -21.7048  -54.4877 C.3       18 UNK        -0.1800 
    102 C         -2.2301  -21.7363  -52.9408 C.2       18 UNK         0.5000 
    103 O         -1.5987  -22.2037  -53.8907 O.2       18 UNK        -0.5000 
    104 N         -1.7060  -21.5765  -51.7161 N.am      19 UNK        -0.5000 
    105 CA        -0.2875  -21.7793  -51.4004 C.3       19 UNK         0.1400 
    106 CB        -0.0934  -21.8262  -49.8772 C.3       19 UNK        -0.1800 
    107 C          0.5992  -20.6726  -52.0012 C.2       19 UNK         0.5000 
    108 O          1.7206  -20.9481  -52.4293 O.2       19 UNK        -0.5000 
    109 N          0.0665  -19.4454  -52.0205 N.am      20 UNK        -0.5000 
    110 CA         0.6646  -18.2736  -52.6497 C.3       20 UNK         0.1400 
    111 CB         0.3237  -17.0430  -51.7970 C.3       20 UNK        -0.1800 
    112 C          0.1377  -18.1077  -54.0852 C.2       20 UNK         0.5000 
    113 O         -0.8696  -18.7188  -54.4546 O.2       20 UNK        -0.5000 
    114 N          0.8121  -17.2457  -54.8584 N.am      21 UNK        -0.5000 
    115 CA         0.5419  -16.9594  -56.2735 C.3       21 UNK         0.1400 
    116 CB         1.6007  -15.9718  -56.7884 C.3       21 UNK        -0.1800 
    117 C         -0.8766  -16.4348  -56.5812 C.2       21 UNK         0.5000 
    118 O         -1.3299  -16.5612  -57.7196 O.2       21 UNK        -0.5000 
    119 N         -1.5561  -15.8789  -55.5704 N.am      22 UNK        -0.5000 
    120 CA        -2.9816  -15.5231  -55.6130 C.3       22 UNK         0.1400 
    121 C         -3.9611  -16.7360  -55.6450 C.2       22 UNK         0.5000 
    122 N         -3.5280  -17.9620  -55.3722 N.am      22 UNK        -0.7600 
    123 O         -5.1413  -16.5594  -55.9340 O.2       22 UNK        -0.5000 
    124 C124       -3.3559  -14.5047  -54.5037 C.3       23 UNK        -0.0398 
    125 S125       -2.9122  -15.0238  -52.8066 S.3       23 UNK        -0.2404 
    126 C126       -4.4766  -15.7719  -52.2527 C.3       23 UNK        -0.0205 
    127 H127        0.0839  -14.9984  -49.5142 H         1 UNK         0.0600 
    128 H128       -1.6262  -15.3960  -49.6441 H         1 UNK         0.0600 
    129 H129       -0.5343  -16.4579  -48.7351 H         1 UNK         0.0600 
    130 H130       -3.0476  -14.7842  -47.9218 H         1 UNK         0.3000 
    131 H131       -2.1069  -13.9966  -45.3407 H         1 UNK         0.0600 
    132 H132       -4.2947  -14.9461  -45.5029 H         1 UNK         0.0800 
    133 H133       -4.4326  -13.3363  -44.8786 H         1 UNK         0.0800 
    134 H134       -6.2391  -15.7036  -46.6083 H         1 UNK         0.0800 
    135 H135       -7.0620  -14.9671  -47.9536 H         1 UNK         0.0800 
    136 H136       -5.8462  -14.6630  -50.1675 H         1 UNK         0.1150 
    137 H137       -3.0087  -17.7390  -51.0809 H         1 UNK         0.1150 
    138 H138       -4.3387  -17.1826  -47.0412 H         1 UNK         0.1150 
    139 H139       -1.6599  -18.5422  -49.0186 H         1 UNK         0.0800 
    140 H140       -2.4913  -18.6830  -47.4942 H         1 UNK         0.0800 
    141 H141       -4.9717  -21.1996  -47.7239 H         1 UNK         0.0800 
    142 H142       -3.8058  -20.3694  -46.7399 H         1 UNK         0.0800 
    143 H143       -3.0137  -22.8978  -48.2489 H         1 UNK         0.0600 
    144 H144       -1.6167  -21.2677  -46.3859 H         1 UNK         0.3000 
    145 H145        0.6016  -23.7157  -45.1315 H         1 UNK         0.0600 
    146 H146        2.4011  -22.4017  -46.1340 H         1 UNK         0.0600 
    147 H147        1.5698  -23.2680  -47.4130 H         1 UNK         0.0600 
    148 H148        1.2691  -21.5484  -47.1811 H         1 UNK         0.0600 
    149 H149        0.8162  -20.9781  -44.7830 H         1 UNK         0.3000 
    150 H150       -1.6911  -20.4662  -42.2726 H         1 UNK         0.0600 
    151 H151        0.2323  -21.6214  -41.1538 H         1 UNK         0.0600 
    152 H152        0.3150  -19.8772  -40.9591 H         1 UNK         0.0600 
    153 H153        1.3622  -20.6834  -42.1252 H         1 UNK         0.0600 
    154 H154        0.3231  -18.7287  -43.2354 H         1 UNK         0.3000 
    155 H155       -1.6193  -17.1691  -45.8352 H         1 UNK         0.0600 
    156 H156       -0.6125  -16.4609  -43.0311 H         1 UNK         0.0600 
    157 H157       -2.1195  -15.9839  -43.7923 H         1 UNK         0.0600 
    158 H158       -0.5886  -15.3185  -44.3615 H         1 UNK         0.0600 
    159 H159        1.0682  -16.7530  -45.1375 H         1 UNK         0.3000 
    160 H160        2.6189  -19.1958  -47.2251 H         1 UNK         0.0600 
    161 H161        2.4166  -16.1351  -47.3446 H         1 UNK         0.0600 
    162 H162        2.1569  -17.2462  -48.6794 H         1 UNK         0.0600 
    163 H163        3.7567  -17.0969  -47.9690 H         1 UNK         0.0600 
    164 H164        3.5427  -17.1944  -45.3564 H         1 UNK         0.3000 
    165 H165        3.7686  -19.3887  -42.5374 H         1 UNK         0.0600 
    166 H166        6.1236  -18.6305  -42.6600 H         1 UNK         0.0600 
    167 H167        5.8098  -19.8148  -43.9184 H         1 UNK         0.0600 
    168 H168        5.9031  -18.1064  -44.3296 H         1 UNK         0.0600 
    169 H169        4.4797  -16.6447  -42.9222 H         1 UNK         0.3000 
    170 H170        1.3350  -15.1952  -42.1955 H         1 UNK         0.0600 
    171 H171        2.1353  -15.8131  -39.9082 H         1 UNK         0.0600 
    172 H172        3.7822  -15.3880  -40.3589 H         1 UNK         0.0600 
    173 H173        2.5298  -14.1468  -40.2971 H         1 UNK         0.0600 
    174 H174        3.8608  -13.9804  -42.4252 H         1 UNK         0.3000 
    175 H175        4.2829  -12.6979  -44.2496 H         1 UNK         0.0600 
    176 H176        5.1391  -15.0817  -45.9897 H         1 UNK         0.0600 
    177 H177        6.0542  -13.5917  -45.7609 H         1 UNK         0.0600 
    178 H178        5.8043  -14.6837  -44.4100 H         1 UNK         0.0600 
    179 H179        3.8327  -13.2940  -47.0220 H         1 UNK         0.3000 
    180 H180        2.5276  -10.5876  -47.7480 H         1 UNK         0.0600 
    181 H181        2.0977  -13.5062  -48.5908 H         1 UNK         0.0600 
    182 H182        3.5461  -12.5310  -48.8446 H         1 UNK         0.0600 
    183 H183        2.0678  -12.1366  -49.6949 H         1 UNK         0.0600 
    184 H184        0.0722  -12.2555  -47.4581 H         1 UNK         0.3000 
    185 H185       -2.0098   -9.6003  -47.0602 H         1 UNK         0.0600 
    186 H186       -1.8041   -8.8747  -49.4301 H         1 UNK         0.0600 
    187 H187       -1.7678  -10.5501  -49.9666 H         1 UNK         0.0600 
    188 H188       -3.2227   -9.8877  -49.2210 H         1 UNK         0.0600 
    189 H189       -2.2587  -12.2669  -48.2899 H         1 UNK         0.3000 
    190 H190       -3.3463  -22.6123  -44.7227 H         1 UNK         0.3000 
    191 H191       -5.6998  -24.4211  -44.7136 H         1 UNK         0.0600 
    192 H192       -5.7314  -22.4490  -43.2109 H         1 UNK         0.0600 
    193 H193       -5.6878  -23.9350  -42.2742 H         1 UNK         0.0600 
    194 H194       -4.2278  -22.9682  -42.4517 H         1 UNK         0.0600 
    195 H195       -2.2722  -24.2749  -43.7010 H         1 UNK         0.3000 
    196 H196       -2.3292  -26.7328  -42.2724 H         1 UNK         0.0600 
    197 H197        0.1022  -26.3009  -42.0057 H         1 UNK         0.0600 
    198 H198       -0.8265  -24.8370  -41.7217 H         1 UNK         0.0600 
    199 H199        0.0380  -25.0523  -43.2422 H         1 UNK         0.0600 
    200 H200       -1.5316  -26.0839  -45.6870 H         1 UNK         0.3000 
    201 H201       -0.7687  -28.9513  -46.0273 H         1 UNK         0.0600 
    202 H202        1.3397  -27.7452  -45.6217 H         1 UNK         0.0600 
    203 H203        0.9389  -26.5468  -46.8497 H         1 UNK         0.0600 
    204 H204        1.2492  -28.2176  -47.3109 H         1 UNK         0.0600 
    205 H205       -1.3228  -25.8595  -47.8252 H         1 UNK         0.3000 
    206 H206       -1.4073  -27.2780  -50.3065 H         1 UNK         0.0600 
    207 H207       -0.5504  -24.9489  -50.0325 H         1 UNK         0.0600 
    208 H208       -1.7873  -25.0499  -51.2775 H         1 UNK         0.0600 
    209 H209       -2.1939  -24.3916  -49.7045 H         1 UNK         0.0600 
    210 H210       -3.9606  -26.2605  -48.1351 H         1 UNK         0.3000 
    211 H211       -6.1800  -26.3081  -48.1174 H         1 UNK         0.0600 
    212 H212       -6.1034  -28.2835  -50.4610 H         1 UNK         0.0600 
    213 H213       -7.4705  -27.9489  -49.4120 H         1 UNK         0.0600 
    214 H214       -6.0343  -28.7184  -48.7544 H         1 UNK         0.0600 
    215 H215       -5.3557  -24.1686  -48.8222 H         1 UNK         0.3000 
    216 H216       -5.6352  -22.1934  -49.7380 H         1 UNK         0.0600 
    217 H217       -7.4021  -21.6253  -51.3218 H         1 UNK         0.0600 
    218 H218       -8.0613  -22.7421  -50.1388 H         1 UNK         0.0600 
    219 H219       -7.6458  -23.3060  -51.7581 H         1 UNK         0.0600 
    220 H220       -5.0328  -20.8729  -51.5617 H         1 UNK         0.3000 
    221 H221       -3.6553  -20.1845  -53.1291 H         1 UNK         0.0600 
    222 H222       -4.3272  -22.7899  -54.5880 H         1 UNK         0.0600 
    223 H223       -5.3051  -21.3233  -54.6098 H         1 UNK         0.0600 
    224 H224       -3.6982  -21.3191  -55.3177 H         1 UNK         0.0600 
    225 H225       -2.2931  -21.2175  -50.9745 H         1 UNK         0.3000 
    226 H226        0.0264  -22.7385  -51.8175 H         1 UNK         0.0600 
    227 H227       -0.7414  -22.5655  -49.4130 H         1 UNK         0.0600 
    228 H228        0.9343  -22.0934  -49.6308 H         1 UNK         0.0600 
    229 H229       -0.2999  -20.8635  -49.4076 H         1 UNK         0.0600 
    230 H230       -0.8853  -19.3413  -51.7060 H         1 UNK         0.3000 
    231 H231        1.7505  -18.3826  -52.6894 H         1 UNK         0.0600 
    232 H232       -0.7530  -16.8937  -51.7153 H         1 UNK         0.0600 
    233 H233        0.7514  -16.1322  -52.2174 H         1 UNK         0.0600 
    234 H234        0.7244  -17.1514  -50.7897 H         1 UNK         0.0600 
    235 H235        1.6114  -16.7716  -54.4633 H         1 UNK         0.3000 
    236 H236        0.6573  -17.8976  -56.8198 H         1 UNK         0.0600 
    237 H237        2.6068  -16.3767  -56.6779 H         1 UNK         0.0600 
    238 H238        1.4546  -15.7572  -57.8480 H         1 UNK         0.0600 
    239 H239        1.5581  -15.0227  -56.2527 H         1 UNK         0.0600 
    240 H240       -1.1159  -15.8222  -54.6642 H         1 UNK         0.3000 
    241 H241       -3.1441  -15.0109  -56.5634 H         1 UNK         0.0600 
    242 H242       -4.1779  -18.7282  -55.4234 H         1 UNK         0.3800 
    243 H243       -2.5593  -18.1380  -55.1192 H         1 UNK         0.3800 
    244 H244       -2.8311  -13.5683  -54.6970 H         1 UNK         0.0800 
    245 H245       -4.4161  -14.2497  -54.5492 H         1 UNK         0.0800 
    246 H246       -4.6878  -16.6635  -52.8435 H         1 UNK         0.0800 
    247 H247       -5.2962  -15.0757  -52.4368 H         1 UNK         0.0800 
@<TRIPOS>BOND
     1    1    2 1    
     2    1  127 1    
     3    1  128 1    
     4    1  129 1    
     5    2    3 2    
     6    2    4 am   BACKBONE|DICT|INTERRES
     7    4    5 1    
     8    4  130 1    
     9    5    6 1    
    10    5   65 1    
    11    5  131 1    
    12    6    7 1    
    13    6  132 1    
    14    6  133 1    
    15    7    8 1    
    16    8    9 1    
    17    8  134 1    
    18    8  135 1    
    19    9   10 ar   
    20    9   14 ar   
    21   10   11 ar   
    22   10  136 1    
    23   11   12 ar   
    24   11  126 1    
    25   12   13 ar   
    26   12  137 1    
    27   13   14 ar   
    28   13   15 1    
    29   14  138 1    
    30   15   16 1    
    31   15  139 1    
    32   15  140 1    
    33   16   17 1    
    34   17   18 1    
    35   17  141 1    
    36   17  142 1    
    37   18   19 1    
    38   18   67 1    
    39   18  143 1    
    40   19   20 am   BACKBONE|DICT|INTERRES
    41   19  144 1    
    42   20   21 2    
    43   20   22 1    
    44   22   23 1    
    45   22   24 1    
    46   22  145 1    
    47   23  146 1    
    48   23  147 1    
    49   23  148 1    
    50   24   25 am   BACKBONE|DICT|INTERRES
    51   24  149 1    
    52   25   26 2    
    53   25   27 1    
    54   27   28 1    
    55   27   29 1    
    56   27  150 1    
    57   28  151 1    
    58   28  152 1    
    59   28  153 1    
    60   29   30 am   BACKBONE|DICT|INTERRES
    61   29  154 1    
    62   30   31 2    
    63   30   32 1    
    64   32   33 1    
    65   32   34 1    
    66   32  155 1    
    67   33  156 1    
    68   33  157 1    
    69   33  158 1    
    70   34   35 am   BACKBONE|DICT|INTERRES
    71   34  159 1    
    72   35   36 2    
    73   35   37 1    
    74   37   38 1    
    75   37   39 1    
    76   37  160 1    
    77   38  161 1    
    78   38  162 1    
    79   38  163 1    
    80   39   40 am   BACKBONE|DICT|INTERRES
    81   39  164 1    
    82   40   41 2    
    83   40   42 1    
    84   42   43 1    
    85   42   44 1    
    86   42  165 1    
    87   43  166 1    
    88   43  167 1    
    89   43  168 1    
    90   44   45 am   BACKBONE|DICT|INTERRES
    91   44  169 1    
    92   45   46 2    
    93   45   47 1    
    94   47   48 1    
    95   47   49 1    
    96   47  170 1    
    97   48  171 1    
    98   48  172 1    
    99   48  173 1    
   100   49   50 am   BACKBONE|DICT|INTERRES
   101   49  174 1    
   102   50   51 2    
   103   50   52 1    
   104   52   53 1    
   105   52   54 1    
   106   52  175 1    
   107   53  176 1    
   108   53  177 1    
   109   53  178 1    
   110   54   55 am   BACKBONE|DICT|INTERRES
   111   54  179 1    
   112   55   56 2    
   113   55   57 1    
   114   57   58 1    
   115   57   59 1    
   116   57  180 1    
   117   58  181 1    
   118   58  182 1    
   119   58  183 1    
   120   59   60 am   BACKBONE|DICT|INTERRES
   121   59  184 1    
   122   60   61 2    
   123   60   62 1    
   124   62   63 1    
   125   62   64 1    
   126   62  185 1    
   127   63  186 1    
   128   63  187 1    
   129   63  188 1    
   130   64   65 am   BACKBONE|DICT|INTERRES
   131   64  189 1    
   132   65   66 2    
   133   67   68 2    
   134   67   69 am   BACKBONE|DICT|INTERRES
   135   69   70 1    
   136   69  190 1    
   137   70   71 1    
   138   70   72 1    
   139   70  191 1    
   140   71  192 1    
   141   71  193 1    
   142   71  194 1    
   143   72   73 2    
   144   72   74 am   BACKBONE|DICT|INTERRES
   145   74   75 1    
   146   74  195 1    
   147   75   76 1    
   148   75   77 1    
   149   75  196 1    
   150   76  197 1    
   151   76  198 1    
   152   76  199 1    
   153   77   78 2    
   154   77   79 am   BACKBONE|DICT|INTERRES
   155   79   80 1    
   156   79  200 1    
   157   80   81 1    
   158   80   82 1    
   159   80  201 1    
   160   81  202 1    
   161   81  203 1    
   162   81  204 1    
   163   82   83 2    
   164   82   84 am   BACKBONE|DICT|INTERRES
   165   84   85 1    
   166   84  205 1    
   167   85   86 1    
   168   85   87 1    
   169   85  206 1    
   170   86  207 1    
   171   86  208 1    
   172   86  209 1    
   173   87   88 2    
   174   87   89 am   BACKBONE|DICT|INTERRES
   175   89   90 1    
   176   89  210 1    
   177   90   91 1    
   178   90   92 1    
   179   90  211 1    
   180   91  212 1    
   181   91  213 1    
   182   91  214 1    
   183   92   93 2    
   184   92   94 am   BACKBONE|DICT|INTERRES
   185   94   95 1    
   186   94  215 1    
   187   95   96 1    
   188   95   97 1    
   189   95  216 1    
   190   96  217 1    
   191   96  218 1    
   192   96  219 1    
   193   97   98 2    
   194   97   99 am   BACKBONE|DICT|INTERRES
   195   99  100 1    
   196   99  220 1    
   197  100  101 1    
   198  100  102 1    
   199  100  221 1    
   200  101  222 1    
   201  101  223 1    
   202  101  224 1    
   203  102  103 2    
   204  102  104 am   BACKBONE|DICT|INTERRES
   205  104  105 1    
   206  104  225 1    
   207  105  106 1    
   208  105  107 1    
   209  105  226 1    
   210  106  227 1    
   211  106  228 1    
   212  106  229 1    
   213  107  108 2    
   214  107  109 am   BACKBONE|DICT|INTERRES
   215  109  110 1    
   216  109  230 1    
   217  110  111 1    
   218  110  112 1    
   219  110  231 1    
   220  111  232 1    
   221  111  233 1    
   222  111  234 1    
   223  112  113 2    
   224  112  114 am   BACKBONE|DICT|INTERRES
   225  114  115 1    
   226  114  235 1    
   227  115  116 1    
   228  115  117 1    
   229  115  236 1    
   230  116  237 1    
   231  116  238 1    
   232  116  239 1    
   233  117  118 2    
   234  117  119 am   BACKBONE|DICT|INTERRES
   235  119  120 1    
   236  119  240 1    
   237  120  121 1    
   238  120  124 1    
   239  120  241 1    
   240  121  122 am   BACKBONE|DICT|INTERRES
   241  121  123 2    
   242  122  242 1    
   243  122  243 1    
   244  124  125 1    
   245  124  244 1    
   246  124  245 1    
   247  125  126 1    
   248  126  246 1    
   249  126  247 1    
@<TRIPOS>SUBSTRUCTURE
     1 UNK         1 GROUP             0       ****    0 ROOT    
