@<TRIPOS>MOLECULE
3R540
247   249    1
SMALL
USER_CHARGES


@<TRIPOS>ATOM
      1 CA          0.8978  -10.3136  -47.5626 C.3       0 UNK        -0.1800 
      2 C           0.2819  -11.3437  -48.5073 C.2       0 UNK         0.5000 
      3 O          -0.6769  -11.0242  -49.2064 O.2       0 UNK        -0.5000 
      4 N           0.7938  -12.5804  -48.5750 N.am      1 UNK        -0.5000 
      5 CA          1.8917  -13.1315  -47.7693 C.3       1 UNK         0.1400 
      6 C6          2.5527  -14.3510  -48.4658 C.3       23 UNK        -0.0398 
      7 S7          1.3903  -15.7221  -48.7973 S.3       23 UNK        -0.2404 
      8 C8          2.4412  -16.8955  -49.7149 C.3       23 UNK        -0.0205 
      9 C9          1.6715  -18.1524  -50.1062 C.ar      23 UNK        -0.0193 
     10 C10         0.4278  -18.0412  -50.7341 C.ar      23 UNK        -0.1150 
     11 C11        -0.3069  -19.1758  -51.0740 C.ar      23 UNK        -0.0193 
     12 C12         0.2215  -20.4403  -50.8001 C.ar      23 UNK        -0.1150 
     13 C13         1.4671  -20.5777  -50.1757 C.ar      23 UNK        -0.0193 
     14 C14         2.1934  -19.4250  -49.8440 C.ar      23 UNK        -0.1150 
     15 C15         1.9997  -21.9872  -49.9069 C.3       23 UNK        -0.0205 
     16 S16         3.0100  -22.2121  -48.3948 S.3       23 UNK        -0.2404 
     17 C17         2.0195  -21.4689  -47.0532 C.3       23 UNK        -0.0398 
     18 CA          0.8823  -22.3651  -46.4939 C.3       11 UNK         0.1400 
     19 N           0.5651  -22.0507  -45.0939 N.am      11 UNK        -0.5000 
     20 C          -0.3701  -22.6585  -44.3457 C.2       10 UNK         0.5000 
     21 O          -1.0256  -23.6284  -44.7205 O.2       10 UNK        -0.5000 
     22 CA         -0.6749  -22.0502  -42.9648 C.3       10 UNK         0.1400 
     23 CB          0.3050  -22.5727  -41.9046 C.3       10 UNK        -0.1800 
     24 N          -0.6679  -20.5874  -42.9767 N.am      10 UNK        -0.5000 
     25 C          -1.5138  -19.8244  -43.6854 C.2       9 UNK         0.5000 
     26 O          -2.4372  -20.2753  -44.3637 O.2       9 UNK        -0.5000 
     27 CA         -1.2371  -18.3085  -43.6900 C.3       9 UNK         0.1400 
     28 CB         -1.7608  -17.6407  -42.4100 C.3       9 UNK        -0.1800 
     29 N           0.1874  -18.0143  -43.8573 N.am      9 UNK        -0.5000 
     30 C           0.8908  -18.3297  -44.9547 C.2       8 UNK         0.5000 
     31 O           0.3850  -18.8024  -45.9726 O.2       8 UNK        -0.5000 
     32 CA          2.4180  -18.1576  -44.8757 C.3       8 UNK         0.1400 
     33 CB          2.8452  -16.7412  -45.2702 C.3       8 UNK        -0.1800 
     34 N           2.9321  -18.4643  -43.5415 N.am      8 UNK        -0.5000 
     35 C           3.0756  -19.7063  -43.0606 C.2       7 UNK         0.5000 
     36 O           2.8173  -20.7183  -43.7102 O.2       7 UNK        -0.5000 
     37 CA          3.5513  -19.8405  -41.6014 C.3       7 UNK         0.1400 
     38 CB          5.0848  -19.8030  -41.5289 C.3       7 UNK        -0.1800 
     39 N           3.0000  -18.8044  -40.7266 N.am      7 UNK        -0.5000 
     40 C           1.7001  -18.6808  -40.4234 C.2       6 UNK         0.5000 
     41 O           0.8358  -19.4650  -40.8106 O.2       6 UNK        -0.5000 
     42 CA          1.2869  -17.4498  -39.5934 C.3       6 UNK         0.1400 
     43 CB          1.2943  -17.7843  -38.0948 C.3       6 UNK        -0.1800 
     44 N           2.1241  -16.2702  -39.8296 N.am      6 UNK        -0.5000 
     45 C           2.2813  -15.6616  -41.0119 C.2       5 UNK         0.5000 
     46 O           1.7296  -16.0357  -42.0495 O.2       5 UNK        -0.5000 
     47 CA          3.2278  -14.4482  -41.0289 C.3       5 UNK         0.1400 
     48 CB          4.0173  -14.3577  -42.3440 C.3       5 UNK        -0.1800 
     49 N           2.4901  -13.2052  -40.8296 N.am      5 UNK        -0.5000 
     50 C           1.9827  -12.7752  -39.6692 C.2       4 UNK         0.5000 
     51 O           2.1241  -13.3808  -38.6058 O.2       4 UNK        -0.5000 
     52 CA          1.1815  -11.4550  -39.6792 C.3       4 UNK         0.1400 
     53 CB          2.1056  -10.2446  -39.4450 C.3       4 UNK        -0.1800 
     54 N           0.3189  -11.2546  -40.8542 N.am      4 UNK        -0.5000 
     55 C           0.6651  -11.0574  -42.1334 C.2       3 UNK         0.5000 
     56 O           1.8285  -11.0068  -42.5372 O.2       3 UNK        -0.5000 
     57 CA         -0.4914  -10.9423  -43.1435 C.3       3 UNK         0.1400 
     58 CB         -0.4405   -9.6028  -43.8955 C.3       3 UNK        -0.1800 
     59 N          -0.4487  -12.0398  -44.1083 N.am      3 UNK        -0.5000 
     60 C          -0.6169  -13.3344  -43.8059 C.2       2 UNK         0.5000 
     61 O          -0.9228  -13.7319  -42.6813 O.2       2 UNK        -0.5000 
     62 CA         -0.4422  -14.3609  -44.9425 C.3       2 UNK         0.1400 
     63 CB         -1.7924  -14.9973  -45.3089 C.3       2 UNK        -0.1800 
     64 N           0.1579  -13.8302  -46.1698 N.am      2 UNK        -0.5000 
     65 C           1.4437  -13.4868  -46.3336 C.2       1 UNK         0.5000 
     66 O           2.2612  -13.4374  -45.4184 O.2       1 UNK        -0.5000 
     67 C          -0.3733  -22.2682  -47.3801 C.2       11 UNK         0.5000 
     68 O          -0.7354  -23.2468  -48.0334 O.2       11 UNK        -0.5000 
     69 N          -1.0346  -21.1020  -47.3451 N.am      12 UNK        -0.5000 
     70 CA         -2.2541  -20.8198  -48.0989 C.3       12 UNK         0.1400 
     71 CB         -2.6373  -19.3438  -47.9213 C.3       12 UNK        -0.1800 
     72 C          -3.4213  -21.7514  -47.7303 C.2       12 UNK         0.5000 
     73 O          -4.1238  -22.2166  -48.6279 O.2       12 UNK        -0.5000 
     74 N          -3.5837  -22.0391  -46.4323 N.am      13 UNK        -0.5000 
     75 CA         -4.5811  -22.9737  -45.9147 C.3       13 UNK         0.1400 
     76 CB         -4.6309  -22.8803  -44.3820 C.3       13 UNK        -0.1800 
     77 C          -4.3333  -24.4229  -46.3736 C.2       13 UNK         0.5000 
     78 O          -5.2480  -25.0531  -46.9058 O.2       13 UNK        -0.5000 
     79 N          -3.1028  -24.9188  -46.1802 N.am      14 UNK        -0.5000 
     80 CA         -2.6958  -26.2872  -46.5080 C.3       14 UNK         0.1400 
     81 CB         -1.3081  -26.5691  -45.9128 C.3       14 UNK        -0.1800 
     82 C          -2.6981  -26.5790  -48.0177 C.2       14 UNK         0.5000 
     83 O          -3.0868  -27.6751  -48.4227 O.2       14 UNK        -0.5000 
     84 N          -2.2827  -25.5928  -48.8226 N.am      15 UNK        -0.5000 
     85 CA         -2.2305  -25.6843  -50.2816 C.3       15 UNK         0.1400 
     86 CB         -1.1498  -24.7206  -50.7975 C.3       15 UNK        -0.1800 
     87 C          -3.5863  -25.4097  -50.9641 C.2       15 UNK         0.5000 
     88 O          -3.6484  -25.4645  -52.1927 O.2       15 UNK        -0.5000 
     89 N          -4.6316  -25.0868  -50.1847 N.am      16 UNK        -0.5000 
     90 CA         -5.9908  -24.7429  -50.6231 C.3       16 UNK         0.1400 
     91 CB         -6.6975  -25.9752  -51.2246 C.3       16 UNK        -0.1800 
     92 C          -5.9928  -23.5256  -51.5693 C.2       16 UNK         0.5000 
     93 O          -6.4875  -23.6016  -52.6968 O.2       16 UNK        -0.5000 
     94 N          -5.3569  -22.4415  -51.1031 N.am      17 UNK        -0.5000 
     95 CA         -5.0672  -21.2044  -51.8311 C.3       17 UNK         0.1400 
     96 CB         -6.3642  -20.4219  -52.1241 C.3       17 UNK        -0.1800 
     97 C          -4.2000  -21.4533  -53.0830 C.2       17 UNK         0.5000 
     98 O          -4.4110  -20.8124  -54.1106 O.2       17 UNK        -0.5000 
     99 N          -3.2538  -22.3990  -52.9687 N.am      18 UNK        -0.5000 
    100 CA        -2.3798  -22.9147  -54.0299 C.3       18 UNK         0.1400 
    101 CB        -1.3708  -21.8399  -54.4811 C.3       18 UNK        -0.1800 
    102 C         -3.1900  -23.5191  -55.1934 C.2       18 UNK         0.5000 
    103 O         -2.9709  -23.1669  -56.3515 O.2       18 UNK        -0.5000 
    104 N         -4.1611  -24.3773  -54.8481 N.am      19 UNK        -0.5000 
    105 CA        -5.1973  -24.9302  -55.7294 C.3       19 UNK         0.1400 
    106 CB        -4.5893  -25.9513  -56.7126 C.3       19 UNK        -0.1800 
    107 C         -6.0103  -23.8171  -56.4293 C.2       19 UNK         0.5000 
    108 O         -6.2306  -23.8665  -57.6405 O.2       19 UNK        -0.5000 
    109 N         -6.3954  -22.8100  -55.6337 N.am      20 UNK        -0.5000 
    110 CA        -7.0868  -21.5685  -55.9960 C.3       20 UNK         0.1400 
    111 CB        -8.4624  -21.8616  -56.6295 C.3       20 UNK        -0.1800 
    112 C         -6.2645  -20.5611  -56.8331 C.2       20 UNK         0.5000 
    113 O         -6.8093  -19.5143  -57.1896 O.2       20 UNK        -0.5000 
    114 N         -4.9770  -20.8298  -57.1053 N.am      21 UNK        -0.5000 
    115 CA        -4.0909  -19.9315  -57.8570 C.3       21 UNK         0.1400 
    116 CB        -2.7900  -20.6568  -58.2281 C.3       21 UNK        -0.1800 
    117 C         -3.7803  -18.6061  -57.1319 C.2       21 UNK         0.5000 
    118 O         -3.5197  -17.6064  -57.8033 O.2       21 UNK        -0.5000 
    119 N         -3.8436  -18.6023  -55.7934 N.am      22 UNK        -0.5000 
    120 CA        -3.7827  -17.3878  -54.9627 C.3       22 UNK         0.1400 
    121 C         -5.1014  -16.5534  -54.9678 C.2       22 UNK         0.5000 
    122 N         -6.1914  -17.0028  -55.5812 N.am      22 UNK        -0.7600 
    123 O         -5.1351  -15.4611  -54.4077 O.2       22 UNK        -0.5000 
    124 C124       -3.3326  -17.6878  -53.5079 C.3       23 UNK        -0.0398 
    125 S125       -1.6465  -18.3750  -53.3812 S.3       23 UNK        -0.2404 
    126 C126       -1.6933  -19.0168  -51.6772 C.3       23 UNK        -0.0205 
    127 H127        0.9537  -10.6864  -46.5418 H         1 UNK         0.0600 
    128 H128        0.2987   -9.4028  -47.5475 H         1 UNK         0.0600 
    129 H129        1.9017  -10.0465  -47.8925 H         1 UNK         0.0600 
    130 H130        0.3814  -13.2361  -49.2241 H         1 UNK         0.3000 
    131 H131        2.6640  -12.3654  -47.6777 H         1 UNK         0.0600 
    132 H132        2.9869  -14.0340  -49.4151 H         1 UNK         0.0800 
    133 H133        3.3859  -14.7281  -47.8697 H         1 UNK         0.0800 
    134 H134        3.3066  -17.1499  -49.1010 H         1 UNK         0.0800 
    135 H135        2.8204  -16.4158  -50.6180 H         1 UNK         0.0800 
    136 H136        0.0163  -17.0637  -50.9427 H         1 UNK         0.1150 
    137 H137       -0.3460  -21.3223  -51.0613 H         1 UNK         0.1150 
    138 H138        3.1608  -19.5175  -49.3716 H         1 UNK         0.1150 
    139 H139        1.1739  -22.6981  -49.8687 H         1 UNK         0.0800 
    140 H140        2.6054  -22.2847  -50.7635 H         1 UNK         0.0800 
    141 H141        2.7362  -21.2654  -46.2583 H         1 UNK         0.0800 
    142 H142        1.6585  -20.4900  -47.3646 H         1 UNK         0.0800 
    143 H143        1.2200  -23.4034  -46.5064 H         1 UNK         0.0600 
    144 H144        1.1043  -21.3058  -44.6676 H         1 UNK         0.3000 
    145 H145       -1.6785  -22.3697  -42.6780 H         1 UNK         0.0600 
    146 H146        0.0483  -22.1997  -40.9130 H         1 UNK         0.0600 
    147 H147        1.3307  -22.2747  -42.1186 H         1 UNK         0.0600 
    148 H148        0.2834  -23.6622  -41.8579 H         1 UNK         0.0600 
    149 H149        0.0209  -20.1331  -42.3831 H         1 UNK         0.3000 
    150 H150       -1.7685  -17.8787  -44.5410 H         1 UNK         0.0600 
    151 H151       -2.8446  -17.7386  -42.3395 H         1 UNK         0.0600 
    152 H152       -1.5264  -16.5762  -42.3916 H         1 UNK         0.0600 
    153 H153       -1.3354  -18.0903  -41.5137 H         1 UNK         0.0600 
    154 H154        0.6710  -17.5896  -43.0745 H         1 UNK         0.3000 
    155 H155        2.8672  -18.8488  -45.5916 H         1 UNK         0.0600 
    156 H156        2.4798  -16.4934  -46.2643 H         1 UNK         0.0600 
    157 H157        3.9305  -16.6436  -45.2880 H         1 UNK         0.0600 
    158 H158        2.4537  -15.9955  -44.5805 H         1 UNK         0.0600 
    159 H159        3.0922  -17.6780  -42.9275 H         1 UNK         0.3000 
    160 H160        3.2155  -20.8110  -41.2301 H         1 UNK         0.0600 
    161 H161        5.4820  -18.8442  -41.8646 H         1 UNK         0.0600 
    162 H162        5.5238  -20.5787  -42.1578 H         1 UNK         0.0600 
    163 H163        5.4357  -19.9746  -40.5111 H         1 UNK         0.0600 
    164 H164        3.6461  -18.1206  -40.3612 H         1 UNK         0.3000 
    165 H165        0.2663  -17.1892  -39.8797 H         1 UNK         0.0600 
    166 H166        0.9180  -16.9498  -37.5026 H         1 UNK         0.0600 
    167 H167        0.6574  -18.6444  -37.8835 H         1 UNK         0.0600 
    168 H168        2.2978  -18.0232  -37.7403 H         1 UNK         0.0600 
    169 H169        2.5709  -15.8651  -39.0184 H         1 UNK         0.3000 
    170 H170        3.9510  -14.5618  -40.2185 H         1 UNK         0.0600 
    171 H171        3.3599  -14.1710  -43.1919 H         1 UNK         0.0600 
    172 H172        4.7501  -13.5516  -42.3088 H         1 UNK         0.0600 
    173 H173        4.5584  -15.2834  -42.5437 H         1 UNK         0.0600 
    174 H174        2.3322  -12.6280  -41.6502 H         1 UNK         0.3000 
    175 H175        0.4997  -11.5078  -38.8289 H         1 UNK         0.0600 
    176 H176        2.8450  -10.1340  -40.2385 H         1 UNK         0.0600 
    177 H177        1.5349   -9.3178  -39.3857 H         1 UNK         0.0600 
    178 H178        2.6518  -10.3502  -38.5069 H         1 UNK         0.0600 
    179 H179       -0.6690  -11.3374  -40.6568 H         1 UNK         0.3000 
    180 H180       -1.4432  -10.9963  -42.6109 H         1 UNK         0.0600 
    181 H181       -0.5191   -8.7655  -43.2009 H         1 UNK         0.0600 
    182 H182       -1.2636   -9.5147  -44.6049 H         1 UNK         0.0600 
    183 H183        0.4929   -9.4821  -44.4465 H         1 UNK         0.0600 
    184 H184       -0.1776  -11.8075  -45.0504 H         1 UNK         0.3000 
    185 H185        0.2099  -15.1462  -44.5566 H         1 UNK         0.0600 
    186 H186       -2.4704  -14.2696  -45.7562 H         1 UNK         0.0600 
    187 H187       -1.6611  -15.8158  -46.0174 H         1 UNK         0.0600 
    188 H188       -2.2898  -15.4065  -44.4294 H         1 UNK         0.0600 
    189 H189       -0.4355  -13.8224  -46.9869 H         1 UNK         0.3000 
    190 H190       -0.6642  -20.3448  -46.7785 H         1 UNK         0.3000 
    191 H191       -2.0332  -20.9865  -49.1540 H         1 UNK         0.0600 
    192 H192       -1.8357  -18.6870  -48.2613 H         1 UNK         0.0600 
    193 H193       -2.8436  -19.1041  -46.8776 H         1 UNK         0.0600 
    194 H194       -3.5285  -19.0982  -48.5001 H         1 UNK         0.0600 
    195 H195       -2.9897  -21.5763  -45.7504 H         1 UNK         0.3000 
    196 H196       -5.5554  -22.6662  -46.3006 H         1 UNK         0.0600 
    197 H197       -4.8809  -21.8701  -44.0573 H         1 UNK         0.0600 
    198 H198       -3.6763  -23.1486  -43.9295 H         1 UNK         0.0600 
    199 H199       -5.3882  -23.5508  -43.9741 H         1 UNK         0.0600 
    200 H200       -2.3955  -24.3357  -45.7366 H         1 UNK         0.3000 
    201 H201       -3.4094  -26.9678  -46.0392 H         1 UNK         0.0600 
    202 H202       -1.3126  -26.4499  -44.8292 H         1 UNK         0.0600 
    203 H203       -0.5530  -25.8954  -46.3206 H         1 UNK         0.0600 
    204 H204       -0.9892  -27.5900  -46.1264 H         1 UNK         0.0600 
    205 H205       -1.9326  -24.7308  -48.4109 H         1 UNK         0.3000 
    206 H206       -1.9305  -26.6970  -50.5587 H         1 UNK         0.0600 
    207 H207       -0.2056  -24.8716  -50.2740 H         1 UNK         0.0600 
    208 H208       -1.4409  -23.6776  -50.6679 H         1 UNK         0.0600 
    209 H209       -0.9523  -24.8880  -51.8554 H         1 UNK         0.0600 
    210 H210       -4.4741  -25.0409  -49.1863 H         1 UNK         0.3000 
    211 H211       -6.5413  -24.4458  -49.7292 H         1 UNK         0.0600 
    212 H212       -6.2176  -26.3139  -52.1433 H         1 UNK         0.0600 
    213 H213       -7.7369  -25.7484  -51.4646 H         1 UNK         0.0600 
    214 H214       -6.7005  -26.8082  -50.5216 H         1 UNK         0.0600 
    215 H215       -4.9651  -22.4837  -50.1614 H         1 UNK         0.3000 
    216 H216       -4.4639  -20.5911  -51.1614 H         1 UNK         0.0600 
    217 H217       -6.1573  -19.4785  -52.6301 H         1 UNK         0.0600 
    218 H218       -6.8900  -20.1823  -51.2001 H         1 UNK         0.0600 
    219 H219       -7.0483  -20.9880  -52.7544 H         1 UNK         0.0600 
    220 H220       -3.2113  -22.9007  -52.0946 H         1 UNK         0.3000 
    221 H221       -1.8099  -23.7383  -53.6033 H         1 UNK         0.0600 
    222 H222       -1.8665  -20.9876  -54.9453 H         1 UNK         0.0600 
    223 H223       -0.7874  -21.4687  -53.6389 H         1 UNK         0.0600 
    224 H224       -0.6675  -22.2445  -55.2096 H         1 UNK         0.0600 
    225 H225       -4.2338  -24.6360  -53.8675 H         1 UNK         0.3000 
    226 H226       -5.8968  -25.4643  -55.0846 H         1 UNK         0.0600 
    227 H227       -4.0390  -26.7282  -56.1819 H         1 UNK         0.0600 
    228 H228       -5.3692  -26.4450  -57.2933 H         1 UNK         0.0600 
    229 H229       -3.9057  -25.4788  -57.4186 H         1 UNK         0.0600 
    230 H230       -6.1717  -22.8982  -54.6475 H         1 UNK         0.3000 
    231 H231       -7.2751  -21.0610  -55.0507 H         1 UNK         0.0600 
    232 H232       -9.0478  -20.9474  -56.7341 H         1 UNK         0.0600 
    233 H233       -9.0434  -22.5467  -56.0121 H         1 UNK         0.0600 
    234 H234       -8.3681  -22.3000  -57.6231 H         1 UNK         0.0600 
    235 H235       -4.5628  -21.6818  -56.7467 H         1 UNK         0.3000 
    236 H236       -4.6029  -19.6777  -58.7875 H         1 UNK         0.0600 
    237 H237       -2.1828  -20.8679  -57.3482 H         1 UNK         0.0600 
    238 H238       -2.9912  -21.6002  -58.7359 H         1 UNK         0.0600 
    239 H239       -2.1845  -20.0476  -58.9001 H         1 UNK         0.0600 
    240 H240       -4.0572  -19.4687  -55.3024 H         1 UNK         0.3000 
    241 H241       -3.0267  -16.7315  -55.3977 H         1 UNK         0.0600 
    242 H242       -7.0256  -16.4377  -55.5723 H         1 UNK         0.3800 
    243 H243       -6.1958  -17.8847  -56.0796 H         1 UNK         0.3800 
    244 H244       -4.0364  -18.3686  -53.0302 H         1 UNK         0.0800 
    245 H245       -3.3435  -16.7752  -52.9092 H         1 UNK         0.0800 
    246 H246       -2.2715  -18.3409  -51.0453 H         1 UNK         0.0800 
    247 H247       -2.2152  -19.9711  -51.6692 H         1 UNK         0.0800 
@<TRIPOS>BOND
     1    1    2 1    
     2    1  127 1    
     3    1  128 1    
     4    1  129 1    
     5    2    3 2    
     6    2    4 am   BACKBONE|DICT|INTERRES
     7    4    5 1    
     8    4  130 1    
     9    5    6 1    
    10    5   65 1    
    11    5  131 1    
    12    6    7 1    
    13    6  132 1    
    14    6  133 1    
    15    7    8 1    
    16    8    9 1    
    17    8  134 1    
    18    8  135 1    
    19    9   10 ar   
    20    9   14 ar   
    21   10   11 ar   
    22   10  136 1    
    23   11   12 ar   
    24   11  126 1    
    25   12   13 ar   
    26   12  137 1    
    27   13   14 ar   
    28   13   15 1    
    29   14  138 1    
    30   15   16 1    
    31   15  139 1    
    32   15  140 1    
    33   16   17 1    
    34   17   18 1    
    35   17  141 1    
    36   17  142 1    
    37   18   19 1    
    38   18   67 1    
    39   18  143 1    
    40   19   20 am   BACKBONE|DICT|INTERRES
    41   19  144 1    
    42   20   21 2    
    43   20   22 1    
    44   22   23 1    
    45   22   24 1    
    46   22  145 1    
    47   23  146 1    
    48   23  147 1    
    49   23  148 1    
    50   24   25 am   BACKBONE|DICT|INTERRES
    51   24  149 1    
    52   25   26 2    
    53   25   27 1    
    54   27   28 1    
    55   27   29 1    
    56   27  150 1    
    57   28  151 1    
    58   28  152 1    
    59   28  153 1    
    60   29   30 am   BACKBONE|DICT|INTERRES
    61   29  154 1    
    62   30   31 2    
    63   30   32 1    
    64   32   33 1    
    65   32   34 1    
    66   32  155 1    
    67   33  156 1    
    68   33  157 1    
    69   33  158 1    
    70   34   35 am   BACKBONE|DICT|INTERRES
    71   34  159 1    
    72   35   36 2    
    73   35   37 1    
    74   37   38 1    
    75   37   39 1    
    76   37  160 1    
    77   38  161 1    
    78   38  162 1    
    79   38  163 1    
    80   39   40 am   BACKBONE|DICT|INTERRES
    81   39  164 1    
    82   40   41 2    
    83   40   42 1    
    84   42   43 1    
    85   42   44 1    
    86   42  165 1    
    87   43  166 1    
    88   43  167 1    
    89   43  168 1    
    90   44   45 am   BACKBONE|DICT|INTERRES
    91   44  169 1    
    92   45   46 2    
    93   45   47 1    
    94   47   48 1    
    95   47   49 1    
    96   47  170 1    
    97   48  171 1    
    98   48  172 1    
    99   48  173 1    
   100   49   50 am   BACKBONE|DICT|INTERRES
   101   49  174 1    
   102   50   51 2    
   103   50   52 1    
   104   52   53 1    
   105   52   54 1    
   106   52  175 1    
   107   53  176 1    
   108   53  177 1    
   109   53  178 1    
   110   54   55 am   BACKBONE|DICT|INTERRES
   111   54  179 1    
   112   55   56 2    
   113   55   57 1    
   114   57   58 1    
   115   57   59 1    
   116   57  180 1    
   117   58  181 1    
   118   58  182 1    
   119   58  183 1    
   120   59   60 am   BACKBONE|DICT|INTERRES
   121   59  184 1    
   122   60   61 2    
   123   60   62 1    
   124   62   63 1    
   125   62   64 1    
   126   62  185 1    
   127   63  186 1    
   128   63  187 1    
   129   63  188 1    
   130   64   65 am   BACKBONE|DICT|INTERRES
   131   64  189 1    
   132   65   66 2    
   133   67   68 2    
   134   67   69 am   BACKBONE|DICT|INTERRES
   135   69   70 1    
   136   69  190 1    
   137   70   71 1    
   138   70   72 1    
   139   70  191 1    
   140   71  192 1    
   141   71  193 1    
   142   71  194 1    
   143   72   73 2    
   144   72   74 am   BACKBONE|DICT|INTERRES
   145   74   75 1    
   146   74  195 1    
   147   75   76 1    
   148   75   77 1    
   149   75  196 1    
   150   76  197 1    
   151   76  198 1    
   152   76  199 1    
   153   77   78 2    
   154   77   79 am   BACKBONE|DICT|INTERRES
   155   79   80 1    
   156   79  200 1    
   157   80   81 1    
   158   80   82 1    
   159   80  201 1    
   160   81  202 1    
   161   81  203 1    
   162   81  204 1    
   163   82   83 2    
   164   82   84 am   BACKBONE|DICT|INTERRES
   165   84   85 1    
   166   84  205 1    
   167   85   86 1    
   168   85   87 1    
   169   85  206 1    
   170   86  207 1    
   171   86  208 1    
   172   86  209 1    
   173   87   88 2    
   174   87   89 am   BACKBONE|DICT|INTERRES
   175   89   90 1    
   176   89  210 1    
   177   90   91 1    
   178   90   92 1    
   179   90  211 1    
   180   91  212 1    
   181   91  213 1    
   182   91  214 1    
   183   92   93 2    
   184   92   94 am   BACKBONE|DICT|INTERRES
   185   94   95 1    
   186   94  215 1    
   187   95   96 1    
   188   95   97 1    
   189   95  216 1    
   190   96  217 1    
   191   96  218 1    
   192   96  219 1    
   193   97   98 2    
   194   97   99 am   BACKBONE|DICT|INTERRES
   195   99  100 1    
   196   99  220 1    
   197  100  101 1    
   198  100  102 1    
   199  100  221 1    
   200  101  222 1    
   201  101  223 1    
   202  101  224 1    
   203  102  103 2    
   204  102  104 am   BACKBONE|DICT|INTERRES
   205  104  105 1    
   206  104  225 1    
   207  105  106 1    
   208  105  107 1    
   209  105  226 1    
   210  106  227 1    
   211  106  228 1    
   212  106  229 1    
   213  107  108 2    
   214  107  109 am   BACKBONE|DICT|INTERRES
   215  109  110 1    
   216  109  230 1    
   217  110  111 1    
   218  110  112 1    
   219  110  231 1    
   220  111  232 1    
   221  111  233 1    
   222  111  234 1    
   223  112  113 2    
   224  112  114 am   BACKBONE|DICT|INTERRES
   225  114  115 1    
   226  114  235 1    
   227  115  116 1    
   228  115  117 1    
   229  115  236 1    
   230  116  237 1    
   231  116  238 1    
   232  116  239 1    
   233  117  118 2    
   234  117  119 am   BACKBONE|DICT|INTERRES
   235  119  120 1    
   236  119  240 1    
   237  120  121 1    
   238  120  124 1    
   239  120  241 1    
   240  121  122 am   BACKBONE|DICT|INTERRES
   241  121  123 2    
   242  122  242 1    
   243  122  243 1    
   244  124  125 1    
   245  124  244 1    
   246  124  245 1    
   247  125  126 1    
   248  126  246 1    
   249  126  247 1    
@<TRIPOS>SUBSTRUCTURE
     1 UNK         1 GROUP             0       ****    0 ROOT    
