@<TRIPOS>MOLECULE
3R540
247   249    1
SMALL
USER_CHARGES


@<TRIPOS>ATOM
      1 CA          0.0865   -9.8313  -49.5690 C.3       0 UNK        -0.1800 
      2 C           0.7247  -10.8716  -48.6605 C.2       0 UNK         0.5000 
      3 O           1.3311  -10.5138  -47.6511 O.2       0 UNK        -0.5000 
      4 N           0.5763  -12.1588  -49.0035 N.am      1 UNK        -0.5000 
      5 CA          1.1540  -13.3140  -48.2949 C.3       1 UNK         0.1400 
      6 C6          0.8956  -14.6472  -49.0429 C.3       23 UNK        -0.0398 
      7 S7          1.4710  -14.5906  -50.7756 S.3       23 UNK        -0.2404 
      8 C8          2.8971  -15.7218  -50.7511 C.3       23 UNK        -0.0205 
      9 C9          2.4788  -17.1777  -50.9033 C.ar      23 UNK        -0.0193 
     10 C10         1.9477  -17.6264  -52.1167 C.ar      23 UNK        -0.1150 
     11 C11         1.6002  -18.9687  -52.2882 C.ar      23 UNK        -0.0193 
     12 C12         1.7868  -19.8654  -51.2338 C.ar      23 UNK        -0.1150 
     13 C13         2.3150  -19.4340  -50.0141 C.ar      23 UNK        -0.0193 
     14 C14         2.6609  -18.0864  -49.8559 C.ar      23 UNK        -0.1150 
     15 C15         2.5706  -20.4434  -48.9011 C.3       23 UNK        -0.0205 
     16 S16         1.8677  -19.9470  -47.2977 S.3       23 UNK        -0.2404 
     17 C17         0.0906  -20.2974  -47.5118 C.3       23 UNK        -0.0398 
     18 CA         -0.3414  -21.6812  -46.9630 C.3       11 UNK         0.1400 
     19 N           0.1257  -21.9483  -45.5896 N.am      11 UNK        -0.5000 
     20 C          -0.0407  -23.1032  -44.9220 C.2       10 UNK         0.5000 
     21 O          -0.6349  -24.0772  -45.3842 O.2       10 UNK        -0.5000 
     22 CA          0.4930  -23.1744  -43.4833 C.3       10 UNK         0.1400 
     23 CB          2.0082  -23.4280  -43.4687 C.3       10 UNK        -0.1800 
     24 N           0.1768  -21.9501  -42.7508 N.am      10 UNK        -0.5000 
     25 C          -0.9875  -21.7290  -42.1228 C.2       9 UNK         0.5000 
     26 O          -1.8701  -22.5798  -42.0072 O.2       9 UNK        -0.5000 
     27 CA         -1.2267  -20.3190  -41.5419 C.3       9 UNK         0.1400 
     28 CB         -0.7725  -20.2592  -40.0758 C.3       9 UNK        -0.1800 
     29 N          -0.5612  -19.2501  -42.2868 N.am      9 UNK        -0.5000 
     30 C          -0.7722  -18.9584  -43.5778 C.2       8 UNK         0.5000 
     31 O          -1.6183  -19.5139  -44.2774 O.2       8 UNK        -0.5000 
     32 CA          0.1670  -17.9174  -44.2125 C.3       8 UNK         0.1400 
     33 CB         -0.4176  -16.5085  -44.0589 C.3       8 UNK        -0.1800 
     34 N           1.5306  -17.9444  -43.6763 N.am      8 UNK        -0.5000 
     35 C           2.3429  -19.0119  -43.6595 C.2       7 UNK         0.5000 
     36 O           2.0083  -20.1310  -44.0444 O.2       7 UNK        -0.5000 
     37 CA          3.7426  -18.8069  -43.0642 C.3       7 UNK         0.1400 
     38 CB          4.6665  -18.0939  -44.0641 C.3       7 UNK        -0.1800 
     39 N           3.6626  -18.0408  -41.8226 N.am      7 UNK        -0.5000 
     40 C           3.3805  -18.5756  -40.6265 C.2       6 UNK         0.5000 
     41 O           3.2566  -19.7848  -40.4302 O.2       6 UNK        -0.5000 
     42 CA          3.1865  -17.5980  -39.4507 C.3       6 UNK         0.1400 
     43 CB          4.5185  -17.3585  -38.7242 C.3       6 UNK        -0.1800 
     44 N           2.6218  -16.3086  -39.8532 N.am      6 UNK        -0.5000 
     45 C           1.3801  -16.1350  -40.3267 C.2       5 UNK         0.5000 
     46 O           0.5650  -17.0480  -40.4642 O.2       5 UNK        -0.5000 
     47 CA          1.0027  -14.7048  -40.7606 C.3       5 UNK         0.1400 
     48 CB          0.4811  -13.8991  -39.5621 C.3       5 UNK        -0.1800 
     49 N           2.0779  -13.9502  -41.4153 N.am      5 UNK        -0.5000 
     50 C           2.7891  -14.3531  -42.4775 C.2       4 UNK         0.5000 
     51 O           2.7129  -15.4830  -42.9591 O.2       4 UNK        -0.5000 
     52 CA          3.6951  -13.2956  -43.1292 C.3       4 UNK         0.1400 
     53 CB          4.6039  -13.8854  -44.2229 C.3       4 UNK        -0.1800 
     54 N           2.8439  -12.2704  -43.7237 N.am      4 UNK        -0.5000 
     55 C           2.4643  -11.1369  -43.1186 C.2       3 UNK         0.5000 
     56 O           2.8886  -10.7772  -42.0198 O.2       3 UNK        -0.5000 
     57 CA          1.3992  -10.2838  -43.8360 C.3       3 UNK         0.1400 
     58 CB          2.0669   -9.1950  -44.6885 C.3       3 UNK        -0.1800 
     59 N           0.5031  -11.0822  -44.6769 N.am      3 UNK        -0.5000 
     60 C          -0.3792  -11.9775  -44.2037 C.2       2 UNK         0.5000 
     61 O          -0.5863  -12.1546  -43.0028 O.2       2 UNK        -0.5000 
     62 CA         -1.1528  -12.8356  -45.2262 C.3       2 UNK         0.1400 
     63 CB         -2.5877  -12.3114  -45.3881 C.3       2 UNK        -0.1800 
     64 N          -0.5316  -12.9187  -46.5497 N.am      2 UNK        -0.5000 
     65 C           0.6814  -13.4199  -46.8282 C.2       1 UNK         0.5000 
     66 O           1.4336  -13.8988  -45.9805 O.2       1 UNK        -0.5000 
     67 C          -1.8688  -21.8507  -47.1199 C.2       11 UNK         0.5000 
     68 O          -2.3319  -22.2581  -48.1858 O.2       11 UNK        -0.5000 
     69 N          -2.6204  -21.5929  -46.0410 N.am      12 UNK        -0.5000 
     70 CA         -4.0574  -21.8372  -45.9218 C.3       12 UNK         0.1400 
     71 CB         -4.5297  -21.3846  -44.5327 C.3       12 UNK        -0.1800 
     72 C          -4.4758  -23.2988  -46.1850 C.2       12 UNK         0.5000 
     73 O          -5.5857  -23.5267  -46.6659 O.2       12 UNK        -0.5000 
     74 N          -3.5800  -24.2502  -45.8918 N.am      13 UNK        -0.5000 
     75 CA         -3.7559  -25.6722  -46.1690 C.3       13 UNK         0.1400 
     76 CB         -3.3532  -26.4829  -44.9264 C.3       13 UNK        -0.1800 
     77 C          -2.9227  -26.0935  -47.3894 C.2       13 UNK         0.5000 
     78 O          -3.4645  -26.6983  -48.3143 O.2       13 UNK        -0.5000 
     79 N          -1.6238  -25.7619  -47.3763 N.am      14 UNK        -0.5000 
     80 CA         -0.6240  -26.2185  -48.3455 C.3       14 UNK         0.1400 
     81 CB          0.7766  -25.8599  -47.8247 C.3       14 UNK        -0.1800 
     82 C          -0.8213  -25.6693  -49.7693 C.2       14 UNK         0.5000 
     83 O          -0.4848  -26.3589  -50.7325 O.2       14 UNK        -0.5000 
     84 N          -1.3638  -24.4519  -49.8745 N.am      15 UNK        -0.5000 
     85 CA         -1.6694  -23.7664  -51.1300 C.3       15 UNK         0.1400 
     86 CB         -0.7835  -22.5151  -51.2300 C.3       15 UNK        -0.1800 
     87 C          -3.1667  -23.4194  -51.2210 C.2       15 UNK         0.5000 
     88 O          -3.5463  -22.5851  -52.0426 O.2       15 UNK        -0.5000 
     89 N          -3.9870  -24.0400  -50.3559 N.am      16 UNK        -0.5000 
     90 CA         -5.4442  -23.9047  -50.2420 C.3       16 UNK         0.1400 
     91 CB         -6.1268  -24.6041  -51.4358 C.3       16 UNK        -0.1800 
     92 C          -5.9327  -22.4499  -50.0625 C.2       16 UNK         0.5000 
     93 O          -7.0228  -22.1133  -50.5248 O.2       16 UNK        -0.5000 
     94 N          -5.1002  -21.5949  -49.4461 N.am      17 UNK        -0.5000 
     95 CA         -5.2980  -20.1465  -49.2881 C.3       17 UNK         0.1400 
     96 CB         -6.5118  -19.8536  -48.3771 C.3       17 UNK        -0.1800 
     97 C          -5.3941  -19.3907  -50.6351 C.2       17 UNK         0.5000 
     98 O          -6.0028  -18.3211  -50.6907 O.2       17 UNK        -0.5000 
     99 N          -4.8092  -19.9695  -51.6954 N.am      18 UNK        -0.5000 
    100 CA        -4.8501  -19.5304  -53.0924 C.3       18 UNK         0.1400 
    101 CB        -4.2237  -18.1300  -53.2615 C.3       18 UNK        -0.1800 
    102 C         -6.2468  -19.6366  -53.7433 C.2       18 UNK         0.5000 
    103 O         -6.4814  -18.9912  -54.7671 O.2       18 UNK        -0.5000 
    104 N         -7.1526  -20.4434  -53.1667 N.am      19 UNK        -0.5000 
    105 CA        -8.4799  -20.7190  -53.7175 C.3       19 UNK         0.1400 
    106 CB        -9.3315  -21.4621  -52.6773 C.3       19 UNK        -0.1800 
    107 C         -8.3666  -21.5297  -55.0204 C.2       19 UNK         0.5000 
    108 O         -7.8129  -22.6305  -55.0046 O.2       19 UNK        -0.5000 
    109 N         -8.8568  -20.9488  -56.1234 N.am      20 UNK        -0.5000 
    110 CA        -8.7822  -21.4086  -57.5181 C.3       20 UNK         0.1400 
    111 CB        -9.4192  -22.7993  -57.7064 C.3       20 UNK        -0.1800 
    112 C         -7.3648  -21.3482  -58.1255 C.2       20 UNK         0.5000 
    113 O         -7.2171  -20.8746  -59.2530 O.2       20 UNK        -0.5000 
    114 N         -6.3510  -21.7932  -57.3774 N.am      21 UNK        -0.5000 
    115 CA        -4.9363  -21.7363  -57.7252 C.3       21 UNK         0.1400 
    116 CB        -4.5807  -22.8921  -58.6782 C.3       21 UNK        -0.1800 
    117 C         -4.1017  -21.8071  -56.4385 C.2       21 UNK         0.5000 
    118 O         -4.5709  -22.3443  -55.4339 O.2       21 UNK        -0.5000 
    119 N         -2.8733  -21.2829  -56.5034 N.am      22 UNK        -0.5000 
    120 CA        -1.8816  -21.3039  -55.4116 C.3       22 UNK         0.1400 
    121 C         -0.9239  -22.5349  -55.4582 C.2       22 UNK         0.5000 
    122 N         -1.0833  -23.4693  -56.3882 N.am      22 UNK        -0.7600 
    123 O         -0.0203  -22.6563  -54.6380 O.2       22 UNK        -0.5000 
    124 C124       -1.1164  -19.9513  -55.3461 C.3       23 UNK        -0.0398 
    125 S125       -0.7655  -19.3972  -53.6430 S.3       23 UNK        -0.2404 
    126 C126        1.0503  -19.4566  -53.6189 C.3       23 UNK        -0.0205 
    127 H127       -0.6431   -9.2440  -49.0115 H         1 UNK         0.0600 
    128 H128       -0.4219  -10.2905  -50.4171 H         1 UNK         0.0600 
    129 H129        0.8482   -9.1538  -49.9548 H         1 UNK         0.0600 
    130 H130        0.0790  -12.3848  -49.8535 H         1 UNK         0.3000 
    131 H131        2.2339  -13.1549  -48.2620 H         1 UNK         0.0600 
    132 H132        1.3807  -15.4782  -48.5270 H         1 UNK         0.0800 
    133 H133       -0.1707  -14.8800  -49.0529 H         1 UNK         0.0800 
    134 H134        3.4767  -15.5684  -49.8394 H         1 UNK         0.0800 
    135 H135        3.5601  -15.4619  -51.5775 H         1 UNK         0.0800 
    136 H136        1.8117  -16.9286  -52.9312 H         1 UNK         0.1150 
    137 H137        1.5381  -20.9059  -51.3753 H         1 UNK         0.1150 
    138 H138        3.0875  -17.7513  -48.9208 H         1 UNK         0.1150 
    139 H139        2.1867  -21.4298  -49.1666 H         1 UNK         0.0800 
    140 H140        3.6490  -20.5567  -48.7841 H         1 UNK         0.0800 
    141 H141       -0.1596  -20.2114  -48.5710 H         1 UNK         0.0800 
    142 H142       -0.4639  -19.5030  -47.0112 H         1 UNK         0.0800 
    143 H143        0.1208  -22.4399  -47.5972 H         1 UNK         0.0600 
    144 H144        0.6625  -21.2092  -45.1468 H         1 UNK         0.3000 
    145 H145        0.0143  -24.0227  -42.9894 H         1 UNK         0.0600 
    146 H146        2.3914  -23.4660  -42.4489 H         1 UNK         0.0600 
    147 H147        2.2435  -24.3827  -43.9408 H         1 UNK         0.0600 
    148 H148        2.5609  -22.6574  -44.0056 H         1 UNK         0.0600 
    149 H149        0.8313  -21.1831  -42.8636 H         1 UNK         0.3000 
    150 H150       -2.3010  -20.1274  -41.5785 H         1 UNK         0.0600 
    151 H151       -1.2572  -21.0356  -39.4825 H         1 UNK         0.0600 
    152 H152       -1.0252  -19.2998  -39.6239 H         1 UNK         0.0600 
    153 H153        0.3057  -20.3980  -39.9844 H         1 UNK         0.0600 
    154 H154        0.1172  -18.6962  -41.7763 H         1 UNK         0.3000 
    155 H155        0.2427  -18.1369  -45.2774 H         1 UNK         0.0600 
    156 H156       -0.6107  -16.2686  -43.0143 H         1 UNK         0.0600 
    157 H157       -1.3630  -16.4201  -44.5952 H         1 UNK         0.0600 
    158 H158        0.2598  -15.7550  -44.4589 H         1 UNK         0.0600 
    159 H159        1.9064  -17.0536  -43.3569 H         1 UNK         0.3000 
    160 H160        4.1703  -19.7903  -42.8569 H         1 UNK         0.0600 
    161 H161        4.2888  -17.1097  -44.3417 H         1 UNK         0.0600 
    162 H162        4.7637  -18.6750  -44.9821 H         1 UNK         0.0600 
    163 H163        5.6674  -17.9646  -43.6525 H         1 UNK         0.0600 
    164 H164        3.6641  -17.0329  -41.9188 H         1 UNK         0.3000 
    165 H165        2.4928  -18.0640  -38.7474 H         1 UNK         0.0600 
    166 H166        4.3802  -16.7334  -37.8418 H         1 UNK         0.0600 
    167 H167        4.9549  -18.3003  -38.3884 H         1 UNK         0.0600 
    168 H168        5.2484  -16.8708  -39.3716 H         1 UNK         0.0600 
    169 H169        3.2262  -15.5030  -39.7853 H         1 UNK         0.3000 
    170 H170        0.1898  -14.7854  -41.4828 H         1 UNK         0.0600 
    171 H171       -0.3360  -14.4227  -39.0639 H         1 UNK         0.0600 
    172 H172        1.2628  -13.7273  -38.8211 H         1 UNK         0.0600 
    173 H173        0.0975  -12.9286  -39.8783 H         1 UNK         0.0600 
    174 H174        2.1985  -12.9950  -41.1071 H         1 UNK         0.3000 
    175 H175        4.3331  -12.8682  -42.3531 H         1 UNK         0.0600 
    176 H176        4.0263  -14.3366  -45.0309 H         1 UNK         0.0600 
    177 H177        5.2430  -13.1175  -44.6586 H         1 UNK         0.0600 
    178 H178        5.2557  -14.6581  -43.8135 H         1 UNK         0.0600 
    179 H179        2.3848  -12.5354  -44.5877 H         1 UNK         0.3000 
    180 H180        0.7952   -9.7936  -43.0696 H         1 UNK         0.0600 
    181 H181        2.7092   -9.6249  -45.4580 H         1 UNK         0.0600 
    182 H182        2.6863   -8.5424  -44.0719 H         1 UNK         0.0600 
    183 H183        1.3245   -8.5682  -45.1828 H         1 UNK         0.0600 
    184 H184        0.6261  -10.9919  -45.6794 H         1 UNK         0.3000 
    185 H185       -1.2054  -13.8467  -44.8214 H         1 UNK         0.0600 
    186 H186       -3.0988  -12.2646  -44.4254 H         1 UNK         0.0600 
    187 H187       -2.6027  -11.3085  -45.8167 H         1 UNK         0.0600 
    188 H188       -3.1762  -12.9631  -46.0341 H         1 UNK         0.0600 
    189 H189       -1.0588  -12.5224  -47.3141 H         1 UNK         0.3000 
    190 H190       -2.1689  -21.1677  -45.2369 H         1 UNK         0.3000 
    191 H191       -4.5472  -21.2145  -46.6670 H         1 UNK         0.0600 
    192 H192       -4.0341  -21.9449  -43.7391 H         1 UNK         0.0600 
    193 H193       -5.6047  -21.5296  -44.4176 H         1 UNK         0.0600 
    194 H194       -4.3265  -20.3256  -44.3723 H         1 UNK         0.0600 
    195 H195       -2.6728  -23.9713  -45.5357 H         1 UNK         0.3000 
    196 H196       -4.8026  -25.8955  -46.3866 H         1 UNK         0.0600 
    197 H197       -3.4548  -27.5535  -45.1083 H         1 UNK         0.0600 
    198 H198       -3.9891  -26.2359  -44.0761 H         1 UNK         0.0600 
    199 H199       -2.3195  -26.2948  -44.6335 H         1 UNK         0.0600 
    200 H200       -1.2629  -25.2275  -46.5878 H         1 UNK         0.3000 
    201 H201       -0.6950  -27.3066  -48.4036 H         1 UNK         0.0600 
    202 H202        0.9592  -26.3032  -46.8456 H         1 UNK         0.0600 
    203 H203        0.9082  -24.7815  -47.7326 H         1 UNK         0.0600 
    204 H204        1.5512  -26.2289  -48.4982 H         1 UNK         0.0600 
    205 H205       -1.6241  -23.9468  -49.0341 H         1 UNK         0.3000 
    206 H206       -1.4497  -24.4068  -51.9863 H         1 UNK         0.0600 
    207 H207        0.2700  -22.7879  -51.1826 H         1 UNK         0.0600 
    208 H208       -0.9416  -21.9971  -52.1751 H         1 UNK         0.0600 
    209 H209       -0.9865  -21.8032  -50.4305 H         1 UNK         0.0600 
    210 H210       -3.5680  -24.7135  -49.7293 H         1 UNK         0.3000 
    211 H211       -5.7319  -24.4364  -49.3341 H         1 UNK         0.0600 
    212 H212       -5.9260  -24.0852  -52.3744 H         1 UNK         0.0600 
    213 H213       -7.2091  -24.6387  -51.3066 H         1 UNK         0.0600 
    214 H214       -5.7819  -25.6328  -51.5405 H         1 UNK         0.0600 
    215 H215       -4.2058  -21.9536  -49.1280 H         1 UNK         0.3000 
    216 H216       -4.4038  -19.7722  -48.7878 H         1 UNK         0.0600 
    217 H217       -6.5180  -18.8096  -48.0624 H         1 UNK         0.0600 
    218 H218       -6.5056  -20.4639  -47.4754 H         1 UNK         0.0600 
    219 H219       -7.4552  -20.0415  -48.8908 H         1 UNK         0.0600 
    220 H220       -4.3580  -20.8708  -51.5611 H         1 UNK         0.3000 
    221 H221       -4.2190  -20.2347  -53.6320 H         1 UNK         0.0600 
    222 H222       -4.8828  -17.3431  -52.8943 H         1 UNK         0.0600 
    223 H223       -3.2782  -18.0496  -52.7262 H         1 UNK         0.0600 
    224 H224       -4.0204  -17.9204  -54.3122 H         1 UNK         0.0600 
    225 H225       -6.8963  -20.9604  -52.3334 H         1 UNK         0.3000 
    226 H226       -8.9643  -19.7629  -53.9264 H         1 UNK         0.0600 
    227 H227       -9.4077  -20.8943  -51.7498 H         1 UNK         0.0600 
    228 H228      -10.3447  -21.6227  -53.0471 H         1 UNK         0.0600 
    229 H229       -8.9120  -22.4401  -52.4376 H         1 UNK         0.0600 
    230 H230       -9.2515  -20.0244  -56.0165 H         1 UNK         0.3000 
    231 H231       -9.3896  -20.7009  -58.0846 H         1 UNK         0.0600 
    232 H232      -10.4337  -22.8262  -57.3088 H         1 UNK         0.0600 
    233 H233       -8.8444  -23.5854  -57.2164 H         1 UNK         0.0600 
    234 H234       -9.4777  -23.0562  -58.7648 H         1 UNK         0.0600 
    235 H235       -6.5494  -22.1583  -56.4479 H         1 UNK         0.3000 
    236 H236       -4.7304  -20.7820  -58.2147 H         1 UNK         0.0600 
    237 H237       -3.5250  -22.8676  -58.9503 H         1 UNK         0.0600 
    238 H238       -4.7821  -23.8623  -58.2222 H         1 UNK         0.0600 
    239 H239       -5.1521  -22.8340  -59.6047 H         1 UNK         0.0600 
    240 H240       -2.5570  -20.8830  -57.3755 H         1 UNK         0.3000 
    241 H241       -2.4257  -21.4214  -54.4734 H         1 UNK         0.0600 
    242 H242       -0.4573  -24.2592  -56.4044 H         1 UNK         0.3800 
    243 H243       -1.8234  -23.4022  -57.0669 H         1 UNK         0.3800 
    244 H244       -0.2012  -19.9808  -55.9400 H         1 UNK         0.0800 
    245 H245       -1.7194  -19.1574  -55.7895 H         1 UNK         0.0800 
    246 H246        1.4455  -18.8455  -54.4318 H         1 UNK         0.0800 
    247 H247        1.3839  -20.4779  -53.8081 H         1 UNK         0.0800 
@<TRIPOS>BOND
     1    1    2 1    
     2    1  127 1    
     3    1  128 1    
     4    1  129 1    
     5    2    3 2    
     6    2    4 am   BACKBONE|DICT|INTERRES
     7    4    5 1    
     8    4  130 1    
     9    5    6 1    
    10    5   65 1    
    11    5  131 1    
    12    6    7 1    
    13    6  132 1    
    14    6  133 1    
    15    7    8 1    
    16    8    9 1    
    17    8  134 1    
    18    8  135 1    
    19    9   10 ar   
    20    9   14 ar   
    21   10   11 ar   
    22   10  136 1    
    23   11   12 ar   
    24   11  126 1    
    25   12   13 ar   
    26   12  137 1    
    27   13   14 ar   
    28   13   15 1    
    29   14  138 1    
    30   15   16 1    
    31   15  139 1    
    32   15  140 1    
    33   16   17 1    
    34   17   18 1    
    35   17  141 1    
    36   17  142 1    
    37   18   19 1    
    38   18   67 1    
    39   18  143 1    
    40   19   20 am   BACKBONE|DICT|INTERRES
    41   19  144 1    
    42   20   21 2    
    43   20   22 1    
    44   22   23 1    
    45   22   24 1    
    46   22  145 1    
    47   23  146 1    
    48   23  147 1    
    49   23  148 1    
    50   24   25 am   BACKBONE|DICT|INTERRES
    51   24  149 1    
    52   25   26 2    
    53   25   27 1    
    54   27   28 1    
    55   27   29 1    
    56   27  150 1    
    57   28  151 1    
    58   28  152 1    
    59   28  153 1    
    60   29   30 am   BACKBONE|DICT|INTERRES
    61   29  154 1    
    62   30   31 2    
    63   30   32 1    
    64   32   33 1    
    65   32   34 1    
    66   32  155 1    
    67   33  156 1    
    68   33  157 1    
    69   33  158 1    
    70   34   35 am   BACKBONE|DICT|INTERRES
    71   34  159 1    
    72   35   36 2    
    73   35   37 1    
    74   37   38 1    
    75   37   39 1    
    76   37  160 1    
    77   38  161 1    
    78   38  162 1    
    79   38  163 1    
    80   39   40 am   BACKBONE|DICT|INTERRES
    81   39  164 1    
    82   40   41 2    
    83   40   42 1    
    84   42   43 1    
    85   42   44 1    
    86   42  165 1    
    87   43  166 1    
    88   43  167 1    
    89   43  168 1    
    90   44   45 am   BACKBONE|DICT|INTERRES
    91   44  169 1    
    92   45   46 2    
    93   45   47 1    
    94   47   48 1    
    95   47   49 1    
    96   47  170 1    
    97   48  171 1    
    98   48  172 1    
    99   48  173 1    
   100   49   50 am   BACKBONE|DICT|INTERRES
   101   49  174 1    
   102   50   51 2    
   103   50   52 1    
   104   52   53 1    
   105   52   54 1    
   106   52  175 1    
   107   53  176 1    
   108   53  177 1    
   109   53  178 1    
   110   54   55 am   BACKBONE|DICT|INTERRES
   111   54  179 1    
   112   55   56 2    
   113   55   57 1    
   114   57   58 1    
   115   57   59 1    
   116   57  180 1    
   117   58  181 1    
   118   58  182 1    
   119   58  183 1    
   120   59   60 am   BACKBONE|DICT|INTERRES
   121   59  184 1    
   122   60   61 2    
   123   60   62 1    
   124   62   63 1    
   125   62   64 1    
   126   62  185 1    
   127   63  186 1    
   128   63  187 1    
   129   63  188 1    
   130   64   65 am   BACKBONE|DICT|INTERRES
   131   64  189 1    
   132   65   66 2    
   133   67   68 2    
   134   67   69 am   BACKBONE|DICT|INTERRES
   135   69   70 1    
   136   69  190 1    
   137   70   71 1    
   138   70   72 1    
   139   70  191 1    
   140   71  192 1    
   141   71  193 1    
   142   71  194 1    
   143   72   73 2    
   144   72   74 am   BACKBONE|DICT|INTERRES
   145   74   75 1    
   146   74  195 1    
   147   75   76 1    
   148   75   77 1    
   149   75  196 1    
   150   76  197 1    
   151   76  198 1    
   152   76  199 1    
   153   77   78 2    
   154   77   79 am   BACKBONE|DICT|INTERRES
   155   79   80 1    
   156   79  200 1    
   157   80   81 1    
   158   80   82 1    
   159   80  201 1    
   160   81  202 1    
   161   81  203 1    
   162   81  204 1    
   163   82   83 2    
   164   82   84 am   BACKBONE|DICT|INTERRES
   165   84   85 1    
   166   84  205 1    
   167   85   86 1    
   168   85   87 1    
   169   85  206 1    
   170   86  207 1    
   171   86  208 1    
   172   86  209 1    
   173   87   88 2    
   174   87   89 am   BACKBONE|DICT|INTERRES
   175   89   90 1    
   176   89  210 1    
   177   90   91 1    
   178   90   92 1    
   179   90  211 1    
   180   91  212 1    
   181   91  213 1    
   182   91  214 1    
   183   92   93 2    
   184   92   94 am   BACKBONE|DICT|INTERRES
   185   94   95 1    
   186   94  215 1    
   187   95   96 1    
   188   95   97 1    
   189   95  216 1    
   190   96  217 1    
   191   96  218 1    
   192   96  219 1    
   193   97   98 2    
   194   97   99 am   BACKBONE|DICT|INTERRES
   195   99  100 1    
   196   99  220 1    
   197  100  101 1    
   198  100  102 1    
   199  100  221 1    
   200  101  222 1    
   201  101  223 1    
   202  101  224 1    
   203  102  103 2    
   204  102  104 am   BACKBONE|DICT|INTERRES
   205  104  105 1    
   206  104  225 1    
   207  105  106 1    
   208  105  107 1    
   209  105  226 1    
   210  106  227 1    
   211  106  228 1    
   212  106  229 1    
   213  107  108 2    
   214  107  109 am   BACKBONE|DICT|INTERRES
   215  109  110 1    
   216  109  230 1    
   217  110  111 1    
   218  110  112 1    
   219  110  231 1    
   220  111  232 1    
   221  111  233 1    
   222  111  234 1    
   223  112  113 2    
   224  112  114 am   BACKBONE|DICT|INTERRES
   225  114  115 1    
   226  114  235 1    
   227  115  116 1    
   228  115  117 1    
   229  115  236 1    
   230  116  237 1    
   231  116  238 1    
   232  116  239 1    
   233  117  118 2    
   234  117  119 am   BACKBONE|DICT|INTERRES
   235  119  120 1    
   236  119  240 1    
   237  120  121 1    
   238  120  124 1    
   239  120  241 1    
   240  121  122 am   BACKBONE|DICT|INTERRES
   241  121  123 2    
   242  122  242 1    
   243  122  243 1    
   244  124  125 1    
   245  124  244 1    
   246  124  245 1    
   247  125  126 1    
   248  126  246 1    
   249  126  247 1    
@<TRIPOS>SUBSTRUCTURE
     1 UNK         1 GROUP             0       ****    0 ROOT    
