@<TRIPOS>MOLECULE
3R540
247   249    1
SMALL
USER_CHARGES


@<TRIPOS>ATOM
      1 CA          3.1668  -10.0580  -49.4900 C.3       0 UNK        -0.1800 
      2 C           2.8123  -11.4787  -49.0761 C.2       0 UNK         0.5000 
      3 O           2.7102  -11.7615  -47.8830 O.2       0 UNK        -0.5000 
      4 N           2.6063  -12.3657  -50.0586 N.am      1 UNK        -0.5000 
      5 CA          2.3041  -13.7942  -49.8830 C.3       1 UNK         0.1400 
      6 C6          2.2702  -14.5207  -51.2547 C.3       23 UNK        -0.0398 
      7 S7          2.8391  -16.2542  -51.1826 S.3       23 UNK        -0.2404 
      8 C8          1.6523  -17.0883  -52.2879 C.3       23 UNK        -0.0205 
      9 C9          0.5561  -17.7947  -51.5051 C.ar      23 UNK        -0.0193 
     10 C10        -0.4239  -17.0595  -50.8378 C.ar      23 UNK        -0.1150 
     11 C11        -1.4006  -17.6958  -50.0682 C.ar      23 UNK        -0.0193 
     12 C12        -1.4002  -19.0952  -49.9837 C.ar      23 UNK        -0.1150 
     13 C13        -0.4369  -19.8461  -50.6664 C.ar      23 UNK        -0.0193 
     14 C14         0.5338  -19.1880  -51.4272 C.ar      23 UNK        -0.1150 
     15 C15        -0.4258  -21.3666  -50.5737 C.3       23 UNK        -0.0205 
     16 S16         1.1388  -21.9984  -49.8819 S.3       23 UNK        -0.2404 
     17 C17         0.9785  -21.5129  -48.1286 C.3       23 UNK        -0.0398 
     18 CA          0.6955  -22.7138  -47.1956 C.3       11 UNK         0.1400 
     19 N           0.8211  -22.3517  -45.7836 N.am      11 UNK        -0.5000 
     20 C           0.7717  -23.2173  -44.7613 C.2       10 UNK         0.5000 
     21 O           0.6492  -24.4338  -44.8967 O.2       10 UNK        -0.5000 
     22 CA          0.8125  -22.6210  -43.3447 C.3       10 UNK         0.1400 
     23 CB          2.2452  -22.2254  -42.9583 C.3       10 UNK        -0.1800 
     24 N          -0.0833  -21.4740  -43.1927 N.am      10 UNK        -0.5000 
     25 C          -1.4156  -21.5324  -43.3407 C.2       9 UNK         0.5000 
     26 O          -2.0333  -22.5668  -43.5936 O.2       9 UNK        -0.5000 
     27 CA         -2.1875  -20.2079  -43.2238 C.3       9 UNK         0.1400 
     28 CB         -2.3651  -19.8101  -41.7510 C.3       9 UNK        -0.1800 
     29 N          -1.5513  -19.1137  -43.9554 N.am      9 UNK        -0.5000 
     30 C          -1.3650  -19.0884  -45.2838 C.2       8 UNK         0.5000 
     31 O          -1.7151  -19.9873  -46.0490 O.2       8 UNK        -0.5000 
     32 CA         -0.6078  -17.8710  -45.8396 C.3       8 UNK         0.1400 
     33 CB         -1.4725  -16.6043  -45.7391 C.3       8 UNK        -0.1800 
     34 N           0.6577  -17.6436  -45.1448 N.am      8 UNK        -0.5000 
     35 C           1.6585  -18.5273  -45.0307 C.2       7 UNK         0.5000 
     36 O           1.6615  -19.6401  -45.5548 O.2       7 UNK        -0.5000 
     37 CA          2.8334  -18.1172  -44.1287 C.3       7 UNK         0.1400 
     38 CB          3.8202  -17.2173  -44.8873 C.3       7 UNK        -0.1800 
     39 N           2.3772  -17.4415  -42.9136 N.am      7 UNK        -0.5000 
     40 C           1.7102  -18.0422  -41.9177 C.2       6 UNK         0.5000 
     41 O           1.4255  -19.2397  -41.9067 O.2       6 UNK        -0.5000 
     42 CA          1.2518  -17.1415  -40.7566 C.3       6 UNK         0.1400 
     43 CB          2.4177  -16.8460  -39.8011 C.3       6 UNK        -0.1800 
     44 N           0.6717  -15.8816  -41.2234 N.am      6 UNK        -0.5000 
     45 C          -0.4821  -15.7919  -41.8987 C.2       5 UNK         0.5000 
     46 O          -1.1929  -16.7606  -42.1668 O.2       5 UNK        -0.5000 
     47 CA         -0.8964  -14.3907  -42.3875 C.3       5 UNK         0.1400 
     48 CB         -1.6752  -13.6490  -41.2911 C.3       5 UNK        -0.1800 
     49 N           0.2102  -13.5450  -42.8469 N.am      5 UNK        -0.5000 
     50 C           1.1051  -13.8647  -43.7912 C.2       4 UNK         0.5000 
     51 O           1.1685  -14.9713  -44.3257 O.2       4 UNK        -0.5000 
     52 CA          2.0585  -12.7407  -44.2369 C.3       4 UNK         0.1400 
     53 CB          3.3665  -13.2893  -44.8327 C.3       4 UNK        -0.1800 
     54 N           1.4060  -11.9017  -45.2372 N.am      4 UNK        -0.5000 
     55 C           0.4362  -11.0111  -44.9918 C.2       3 UNK         0.5000 
     56 O           0.0581  -10.7049  -43.8598 O.2       3 UNK        -0.5000 
     57 CA         -0.2399  -10.3752  -46.2185 C.3       3 UNK         0.1400 
     58 CB          0.5431   -9.1412  -46.6917 C.3       3 UNK        -0.1800 
     59 N          -0.3815  -11.3242  -47.3261 N.am      3 UNK        -0.5000 
     60 C          -1.2848  -12.3151  -47.3636 C.2       2 UNK         0.5000 
     61 O          -2.1079  -12.5172  -46.4706 O.2       2 UNK        -0.5000 
     62 CA         -1.2887  -13.2284  -48.6045 C.3       2 UNK         0.1400 
     63 CB         -2.4136  -12.8254  -49.5713 C.3       2 UNK        -0.1800 
     64 N          -0.0160  -13.2141  -49.3280 N.am      2 UNK        -0.5000 
     65 C           1.0110  -14.0376  -49.0707 C.2       1 UNK         0.5000 
     66 O           0.9778  -14.9275  -48.2220 O.2       1 UNK        -0.5000 
     67 C          -0.6695  -23.3623  -47.4922 C.2       11 UNK         0.5000 
     68 O          -0.7033  -24.4534  -48.0609 O.2       11 UNK        -0.5000 
     69 N          -1.7596  -22.7047  -47.0697 N.am      12 UNK        -0.5000 
     70 CA         -3.1308  -23.1799  -47.2549 C.3       12 UNK         0.1400 
     71 CB         -4.1176  -22.1187  -46.7480 C.3       12 UNK        -0.1800 
     72 C          -3.3971  -24.5429  -46.5906 C.2       12 UNK         0.5000 
     73 O          -4.0992  -25.3677  -47.1736 O.2       12 UNK        -0.5000 
     74 N          -2.8070  -24.7708  -45.4094 N.am      13 UNK        -0.5000 
     75 CA         -2.8445  -26.0497  -44.7045 C.3       13 UNK         0.1400 
     76 CB         -2.3721  -25.8530  -43.2556 C.3       13 UNK        -0.1800 
     77 C          -2.0135  -27.1380  -45.4094 C.2       13 UNK         0.5000 
     78 O          -2.5109  -28.2487  -45.5959 O.2       13 UNK        -0.5000 
     79 N          -0.7690  -26.8072  -45.7832 N.am      14 UNK        -0.5000 
     80 CA          0.1904  -27.7335  -46.3883 C.3       14 UNK         0.1400 
     81 CB          1.5915  -27.1028  -46.3853 C.3       14 UNK        -0.1800 
     82 C          -0.1965  -28.1757  -47.8093 C.2       14 UNK         0.5000 
     83 O          -0.1291  -29.3677  -48.1126 O.2       14 UNK        -0.5000 
     84 N          -0.5924  -27.2148  -48.6536 N.am      15 UNK        -0.5000 
     85 CA         -0.9964  -27.4567  -50.0399 C.3       15 UNK         0.1400 
     86 CB         -0.7750  -26.1735  -50.8564 C.3       15 UNK        -0.1800 
     87 C          -2.4565  -27.9303  -50.1631 C.2       15 UNK         0.5000 
     88 O          -2.8297  -28.4474  -51.2164 O.2       15 UNK        -0.5000 
     89 N          -3.2538  -27.7255  -49.1024 N.am      16 UNK        -0.5000 
     90 CA         -4.6939  -27.9955  -48.9928 C.3       16 UNK         0.1400 
     91 CB         -4.9880  -29.5034  -49.1360 C.3       16 UNK        -0.1800 
     92 C          -5.5583  -27.1259  -49.9350 C.2       16 UNK         0.5000 
     93 O          -6.7133  -27.4677  -50.1962 O.2       16 UNK        -0.5000 
     94 N          -4.9918  -26.0166  -50.4227 N.am      17 UNK        -0.5000 
     95 CA         -5.5725  -25.0751  -51.3706 C.3       17 UNK         0.1400 
     96 CB         -5.6766  -25.7205  -52.7672 C.3       17 UNK        -0.1800 
     97 C          -4.6832  -23.8239  -51.4213 C.2       17 UNK         0.5000 
     98 O          -3.5354  -23.8615  -50.9703 O.2       17 UNK        -0.5000 
     99 N          -5.2253  -22.7414  -51.9861 N.am      18 UNK        -0.5000 
    100 CA        -4.4973  -21.5079  -52.2755 C.3       18 UNK         0.1400 
    101 CB        -5.5220  -20.3770  -52.4458 C.3       18 UNK        -0.1800 
    102 C         -3.6494  -21.6484  -53.5543 C.2       18 UNK         0.5000 
    103 O         -4.0030  -22.4307  -54.4404 O.2       18 UNK        -0.5000 
    104 N         -2.5804  -20.8492  -53.6474 N.am      19 UNK        -0.5000 
    105 CA        -1.7140  -20.7405  -54.8278 C.3       19 UNK         0.1400 
    106 CB        -0.3512  -21.3859  -54.5207 C.3       19 UNK        -0.1800 
    107 C         -1.5726  -19.2755  -55.2918 C.2       19 UNK         0.5000 
    108 O         -0.6596  -18.9595  -56.0558 O.2       19 UNK        -0.5000 
    109 N         -2.4788  -18.4087  -54.8270 N.am      20 UNK        -0.5000 
    110 CA        -2.5716  -16.9804  -55.1099 C.3       20 UNK         0.1400 
    111 CB        -1.4321  -16.2166  -54.4041 C.3       20 UNK        -0.1800 
    112 C         -3.9592  -16.5060  -54.6436 C.2       20 UNK         0.5000 
    113 O         -4.8039  -17.3373  -54.2933 O.2       20 UNK        -0.5000 
    114 N         -4.1726  -15.1842  -54.6061 N.am      21 UNK        -0.5000 
    115 CA        -5.3805  -14.5235  -54.0981 C.3       21 UNK         0.1400 
    116 CB        -5.4199  -13.0840  -54.6421 C.3       21 UNK        -0.1800 
    117 C         -5.4735  -14.5800  -52.5545 C.2       21 UNK         0.5000 
    118 O         -5.4854  -13.5443  -51.8874 O.2       21 UNK        -0.5000 
    119 N         -5.5053  -15.8043  -52.0200 N.am      22 UNK        -0.5000 
    120 CA        -5.5420  -16.1281  -50.5866 C.3       22 UNK         0.1400 
    121 C         -6.9552  -16.0298  -49.9366 C.2       22 UNK         0.5000 
    122 N         -8.0270  -15.8506  -50.6997 N.am      22 UNK        -0.7600 
    123 O         -7.0846  -16.1019  -48.7183 O.2       22 UNK        -0.5000 
    124 C124       -4.8697  -17.5070  -50.3344 C.3       23 UNK        -0.0398 
    125 S125       -3.9390  -17.5886  -48.7731 S.3       23 UNK        -0.2404 
    126 C126       -2.3700  -16.8148  -49.2872 C.3       23 UNK        -0.0205 
    127 H127        2.3242   -9.3911  -49.3094 H         1 UNK         0.0600 
    128 H128        3.4284   -9.9987  -50.5466 H         1 UNK         0.0600 
    129 H129        4.0176   -9.6996  -48.9107 H         1 UNK         0.0600 
    130 H130        2.6999  -12.0544  -51.0151 H         1 UNK         0.3000 
    131 H131        3.1300  -14.2021  -49.2960 H         1 UNK         0.0600 
    132 H132        2.9442  -14.0261  -51.9556 H         1 UNK         0.0800 
    133 H133        1.2825  -14.4523  -51.7135 H         1 UNK         0.0800 
    134 H134        1.2148  -16.3783  -52.9893 H         1 UNK         0.0800 
    135 H135        2.2008  -17.8078  -52.8978 H         1 UNK         0.0800 
    136 H136       -0.4050  -15.9809  -50.8898 H         1 UNK         0.1150 
    137 H137       -2.1304  -19.6030  -49.3699 H         1 UNK         0.1150 
    138 H138        1.2929  -19.7653  -51.9359 H         1 UNK         0.1150 
    139 H139       -1.2640  -21.7325  -49.9785 H         1 UNK         0.0800 
    140 H140       -0.5595  -21.7854  -51.5711 H         1 UNK         0.0800 
    141 H141        0.2194  -20.7375  -48.0120 H         1 UNK         0.0800 
    142 H142        1.9221  -21.0458  -47.8444 H         1 UNK         0.0800 
    143 H143        1.4600  -23.4695  -47.3890 H         1 UNK         0.0600 
    144 H144        0.9514  -21.3621  -45.5847 H         1 UNK         0.3000 
    145 H145        0.4778  -23.3952  -42.6512 H         1 UNK         0.0600 
    146 H146        2.2956  -21.8936  -41.9213 H         1 UNK         0.0600 
    147 H147        2.9257  -23.0715  -43.0619 H         1 UNK         0.0600 
    148 H148        2.6244  -21.4194  -43.5866 H         1 UNK         0.0600 
    149 H149        0.3499  -20.5881  -42.9514 H         1 UNK         0.3000 
    150 H150       -3.1780  -20.3628  -43.6562 H         1 UNK         0.0600 
    151 H151       -2.8399  -20.6112  -41.1832 H         1 UNK         0.0600 
    152 H152       -2.9958  -18.9260  -41.6560 H         1 UNK         0.0600 
    153 H153       -1.4085  -19.5898  -41.2753 H         1 UNK         0.0600 
    154 H154       -1.2440  -18.3202  -43.4008 H         1 UNK         0.3000 
    155 H155       -0.3856  -18.0604  -46.8918 H         1 UNK         0.0600 
    156 H156       -0.9885  -15.7557  -46.2232 H         1 UNK         0.0600 
    157 H157       -2.4447  -16.7506  -46.2093 H         1 UNK         0.0600 
    158 H158       -1.6640  -16.3283  -44.7050 H         1 UNK         0.0600 
    159 H159        0.7820  -16.7253  -44.7234 H         1 UNK         0.3000 
    160 H160        3.3630  -19.0250  -43.8325 H         1 UNK         0.0600 
    161 H161        3.3438  -16.3030  -45.2408 H         1 UNK         0.0600 
    162 H162        4.2213  -17.7330  -45.7606 H         1 UNK         0.0600 
    163 H163        4.6649  -16.9361  -44.2583 H         1 UNK         0.0600 
    164 H164        2.4967  -16.4398  -42.8822 H         1 UNK         0.3000 
    165 H165        0.4845  -17.6831  -40.1992 H         1 UNK         0.0600 
    166 H166        2.0815  -16.2772  -38.9340 H         1 UNK         0.0600 
    167 H167        2.8608  -17.7710  -39.4297 H         1 UNK         0.0600 
    168 H168        3.2086  -16.2763  -40.2904 H         1 UNK         0.0600 
    169 H169        1.1960  -15.0372  -41.0482 H         1 UNK         0.3000 
    170 H170       -1.5662  -14.5256  -43.2381 H         1 UNK         0.0600 
    171 H171       -2.5230  -14.2416  -40.9443 H         1 UNK         0.0600 
    172 H172       -1.0470  -13.4354  -40.4255 H         1 UNK         0.0600 
    173 H173       -2.0716  -12.7029  -41.6605 H         1 UNK         0.0600 
    174 H174        0.1989  -12.5862  -42.5239 H         1 UNK         0.3000 
    175 H175        2.3114  -12.1335  -43.3653 H         1 UNK         0.0600 
    176 H176        3.8735  -13.9485  -44.1272 H         1 UNK         0.0600 
    177 H177        3.1859  -13.8568  -45.7470 H         1 UNK         0.0600 
    178 H178        4.0552  -12.4805  -45.0773 H         1 UNK         0.0600 
    179 H179        1.6860  -12.0566  -46.2010 H         1 UNK         0.3000 
    180 H180       -1.2371  -10.0461  -45.9180 H         1 UNK         0.0600 
    181 H181        1.5723   -9.3899  -46.9506 H         1 UNK         0.0600 
    182 H182        0.5804   -8.3835  -45.9080 H         1 UNK         0.0600 
    183 H183        0.0753   -8.6839  -47.5636 H         1 UNK         0.0600 
    184 H184        0.2942  -11.2565  -48.0715 H         1 UNK         0.3000 
    185 H185       -1.4954  -14.2382  -48.2514 H         1 UNK         0.0600 
    186 H186       -3.3870  -12.8759  -49.0815 H         1 UNK         0.0600 
    187 H187       -2.2838  -11.8068  -49.9390 H         1 UNK         0.0600 
    188 H188       -2.4531  -13.4899  -50.4347 H         1 UNK         0.0600 
    189 H189        0.0958  -12.5069  -50.0401 H         1 UNK         0.3000 
    190 H190       -1.6524  -21.8045  -46.6075 H         1 UNK         0.3000 
    191 H191       -3.2894  -23.3035  -48.3276 H         1 UNK         0.0600 
    192 H192       -3.9758  -21.9146  -45.6860 H         1 UNK         0.0600 
    193 H193       -5.1490  -22.4444  -46.8878 H         1 UNK         0.0600 
    194 H194       -3.9968  -21.1791  -47.2881 H         1 UNK         0.0600 
    195 H195       -2.2892  -24.0187  -44.9654 H         1 UNK         0.3000 
    196 H196       -3.8818  -26.3900  -44.6747 H         1 UNK         0.0600 
    197 H197       -2.3949  -26.7942  -42.7051 H         1 UNK         0.0600 
    198 H198       -3.0145  -25.1499  -42.7253 H         1 UNK         0.0600 
    199 H199       -1.3521  -25.4696  -43.2114 H         1 UNK         0.0600 
    200 H200       -0.4216  -25.8742  -45.5760 H         1 UNK         0.3000 
    201 H201        0.2267  -28.6287  -45.7640 H         1 UNK         0.0600 
    202 H202        1.9232  -26.8865  -45.3698 H         1 UNK         0.0600 
    203 H203        1.6134  -26.1698  -46.9502 H         1 UNK         0.0600 
    204 H204        2.3259  -27.7752  -46.8304 H         1 UNK         0.0600 
    205 H205       -0.6162  -26.2459  -48.3362 H         1 UNK         0.3000 
    206 H206       -0.3616  -28.2371  -50.4647 H         1 UNK         0.0600 
    207 H207        0.2663  -25.8537  -50.8159 H         1 UNK         0.0600 
    208 H208       -1.0295  -26.3260  -51.9060 H         1 UNK         0.0600 
    209 H209       -1.3890  -25.3521  -50.4877 H         1 UNK         0.0600 
    210 H210       -2.8443  -27.2742  -48.2957 H         1 UNK         0.3000 
    211 H211       -4.9764  -27.7112  -47.9788 H         1 UNK         0.0600 
    212 H212       -4.8204  -29.8566  -50.1536 H         1 UNK         0.0600 
    213 H213       -6.0253  -29.7246  -48.8826 H         1 UNK         0.0600 
    214 H214       -4.3600  -30.0921  -48.4671 H         1 UNK         0.0600 
    215 H215       -4.0557  -25.7704  -50.1247 H         1 UNK         0.3000 
    216 H216       -6.5643  -24.7845  -51.0186 H         1 UNK         0.0600 
    217 H217       -4.7018  -26.0567  -53.1234 H         1 UNK         0.0600 
    218 H218       -6.0682  -25.0156  -53.5014 H         1 UNK         0.0600 
    219 H219       -6.3452  -26.5812  -52.7636 H         1 UNK         0.0600 
    220 H220       -6.1562  -22.8066  -52.3708 H         1 UNK         0.3000 
    221 H221       -3.8423  -21.2696  -51.4340 H         1 UNK         0.0600 
    222 H222       -6.1451  -20.2721  -51.5579 H         1 UNK         0.0600 
    223 H223       -6.1820  -20.5552  -53.2960 H         1 UNK         0.0600 
    224 H224       -5.0263  -19.4225  -52.6161 H         1 UNK         0.0600 
    225 H225       -2.3533  -20.2310  -52.8809 H         1 UNK         0.3000 
    226 H226       -2.1546  -21.2760  -55.6709 H         1 UNK         0.0600 
    227 H227        0.2790  -21.4140  -55.4103 H         1 UNK         0.0600 
    228 H228        0.1909  -20.8338  -53.7546 H         1 UNK         0.0600 
    229 H229       -0.4693  -22.4134  -54.1763 H         1 UNK         0.0600 
    230 H230       -3.2615  -18.7561  -54.2875 H         1 UNK         0.3000 
    231 H231       -2.5062  -16.8278  -56.1887 H         1 UNK         0.0600 
    232 H232       -1.5171  -16.2909  -53.3202 H         1 UNK         0.0600 
    233 H233       -1.4368  -15.1581  -54.6644 H         1 UNK         0.0600 
    234 H234       -0.4557  -16.6044  -54.6918 H         1 UNK         0.0600 
    235 H235       -3.4219  -14.5693  -54.8841 H         1 UNK         0.3000 
    236 H236       -6.2537  -15.0484  -54.4914 H         1 UNK         0.0600 
    237 H237       -5.4183  -13.0745  -55.7322 H         1 UNK         0.0600 
    238 H238       -6.3236  -12.5670  -54.3166 H         1 UNK         0.0600 
    239 H239       -4.5648  -12.4998  -54.2999 H         1 UNK         0.0600 
    240 H240       -5.4660  -16.5888  -52.6642 H         1 UNK         0.3000 
    241 H241       -4.9440  -15.3645  -50.0858 H         1 UNK         0.0600 
    242 H242       -8.9362  -15.7807  -50.2699 H         1 UNK         0.3800 
    243 H243       -7.9392  -15.7840  -51.7008 H         1 UNK         0.3800 
    244 H244       -4.1669  -17.7466  -51.1338 H         1 UNK         0.0800 
    245 H245       -5.6072  -18.3100  -50.3406 H         1 UNK         0.0800 
    246 H246       -2.5972  -15.9167  -49.8623 H         1 UNK         0.0800 
    247 H247       -1.8422  -16.4795  -48.3996 H         1 UNK         0.0800 
@<TRIPOS>BOND
     1    1    2 1    
     2    1  127 1    
     3    1  128 1    
     4    1  129 1    
     5    2    3 2    
     6    2    4 am   BACKBONE|DICT|INTERRES
     7    4    5 1    
     8    4  130 1    
     9    5    6 1    
    10    5   65 1    
    11    5  131 1    
    12    6    7 1    
    13    6  132 1    
    14    6  133 1    
    15    7    8 1    
    16    8    9 1    
    17    8  134 1    
    18    8  135 1    
    19    9   10 ar   
    20    9   14 ar   
    21   10   11 ar   
    22   10  136 1    
    23   11   12 ar   
    24   11  126 1    
    25   12   13 ar   
    26   12  137 1    
    27   13   14 ar   
    28   13   15 1    
    29   14  138 1    
    30   15   16 1    
    31   15  139 1    
    32   15  140 1    
    33   16   17 1    
    34   17   18 1    
    35   17  141 1    
    36   17  142 1    
    37   18   19 1    
    38   18   67 1    
    39   18  143 1    
    40   19   20 am   BACKBONE|DICT|INTERRES
    41   19  144 1    
    42   20   21 2    
    43   20   22 1    
    44   22   23 1    
    45   22   24 1    
    46   22  145 1    
    47   23  146 1    
    48   23  147 1    
    49   23  148 1    
    50   24   25 am   BACKBONE|DICT|INTERRES
    51   24  149 1    
    52   25   26 2    
    53   25   27 1    
    54   27   28 1    
    55   27   29 1    
    56   27  150 1    
    57   28  151 1    
    58   28  152 1    
    59   28  153 1    
    60   29   30 am   BACKBONE|DICT|INTERRES
    61   29  154 1    
    62   30   31 2    
    63   30   32 1    
    64   32   33 1    
    65   32   34 1    
    66   32  155 1    
    67   33  156 1    
    68   33  157 1    
    69   33  158 1    
    70   34   35 am   BACKBONE|DICT|INTERRES
    71   34  159 1    
    72   35   36 2    
    73   35   37 1    
    74   37   38 1    
    75   37   39 1    
    76   37  160 1    
    77   38  161 1    
    78   38  162 1    
    79   38  163 1    
    80   39   40 am   BACKBONE|DICT|INTERRES
    81   39  164 1    
    82   40   41 2    
    83   40   42 1    
    84   42   43 1    
    85   42   44 1    
    86   42  165 1    
    87   43  166 1    
    88   43  167 1    
    89   43  168 1    
    90   44   45 am   BACKBONE|DICT|INTERRES
    91   44  169 1    
    92   45   46 2    
    93   45   47 1    
    94   47   48 1    
    95   47   49 1    
    96   47  170 1    
    97   48  171 1    
    98   48  172 1    
    99   48  173 1    
   100   49   50 am   BACKBONE|DICT|INTERRES
   101   49  174 1    
   102   50   51 2    
   103   50   52 1    
   104   52   53 1    
   105   52   54 1    
   106   52  175 1    
   107   53  176 1    
   108   53  177 1    
   109   53  178 1    
   110   54   55 am   BACKBONE|DICT|INTERRES
   111   54  179 1    
   112   55   56 2    
   113   55   57 1    
   114   57   58 1    
   115   57   59 1    
   116   57  180 1    
   117   58  181 1    
   118   58  182 1    
   119   58  183 1    
   120   59   60 am   BACKBONE|DICT|INTERRES
   121   59  184 1    
   122   60   61 2    
   123   60   62 1    
   124   62   63 1    
   125   62   64 1    
   126   62  185 1    
   127   63  186 1    
   128   63  187 1    
   129   63  188 1    
   130   64   65 am   BACKBONE|DICT|INTERRES
   131   64  189 1    
   132   65   66 2    
   133   67   68 2    
   134   67   69 am   BACKBONE|DICT|INTERRES
   135   69   70 1    
   136   69  190 1    
   137   70   71 1    
   138   70   72 1    
   139   70  191 1    
   140   71  192 1    
   141   71  193 1    
   142   71  194 1    
   143   72   73 2    
   144   72   74 am   BACKBONE|DICT|INTERRES
   145   74   75 1    
   146   74  195 1    
   147   75   76 1    
   148   75   77 1    
   149   75  196 1    
   150   76  197 1    
   151   76  198 1    
   152   76  199 1    
   153   77   78 2    
   154   77   79 am   BACKBONE|DICT|INTERRES
   155   79   80 1    
   156   79  200 1    
   157   80   81 1    
   158   80   82 1    
   159   80  201 1    
   160   81  202 1    
   161   81  203 1    
   162   81  204 1    
   163   82   83 2    
   164   82   84 am   BACKBONE|DICT|INTERRES
   165   84   85 1    
   166   84  205 1    
   167   85   86 1    
   168   85   87 1    
   169   85  206 1    
   170   86  207 1    
   171   86  208 1    
   172   86  209 1    
   173   87   88 2    
   174   87   89 am   BACKBONE|DICT|INTERRES
   175   89   90 1    
   176   89  210 1    
   177   90   91 1    
   178   90   92 1    
   179   90  211 1    
   180   91  212 1    
   181   91  213 1    
   182   91  214 1    
   183   92   93 2    
   184   92   94 am   BACKBONE|DICT|INTERRES
   185   94   95 1    
   186   94  215 1    
   187   95   96 1    
   188   95   97 1    
   189   95  216 1    
   190   96  217 1    
   191   96  218 1    
   192   96  219 1    
   193   97   98 2    
   194   97   99 am   BACKBONE|DICT|INTERRES
   195   99  100 1    
   196   99  220 1    
   197  100  101 1    
   198  100  102 1    
   199  100  221 1    
   200  101  222 1    
   201  101  223 1    
   202  101  224 1    
   203  102  103 2    
   204  102  104 am   BACKBONE|DICT|INTERRES
   205  104  105 1    
   206  104  225 1    
   207  105  106 1    
   208  105  107 1    
   209  105  226 1    
   210  106  227 1    
   211  106  228 1    
   212  106  229 1    
   213  107  108 2    
   214  107  109 am   BACKBONE|DICT|INTERRES
   215  109  110 1    
   216  109  230 1    
   217  110  111 1    
   218  110  112 1    
   219  110  231 1    
   220  111  232 1    
   221  111  233 1    
   222  111  234 1    
   223  112  113 2    
   224  112  114 am   BACKBONE|DICT|INTERRES
   225  114  115 1    
   226  114  235 1    
   227  115  116 1    
   228  115  117 1    
   229  115  236 1    
   230  116  237 1    
   231  116  238 1    
   232  116  239 1    
   233  117  118 2    
   234  117  119 am   BACKBONE|DICT|INTERRES
   235  119  120 1    
   236  119  240 1    
   237  120  121 1    
   238  120  124 1    
   239  120  241 1    
   240  121  122 am   BACKBONE|DICT|INTERRES
   241  121  123 2    
   242  122  242 1    
   243  122  243 1    
   244  124  125 1    
   245  124  244 1    
   246  124  245 1    
   247  125  126 1    
   248  126  246 1    
   249  126  247 1    
@<TRIPOS>SUBSTRUCTURE
     1 UNK         1 GROUP             0       ****    0 ROOT    
