@<TRIPOS>MOLECULE
3R540
247   249    1
SMALL
USER_CHARGES


@<TRIPOS>ATOM
      1 CA          0.9566   -9.4932  -48.6971 C.3       0 UNK        -0.1800 
      2 C           0.8142  -10.9672  -48.3461 C.2       0 UNK         0.5000 
      3 O           0.6271  -11.3049  -47.1765 O.2       0 UNK        -0.5000 
      4 N           0.8921  -11.8483  -49.3518 N.am      1 UNK        -0.5000 
      5 CA          0.7630  -13.3040  -49.2209 C.3       1 UNK         0.1400 
      6 C6          1.5353  -14.0408  -50.3449 C.3       23 UNK        -0.0398 
      7 S7          2.1346  -15.6967  -49.8580 S.3       23 UNK        -0.2404 
      8 C8          0.7386  -16.7630  -50.3603 C.3       23 UNK        -0.0205 
      9 C9          1.0561  -18.2464  -50.5377 C.ar      23 UNK        -0.0193 
     10 C10         0.1410  -19.0306  -51.2437 C.ar      23 UNK        -0.1150 
     11 C11         0.3730  -20.3888  -51.4724 C.ar      23 UNK        -0.0193 
     12 C12         1.5250  -20.9791  -50.9406 C.ar      23 UNK        -0.1150 
     13 C13         2.4418  -20.2182  -50.2048 C.ar      23 UNK        -0.0193 
     14 C14         2.2074  -18.8526  -50.0197 C.ar      23 UNK        -0.1150 
     15 C15         3.6954  -20.8622  -49.6202 C.3       23 UNK        -0.0205 
     16 S16         3.7354  -20.8023  -47.7946 S.3       23 UNK        -0.2404 
     17 C17         2.2798  -21.8101  -47.3649 C.3       23 UNK        -0.0398 
     18 CA          2.5999  -23.0174  -46.4488 C.3       11 UNK         0.1400 
     19 N           3.0993  -22.6010  -45.1343 N.am      11 UNK        -0.5000 
     20 C           3.7261  -23.4201  -44.2794 C.2       10 UNK         0.5000 
     21 O           4.1076  -24.5505  -44.5912 O.2       10 UNK        -0.5000 
     22 CA          3.9123  -22.9280  -42.8289 C.3       10 UNK         0.1400 
     23 CB          5.0772  -23.6239  -42.0923 C.3       10 UNK        -0.1800 
     24 N           3.9814  -21.4713  -42.6875 N.am      10 UNK        -0.5000 
     25 C           4.9716  -20.6478  -43.0638 C.2       9 UNK         0.5000 
     26 O           5.9947  -21.0283  -43.6342 O.2       9 UNK        -0.5000 
     27 CA          4.8093  -19.1437  -42.7410 C.3       9 UNK         0.1400 
     28 CB          4.9482  -18.2867  -44.0105 C.3       9 UNK        -0.1800 
     29 N           3.5368  -18.8250  -42.0864 N.am      9 UNK        -0.5000 
     30 C           3.2792  -18.9547  -40.7774 C.2       8 UNK         0.5000 
     31 O           4.1276  -19.2754  -39.9449 O.2       8 UNK        -0.5000 
     32 CA          1.8176  -18.7415  -40.3276 C.3       8 UNK         0.1400 
     33 CB          1.5922  -17.2999  -39.8480 C.3       8 UNK        -0.1800 
     34 N           0.8390  -19.0701  -41.3691 N.am      8 UNK        -0.5000 
     35 C           0.6328  -20.3042  -41.8531 C.2       7 UNK         0.5000 
     36 O           1.2073  -21.3063  -41.4283 O.2       7 UNK        -0.5000 
     37 CA         -0.3169  -20.4311  -43.0583 C.3       7 UNK         0.1400 
     38 CB         -1.7790  -20.4460  -42.5918 C.3       7 UNK        -0.1800 
     39 N          -0.1120  -19.3651  -44.0430 N.am      7 UNK        -0.5000 
     40 C           1.0314  -19.1751  -44.7173 C.2       6 UNK         0.5000 
     41 O           1.9894  -19.9426  -44.6400 O.2       6 UNK        -0.5000 
     42 CA          1.1608  -17.8980  -45.5674 C.3       6 UNK         0.1400 
     43 CB          0.6181  -18.0884  -46.9816 C.3       6 UNK        -0.1800 
     44 N           0.4913  -16.7504  -44.9706 N.am      6 UNK        -0.5000 
     45 C           0.9126  -16.1122  -43.8745 C.2       5 UNK         0.5000 
     46 O           1.9407  -16.4040  -43.2648 O.2       5 UNK        -0.5000 
     47 CA         -0.0018  -14.9914  -43.3540 C.3       5 UNK         0.1400 
     48 CB          0.2001  -13.6987  -44.1605 C.3       5 UNK        -0.1800 
     49 N          -1.4127  -15.3809  -43.3957 N.am      5 UNK        -0.5000 
     50 C          -1.9561  -16.3314  -42.6224 C.2       4 UNK         0.5000 
     51 O          -1.3262  -16.9621  -41.7728 O.2       4 UNK        -0.5000 
     52 CA         -3.4455  -16.6462  -42.8559 C.3       4 UNK         0.1400 
     53 CB         -4.3322  -15.6750  -42.0626 C.3       4 UNK        -0.1800 
     54 N          -3.8260  -16.6033  -44.2695 N.am      4 UNK        -0.5000 
     55 C          -3.4309  -17.4970  -45.1875 C.2       3 UNK         0.5000 
     56 O          -2.6893  -18.4464  -44.9450 O.2       3 UNK        -0.5000 
     57 CA         -3.9001  -17.2522  -46.6334 C.3       3 UNK         0.1400 
     58 CB         -5.3537  -17.7120  -46.8178 C.3       3 UNK        -0.1800 
     59 N          -3.7716  -15.8553  -47.0589 N.am      3 UNK        -0.5000 
     60 C          -2.6226  -15.1675  -47.0651 C.2       2 UNK         0.5000 
     61 O          -1.5558  -15.6155  -46.6381 O.2       2 UNK        -0.5000 
     62 CA         -2.6860  -13.7244  -47.5940 C.3       2 UNK         0.1400 
     63 CB         -3.1862  -12.7743  -46.4953 C.3       2 UNK        -0.1800 
     64 N          -1.3649  -13.2807  -48.0274 N.am      2 UNK        -0.5000 
     65 C          -0.7263  -13.7095  -49.1217 C.2       1 UNK         0.5000 
     66 O          -1.2695  -14.3653  -50.0159 O.2       1 UNK        -0.5000 
     67 C           1.3236  -23.8748  -46.2926 C.2       11 UNK         0.5000 
     68 O           0.6403  -23.8029  -45.2676 O.2       11 UNK        -0.5000 
     69 N           0.9610  -24.5889  -47.3686 N.am      12 UNK        -0.5000 
     70 CA         -0.3209  -25.2907  -47.5268 C.3       12 UNK         0.1400 
     71 CB         -0.2389  -26.1971  -48.7646 C.3       12 UNK        -0.1800 
     72 C          -1.5407  -24.3477  -47.6387 C.2       12 UNK         0.5000 
     73 O          -2.6779  -24.8199  -47.6183 O.2       12 UNK        -0.5000 
     74 N          -1.2861  -23.0350  -47.7423 N.am      13 UNK        -0.5000 
     75 CA         -2.2277  -21.9169  -47.8482 C.3       13 UNK         0.1400 
     76 CB         -1.4228  -20.6172  -47.7972 C.3       13 UNK        -0.1800 
     77 C          -3.3470  -21.8786  -46.7904 C.2       13 UNK         0.5000 
     78 O          -4.3937  -21.2883  -47.0541 O.2       13 UNK        -0.5000 
     79 N          -3.1402  -22.5537  -45.6503 N.am      14 UNK        -0.5000 
     80 CA         -4.1549  -22.8230  -44.6282 C.3       14 UNK         0.1400 
     81 CB         -3.5133  -23.6475  -43.5010 C.3       14 UNK        -0.1800 
     82 C          -5.3952  -23.5609  -45.1766 C.2       14 UNK         0.5000 
     83 O          -6.5029  -23.3212  -44.6946 O.2       14 UNK        -0.5000 
     84 N          -5.1831  -24.4216  -46.1812 N.am      15 UNK        -0.5000 
     85 CA         -6.2272  -25.1093  -46.9364 C.3       15 UNK         0.1400 
     86 CB         -5.9651  -26.6227  -46.8852 C.3       15 UNK        -0.1800 
     87 C          -6.2696  -24.6242  -48.3961 C.2       15 UNK         0.5000 
     88 O          -7.3578  -24.5188  -48.9625 O.2       15 UNK        -0.5000 
     89 N          -5.0965  -24.3515  -48.9876 N.am      16 UNK        -0.5000 
     90 CA         -4.9438  -24.0164  -50.4048 C.3       16 UNK         0.1400 
     91 CB         -3.4959  -24.2947  -50.8447 C.3       16 UNK        -0.1800 
     92 C          -5.3613  -22.5814  -50.7800 C.2       16 UNK         0.5000 
     93 O          -5.5886  -22.3471  -51.9640 O.2       16 UNK        -0.5000 
     94 N          -5.4669  -21.6741  -49.7983 N.am      17 UNK        -0.5000 
     95 CA         -5.7593  -20.2390  -49.9195 C.3       17 UNK         0.1400 
     96 CB         -7.0126  -19.9625  -50.7821 C.3       17 UNK        -0.1800 
     97 C          -4.5348  -19.3925  -50.3372 C.2       17 UNK         0.5000 
     98 O          -3.4119  -19.8958  -50.3873 O.2       17 UNK        -0.5000 
     99 N          -4.7808  -18.0911  -50.5440 N.am      18 UNK        -0.5000 
    100 CA        -3.7969  -17.0381  -50.8130 C.3       18 UNK         0.1400 
    101 CB        -4.5136  -15.6861  -50.6458 C.3       18 UNK        -0.1800 
    102 C         -3.1377  -17.1292  -52.2057 C.2       18 UNK         0.5000 
    103 O         -3.5162  -17.9709  -53.0231 O.2       18 UNK        -0.5000 
    104 N         -2.1707  -16.2316  -52.4606 N.am      19 UNK        -0.5000 
    105 CA        -1.4530  -16.1007  -53.7358 C.3       19 UNK         0.1400 
    106 CB        -0.4765  -14.9136  -53.6819 C.3       19 UNK        -0.1800 
    107 C         -2.3888  -15.9497  -54.9489 C.2       19 UNK         0.5000 
    108 O         -3.3509  -15.1816  -54.8892 O.2       19 UNK        -0.5000 
    109 N         -2.0832  -16.7095  -56.0095 N.am      20 UNK        -0.5000 
    110 CA        -2.8307  -16.8597  -57.2658 C.3       20 UNK         0.1400 
    111 CB        -2.9995  -15.5084  -57.9906 C.3       20 UNK        -0.1800 
    112 C         -4.1729  -17.6134  -57.1307 C.2       20 UNK         0.5000 
    113 O         -4.8058  -17.8835  -58.1525 O.2       20 UNK        -0.5000 
    114 N         -4.5699  -17.9761  -55.9038 N.am      21 UNK        -0.5000 
    115 CA        -5.7603  -18.7669  -55.5952 C.3       21 UNK         0.1400 
    116 CB        -6.6008  -18.0094  -54.5510 C.3       21 UNK        -0.1800 
    117 C         -5.3963  -20.1788  -55.0955 C.2       21 UNK         0.5000 
    118 O         -6.3144  -20.9372  -54.7854 O.2       21 UNK        -0.5000 
    119 N         -4.0911  -20.4958  -55.0274 N.am      22 UNK        -0.5000 
    120 CA        -3.4959  -21.7465  -54.5258 C.3       22 UNK         0.1400 
    121 C         -4.1357  -23.0292  -55.1312 C.2       22 UNK         0.5000 
    122 N         -4.9620  -23.7313  -54.3708 N.am      22 UNK        -0.7600 
    123 O         -3.8656  -23.3992  -56.2716 O.2       22 UNK        -0.5000 
    124 C124       -1.9556  -21.7793  -54.7158 C.3       23 UNK        -0.0398 
    125 S125       -1.0667  -20.4283  -53.8705 S.3       23 UNK        -0.2404 
    126 C126       -0.6249  -21.2158  -52.2798 C.3       23 UNK        -0.0205 
    127 H127        1.1179   -9.3439  -49.7650 H         1 UNK         0.0600 
    128 H128        1.8017   -9.0605  -48.1618 H         1 UNK         0.0600 
    129 H129        0.0558   -8.9509  -48.4098 H         1 UNK         0.0600 
    130 H130        1.0112  -11.5043  -50.2942 H         1 UNK         0.3000 
    131 H131        1.2270  -13.5882  -48.2734 H         1 UNK         0.0600 
    132 H132        0.9637  -14.0840  -51.2700 H         1 UNK         0.0800 
    133 H133        2.4330  -13.4742  -50.5963 H         1 UNK         0.0800 
    134 H134        0.3445  -16.3892  -51.3008 H         1 UNK         0.0800 
    135 H135       -0.0663  -16.6688  -49.6313 H         1 UNK         0.0800 
    136 H136       -0.7578  -18.5805  -51.6368 H         1 UNK         0.1150 
    137 H137        1.7091  -22.0321  -51.1002 H         1 UNK         0.1150 
    138 H138        2.9232  -18.2760  -49.4526 H         1 UNK         0.1150 
    139 H139        3.7899  -21.8991  -49.9461 H         1 UNK         0.0800 
    140 H140        4.5717  -20.3403  -50.0069 H         1 UNK         0.0800 
    141 H141        1.8225  -22.1509  -48.2940 H         1 UNK         0.0800 
    142 H142        1.5407  -21.1622  -46.8967 H         1 UNK         0.0800 
    143 H143        3.3624  -23.6294  -46.9355 H         1 UNK         0.0600 
    144 H144        2.8035  -21.6816  -44.8164 H         1 UNK         0.3000 
    145 H145        2.9967  -23.2203  -42.3133 H         1 UNK         0.0600 
    146 H146        5.1719  -23.2587  -41.0696 H         1 UNK         0.0600 
    147 H147        4.9156  -24.7009  -42.0357 H         1 UNK         0.0600 
    148 H148        6.0306  -23.4657  -42.5966 H         1 UNK         0.0600 
    149 H149        3.1648  -21.0545  -42.2572 H         1 UNK         0.3000 
    150 H150        5.6233  -18.8712  -42.0665 H         1 UNK         0.0600 
    151 H151        5.9497  -18.3770  -44.4325 H         1 UNK         0.0600 
    152 H152        4.7791  -17.2306  -43.7989 H         1 UNK         0.0600 
    153 H153        4.2451  -18.5925  -44.7840 H         1 UNK         0.0600 
    154 H154        2.7855  -18.5249  -42.6940 H         1 UNK         0.3000 
    155 H155        1.6373  -19.4081  -39.4817 H         1 UNK         0.0600 
    156 H156        2.2757  -17.0477  -39.0363 H         1 UNK         0.0600 
    157 H157        0.5775  -17.1634  -39.4735 H         1 UNK         0.0600 
    158 H158        1.7524  -16.5768  -40.6471 H         1 UNK         0.0600 
    159 H159        0.2933  -18.3003  -41.7417 H         1 UNK         0.3000 
    160 H160       -0.1073  -21.3839  -43.5498 H         1 UNK         0.0600 
    161 H161       -2.0661  -19.5024  -42.1306 H         1 UNK         0.0600 
    162 H162       -1.9461  -21.2308  -41.8535 H         1 UNK         0.0600 
    163 H163       -2.4553  -20.6302  -43.4254 H         1 UNK         0.0600 
    164 H164       -0.9005  -18.7496  -44.2173 H         1 UNK         0.3000 
    165 H165        2.2244  -17.6674  -45.6506 H         1 UNK         0.0600 
    166 H166        0.8848  -17.2318  -47.5961 H         1 UNK         0.0600 
    167 H167        1.0362  -18.9739  -47.4567 H         1 UNK         0.0600 
    168 H168       -0.4680  -18.1703  -46.9880 H         1 UNK         0.0600 
    169 H169       -0.3459  -16.4170  -45.4429 H         1 UNK         0.3000 
    170 H170        0.2684  -14.7928  -42.3146 H         1 UNK         0.0600 
    171 H171        1.2392  -13.3702  -44.1145 H         1 UNK         0.0600 
    172 H172       -0.0523  -13.8313  -45.2130 H         1 UNK         0.0600 
    173 H173       -0.4138  -12.8879  -43.7684 H         1 UNK         0.0600 
    174 H174       -1.9852  -14.9473  -44.1036 H         1 UNK         0.3000 
    175 H175       -3.6339  -17.6556  -42.4849 H         1 UNK         0.0600 
    176 H176       -4.0841  -15.6996  -41.0005 H         1 UNK         0.0600 
    177 H177       -4.2117  -14.6462  -42.4043 H         1 UNK         0.0600 
    178 H178       -5.3860  -15.9386  -42.1547 H         1 UNK         0.0600 
    179 H179       -4.4262  -15.8456  -44.5594 H         1 UNK         0.3000 
    180 H180       -3.2689  -17.8513  -47.2917 H         1 UNK         0.0600 
    181 H181       -5.4646  -18.7650  -46.5552 H         1 UNK         0.0600 
    182 H182       -6.0407  -17.1435  -46.1900 H         1 UNK         0.0600 
    183 H183       -5.6773  -17.5991  -47.8517 H         1 UNK         0.0600 
    184 H184       -4.6144  -15.4062  -47.3856 H         1 UNK         0.3000 
    185 H185       -3.3699  -13.6847  -48.4439 H         1 UNK         0.0600 
    186 H186       -4.1861  -13.0510  -46.1589 H         1 UNK         0.0600 
    187 H187       -2.5308  -12.7845  -45.6233 H         1 UNK         0.0600 
    188 H188       -3.2405  -11.7478  -46.8588 H         1 UNK         0.0600 
    189 H189       -0.8360  -12.7142  -47.3735 H         1 UNK         0.3000 
    190 H190        1.5767  -24.6170  -48.1692 H         1 UNK         0.3000 
    191 H191       -0.4784  -25.9193  -46.6480 H         1 UNK         0.0600 
    192 H192       -0.0817  -25.6200  -49.6768 H         1 UNK         0.0600 
    193 H193       -1.1589  -26.7690  -48.8940 H         1 UNK         0.0600 
    194 H194        0.5764  -26.9153  -48.6752 H         1 UNK         0.0600 
    195 H195       -0.3144  -22.7747  -47.7527 H         1 UNK         0.3000 
    196 H196       -2.7069  -21.9810  -48.8241 H         1 UNK         0.0600 
    197 H197       -2.0715  -19.7532  -47.9389 H         1 UNK         0.0600 
    198 H198       -0.6676  -20.5812  -48.5826 H         1 UNK         0.0600 
    199 H199       -0.9256  -20.5046  -46.8335 H         1 UNK         0.0600 
    200 H200       -2.2456  -23.0045  -45.5249 H         1 UNK         0.3000 
    201 H201       -4.4837  -21.8639  -44.2234 H         1 UNK         0.0600 
    202 H202       -4.2135  -23.7924  -42.6774 H         1 UNK         0.0600 
    203 H203       -3.2085  -24.6349  -43.8505 H         1 UNK         0.0600 
    204 H204       -2.6304  -23.1562  -43.0953 H         1 UNK         0.0600 
    205 H205       -4.2325  -24.5497  -46.5142 H         1 UNK         0.3000 
    206 H206       -7.2093  -24.9195  -46.4984 H         1 UNK         0.0600 
    207 H207       -5.9896  -26.9903  -45.8593 H         1 UNK         0.0600 
    208 H208       -6.7238  -27.1705  -47.4457 H         1 UNK         0.0600 
    209 H209       -4.9928  -26.8783  -47.3088 H         1 UNK         0.0600 
    210 H210       -4.2356  -24.5057  -48.4690 H         1 UNK         0.3000 
    211 H211       -5.5886  -24.6899  -50.9738 H         1 UNK         0.0600 
    212 H212       -3.3816  -24.1602  -51.9207 H         1 UNK         0.0600 
    213 H213       -3.2028  -25.3195  -50.6154 H         1 UNK         0.0600 
    214 H214       -2.7845  -23.6277  -50.3616 H         1 UNK         0.0600 
    215 H215       -5.2296  -21.9646  -48.8576 H         1 UNK         0.3000 
    216 H216       -5.9998  -19.9251  -48.9033 H         1 UNK         0.0600 
    217 H217       -7.3953  -18.9556  -50.6154 H         1 UNK         0.0600 
    218 H218       -7.8203  -20.6531  -50.5391 H         1 UNK         0.0600 
    219 H219       -6.8008  -20.0556  -51.8481 H         1 UNK         0.0600 
    220 H220       -5.7416  -17.7861  -50.5206 H         1 UNK         0.3000 
    221 H221       -3.0058  -17.1146  -50.0637 H         1 UNK         0.0600 
    222 H222       -5.2856  -15.5484  -51.4041 H         1 UNK         0.0600 
    223 H223       -4.9893  -15.6057  -49.6691 H         1 UNK         0.0600 
    224 H224       -3.8204  -14.8495  -50.7338 H         1 UNK         0.0600 
    225 H225       -1.9412  -15.5505  -51.7457 H         1 UNK         0.3000 
    226 H226       -0.8693  -17.0142  -53.8683 H         1 UNK         0.0600 
    227 H227       -0.9212  -14.0421  -53.2001 H         1 UNK         0.0600 
    228 H228        0.4347  -15.1773  -53.1508 H         1 UNK         0.0600 
    229 H229       -0.1634  -14.6079  -54.6815 H         1 UNK         0.0600 
    230 H230       -1.2699  -17.3055  -55.9364 H         1 UNK         0.3000 
    231 H231       -2.2046  -17.4884  -57.9006 H         1 UNK         0.0600 
    232 H232       -2.0453  -14.9910  -58.0901 H         1 UNK         0.0600 
    233 H233       -3.6893  -14.8464  -57.4670 H         1 UNK         0.0600 
    234 H234       -3.3949  -15.6538  -58.9965 H         1 UNK         0.0600 
    235 H235       -4.0089  -17.7123  -55.1011 H         1 UNK         0.3000 
    236 H236       -6.3749  -18.8971  -56.4879 H         1 UNK         0.0600 
    237 H237       -6.8523  -17.0075  -54.8990 H         1 UNK         0.0600 
    238 H238       -7.5391  -18.5286  -54.3524 H         1 UNK         0.0600 
    239 H239       -6.0765  -17.9120  -53.6005 H         1 UNK         0.0600 
    240 H240       -3.4287  -19.7812  -55.2854 H         1 UNK         0.3000 
    241 H241       -3.6717  -21.7516  -53.4509 H         1 UNK         0.0600 
    242 H242       -5.2727  -23.3340  -53.4860 H         1 UNK         0.3800 
    243 H243       -5.3954  -24.5644  -54.7347 H         1 UNK         0.3800 
    244 H244       -1.5491  -22.7312  -54.3696 H         1 UNK         0.0800 
    245 H245       -1.7093  -21.7221  -55.7774 H         1 UNK         0.0800 
    246 H246       -1.5296  -21.3592  -51.6874 H         1 UNK         0.0800 
    247 H247       -0.2157  -22.2081  -52.4740 H         1 UNK         0.0800 
@<TRIPOS>BOND
     1    1    2 1    
     2    1  127 1    
     3    1  128 1    
     4    1  129 1    
     5    2    3 2    
     6    2    4 am   BACKBONE|DICT|INTERRES
     7    4    5 1    
     8    4  130 1    
     9    5    6 1    
    10    5   65 1    
    11    5  131 1    
    12    6    7 1    
    13    6  132 1    
    14    6  133 1    
    15    7    8 1    
    16    8    9 1    
    17    8  134 1    
    18    8  135 1    
    19    9   10 ar   
    20    9   14 ar   
    21   10   11 ar   
    22   10  136 1    
    23   11   12 ar   
    24   11  126 1    
    25   12   13 ar   
    26   12  137 1    
    27   13   14 ar   
    28   13   15 1    
    29   14  138 1    
    30   15   16 1    
    31   15  139 1    
    32   15  140 1    
    33   16   17 1    
    34   17   18 1    
    35   17  141 1    
    36   17  142 1    
    37   18   19 1    
    38   18   67 1    
    39   18  143 1    
    40   19   20 am   BACKBONE|DICT|INTERRES
    41   19  144 1    
    42   20   21 2    
    43   20   22 1    
    44   22   23 1    
    45   22   24 1    
    46   22  145 1    
    47   23  146 1    
    48   23  147 1    
    49   23  148 1    
    50   24   25 am   BACKBONE|DICT|INTERRES
    51   24  149 1    
    52   25   26 2    
    53   25   27 1    
    54   27   28 1    
    55   27   29 1    
    56   27  150 1    
    57   28  151 1    
    58   28  152 1    
    59   28  153 1    
    60   29   30 am   BACKBONE|DICT|INTERRES
    61   29  154 1    
    62   30   31 2    
    63   30   32 1    
    64   32   33 1    
    65   32   34 1    
    66   32  155 1    
    67   33  156 1    
    68   33  157 1    
    69   33  158 1    
    70   34   35 am   BACKBONE|DICT|INTERRES
    71   34  159 1    
    72   35   36 2    
    73   35   37 1    
    74   37   38 1    
    75   37   39 1    
    76   37  160 1    
    77   38  161 1    
    78   38  162 1    
    79   38  163 1    
    80   39   40 am   BACKBONE|DICT|INTERRES
    81   39  164 1    
    82   40   41 2    
    83   40   42 1    
    84   42   43 1    
    85   42   44 1    
    86   42  165 1    
    87   43  166 1    
    88   43  167 1    
    89   43  168 1    
    90   44   45 am   BACKBONE|DICT|INTERRES
    91   44  169 1    
    92   45   46 2    
    93   45   47 1    
    94   47   48 1    
    95   47   49 1    
    96   47  170 1    
    97   48  171 1    
    98   48  172 1    
    99   48  173 1    
   100   49   50 am   BACKBONE|DICT|INTERRES
   101   49  174 1    
   102   50   51 2    
   103   50   52 1    
   104   52   53 1    
   105   52   54 1    
   106   52  175 1    
   107   53  176 1    
   108   53  177 1    
   109   53  178 1    
   110   54   55 am   BACKBONE|DICT|INTERRES
   111   54  179 1    
   112   55   56 2    
   113   55   57 1    
   114   57   58 1    
   115   57   59 1    
   116   57  180 1    
   117   58  181 1    
   118   58  182 1    
   119   58  183 1    
   120   59   60 am   BACKBONE|DICT|INTERRES
   121   59  184 1    
   122   60   61 2    
   123   60   62 1    
   124   62   63 1    
   125   62   64 1    
   126   62  185 1    
   127   63  186 1    
   128   63  187 1    
   129   63  188 1    
   130   64   65 am   BACKBONE|DICT|INTERRES
   131   64  189 1    
   132   65   66 2    
   133   67   68 2    
   134   67   69 am   BACKBONE|DICT|INTERRES
   135   69   70 1    
   136   69  190 1    
   137   70   71 1    
   138   70   72 1    
   139   70  191 1    
   140   71  192 1    
   141   71  193 1    
   142   71  194 1    
   143   72   73 2    
   144   72   74 am   BACKBONE|DICT|INTERRES
   145   74   75 1    
   146   74  195 1    
   147   75   76 1    
   148   75   77 1    
   149   75  196 1    
   150   76  197 1    
   151   76  198 1    
   152   76  199 1    
   153   77   78 2    
   154   77   79 am   BACKBONE|DICT|INTERRES
   155   79   80 1    
   156   79  200 1    
   157   80   81 1    
   158   80   82 1    
   159   80  201 1    
   160   81  202 1    
   161   81  203 1    
   162   81  204 1    
   163   82   83 2    
   164   82   84 am   BACKBONE|DICT|INTERRES
   165   84   85 1    
   166   84  205 1    
   167   85   86 1    
   168   85   87 1    
   169   85  206 1    
   170   86  207 1    
   171   86  208 1    
   172   86  209 1    
   173   87   88 2    
   174   87   89 am   BACKBONE|DICT|INTERRES
   175   89   90 1    
   176   89  210 1    
   177   90   91 1    
   178   90   92 1    
   179   90  211 1    
   180   91  212 1    
   181   91  213 1    
   182   91  214 1    
   183   92   93 2    
   184   92   94 am   BACKBONE|DICT|INTERRES
   185   94   95 1    
   186   94  215 1    
   187   95   96 1    
   188   95   97 1    
   189   95  216 1    
   190   96  217 1    
   191   96  218 1    
   192   96  219 1    
   193   97   98 2    
   194   97   99 am   BACKBONE|DICT|INTERRES
   195   99  100 1    
   196   99  220 1    
   197  100  101 1    
   198  100  102 1    
   199  100  221 1    
   200  101  222 1    
   201  101  223 1    
   202  101  224 1    
   203  102  103 2    
   204  102  104 am   BACKBONE|DICT|INTERRES
   205  104  105 1    
   206  104  225 1    
   207  105  106 1    
   208  105  107 1    
   209  105  226 1    
   210  106  227 1    
   211  106  228 1    
   212  106  229 1    
   213  107  108 2    
   214  107  109 am   BACKBONE|DICT|INTERRES
   215  109  110 1    
   216  109  230 1    
   217  110  111 1    
   218  110  112 1    
   219  110  231 1    
   220  111  232 1    
   221  111  233 1    
   222  111  234 1    
   223  112  113 2    
   224  112  114 am   BACKBONE|DICT|INTERRES
   225  114  115 1    
   226  114  235 1    
   227  115  116 1    
   228  115  117 1    
   229  115  236 1    
   230  116  237 1    
   231  116  238 1    
   232  116  239 1    
   233  117  118 2    
   234  117  119 am   BACKBONE|DICT|INTERRES
   235  119  120 1    
   236  119  240 1    
   237  120  121 1    
   238  120  124 1    
   239  120  241 1    
   240  121  122 am   BACKBONE|DICT|INTERRES
   241  121  123 2    
   242  122  242 1    
   243  122  243 1    
   244  124  125 1    
   245  124  244 1    
   246  124  245 1    
   247  125  126 1    
   248  126  246 1    
   249  126  247 1    
@<TRIPOS>SUBSTRUCTURE
     1 UNK         1 GROUP             0       ****    0 ROOT    
